
     RDKit          2D

 17 19  0  0  0  0  0  0  0  0999 V2000
   -4.5558    1.5139    0.0000 C   0  0  0  0  0  0  0  0  0  0  0  0
   -4.5570    0.6900    0.0000 C   0  0  0  0  0  0  0  0  0  0  0  0
   -3.8456    0.2809    0.0000 C   0  0  0  0  0  0  0  0  0  0  0  0
   -3.8474    1.9271    0.0000 C   0  0  0  0  0  0  0  0  0  0  0  0
   -3.1355    1.5177    0.0000 C   0  0  0  0  0  0  0  0  0  0  0  0
   -3.1348    0.6900    0.0000 C   0  0  0  0  0  0  0  0  0  0  0  0
   -2.4193    0.2808    0.0000 N   0  0  0  0  0  0  0  0  0  0  0  0
   -2.4250    1.9343    0.0000 C   0  0  0  0  0  0  0  0  0  0  0  0
   -1.7089    1.5246    0.0000 C   0  0  0  0  0  0  0  0  0  0  0  0
   -1.7042    0.6900    0.0000 C   0  0  0  0  0  0  0  0  0  0  0  0
   -0.9807    0.2807    0.0000 C   0  0  0  0  0  0  0  0  0  0  0  0
   -0.2615    0.7008    0.0000 C   0  0  0  0  0  0  0  0  0  0  0  0
   -0.2704    1.5386    0.0000 C   0  0  0  0  0  0  0  0  0  0  0  0
   -0.9945    1.9482    0.0000 C   0  0  0  0  0  0  0  0  0  0  0  0
   -2.4293    2.7558    0.0000 O   0  0  0  0  0  0  0  0  0  0  0  0
   -1.0028    2.7697    0.0000 O   0  0  0  0  0  0  0  0  0  0  0  0
   -0.2960    3.1857    0.0000 C   0  0  0  0  0  0  0  0  0  0  0  0
  9  8  1  0
  8  5  1  0
  5  4  1  0
  4  1  2  0
  9 10  2  0
 10 11  1  0
  2  3  2  0
 11 12  2  0
  5  6  2  0
 12 13  1  0
  3  6  1  0
 13 14  2  0
 14  9  1  0
  6  7  1  0
  8 15  2  0
  7 10  1  0
 14 16  1  0
  1  2  1  0
 16 17  1  0
M  END
>  <Classification>  (1) 
1

>  <pchembl>  (1) 
5.2

>  <InChI_steorem>  (1) 
InChI=1S/C14H11NO2/c1-17-12-8-4-7-11-13(12)14(16)9-5-2-3-6-10(9)15-11/h2-8H,1H3,(H,15,16)

>  <source>  (1) 
ChEMBL25

>  <source_id>  (1) 
25

>  <optional_reference>  (1) 
10.1016/j.bmc.2007.02.017

>  <optional_origin>  (1) 
None

>  <target>  (1) 
BCRP

$$$$

     RDKit          2D

 19 21  0  0  0  0  0  0  0  0999 V2000
   11.9259    1.6070    0.0000 C   0  0  0  0  0  0  0  0  0  0  0  0
   11.9247    0.7845    0.0000 C   0  0  0  0  0  0  0  0  0  0  0  0
   12.6348    0.3720    0.0000 C   0  0  0  0  0  0  0  0  0  0  0  0
   12.6330    2.0153    0.0000 C   0  0  0  0  0  0  0  0  0  0  0  0
   13.3436    1.6106    0.0000 C   0  0  0  0  0  0  0  0  0  0  0  0
   13.3443    0.7845    0.0000 C   0  0  0  0  0  0  0  0  0  0  0  0
   14.0585    0.3718    0.0000 N   0  0  0  0  0  0  0  0  0  0  0  0
   14.0528    2.0224    0.0000 C   0  0  0  0  0  0  0  0  0  0  0  0
   14.7717    1.6176    0.0000 C   0  0  0  0  0  0  0  0  0  0  0  0
   14.7765    0.7844    0.0000 C   0  0  0  0  0  0  0  0  0  0  0  0
   15.4987    0.3718    0.0000 C   0  0  0  0  0  0  0  0  0  0  0  0
   16.2166    0.7952    0.0000 C   0  0  0  0  0  0  0  0  0  0  0  0
   16.2078    1.6315    0.0000 C   0  0  0  0  0  0  0  0  0  0  0  0
   15.4850    2.0363    0.0000 C   0  0  0  0  0  0  0  0  0  0  0  0
   14.0485    2.8425    0.0000 O   0  0  0  0  0  0  0  0  0  0  0  0
   16.9299    0.3893    0.0000 O   0  0  0  0  0  0  0  0  0  0  0  0
   16.9370   -0.4308    0.0000 C   0  0  0  0  0  0  0  0  0  0  0  0
   15.4766    2.8606    0.0000 O   0  0  0  0  0  0  0  0  0  0  0  0
   16.1862    3.2799    0.0000 C   0  0  0  0  0  0  0  0  0  0  0  0
  5  4  1  0
  4  1  2  0
  9 10  2  0
 10 11  1  0
  2  3  2  0
 11 12  2  0
  5  6  2  0
 12 13  1  0
  3  6  1  0
 13 14  2  0
 14  9  1  0
  6  7  1  0
  8 15  2  0
  7 10  1  0
 12 16  1  0
  1  2  1  0
 16 17  1  0
  9  8  1  0
 14 18  1  0
  8  5  1  0
 18 19  1  0
M  END
>  <Classification>  (2) 
1

>  <pchembl>  (2) 
5.1

>  <InChI_steorem>  (2) 
InChI=1S/C15H13NO3/c1-18-9-7-12-14(13(8-9)19-2)15(17)10-5-3-4-6-11(10)16-12/h3-8H,1-2H3,(H,16,17)

>  <source>  (2) 
ChEMBL25

>  <source_id>  (2) 
25

>  <optional_reference>  (2) 
10.1016/j.bmc.2007.02.017

>  <optional_origin>  (2) 
None

>  <target>  (2) 
BCRP

$$$$

     RDKit          2D

 21 23  0  0  0  0  0  0  0  0999 V2000
    3.7038   -3.0905    0.0000 C   0  0  0  0  0  0  0  0  0  0  0  0
    3.7027   -3.9153    0.0000 C   0  0  0  0  0  0  0  0  0  0  0  0
    4.4153   -4.3269    0.0000 C   0  0  0  0  0  0  0  0  0  0  0  0
    4.4135   -2.6790    0.0000 C   0  0  0  0  0  0  0  0  0  0  0  0
    5.1267   -3.0868    0.0000 C   0  0  0  0  0  0  0  0  0  0  0  0
    5.1274   -3.9153    0.0000 C   0  0  0  0  0  0  0  0  0  0  0  0
    5.8442   -4.3271    0.0000 N   0  0  0  0  0  0  0  0  0  0  0  0
    5.8385   -2.6719    0.0000 C   0  0  0  0  0  0  0  0  0  0  0  0
    6.5558   -3.0799    0.0000 C   0  0  0  0  0  0  0  0  0  0  0  0
    6.5606   -3.9154    0.0000 C   0  0  0  0  0  0  0  0  0  0  0  0
    7.2853   -4.3271    0.0000 C   0  0  0  0  0  0  0  0  0  0  0  0
    8.0058   -3.9046    0.0000 C   0  0  0  0  0  0  0  0  0  0  0  0
    7.9970   -3.0660    0.0000 C   0  0  0  0  0  0  0  0  0  0  0  0
    7.2716   -2.6580    0.0000 C   0  0  0  0  0  0  0  0  0  0  0  0
    5.8342   -1.8494    0.0000 O   0  0  0  0  0  0  0  0  0  0  0  0
    7.2634   -1.8356    0.0000 O   0  0  0  0  0  0  0  0  0  0  0  0
    7.9715   -1.4171    0.0000 C   0  0  0  0  0  0  0  0  0  0  0  0
    8.7217   -4.3097    0.0000 C   0  0  0  0  0  0  0  0  0  0  0  0
    9.4293   -4.7188    0.0000 F   0  0  0  0  0  0  0  0  0  0  0  0
    9.1300   -3.5957    0.0000 F   0  0  0  0  0  0  0  0  0  0  0  0
    8.3176   -5.0260    0.0000 F   0  0  0  0  0  0  0  0  0  0  0  0
  9 10  2  0
 10 11  1  0
  2  3  1  0
 11 12  2  0
  5  6  1  0
 12 13  1  0
  3  6  2  0
 13 14  2  0
 14  9  1  0
  6  7  1  0
  8 15  2  0
  7 10  1  0
 14 16  1  0
  1  2  2  0
 16 17  1  0
  9  8  1  0
 12 18  1  0
  8  5  1  0
 18 19  1  0
  5  4  2  0
 18 20  1  0
  4  1  1  0
 18 21  1  0
M  END
>  <Classification>  (3) 
1

>  <pchembl>  (3) 
6.11

>  <InChI_steorem>  (3) 
InChI=1S/C15H10F3NO2/c1-21-12-7-8(15(16,17)18)6-11-13(12)14(20)9-4-2-3-5-10(9)19-11/h2-7H,1H3,(H,19,20)

>  <source>  (3) 
ChEMBL25

>  <source_id>  (3) 
25

>  <optional_reference>  (3) 
10.1016/j.bmc.2007.02.017

>  <optional_origin>  (3) 
None

>  <target>  (3) 
BCRP

$$$$

     RDKit          2D

 28 31  0  0  0  0  0  0  0  0999 V2000
   -4.6861  -18.4516    0.0000 C   0  0  0  0  0  0  0  0  0  0  0  0
   -4.6873  -19.2778    0.0000 C   0  0  0  0  0  0  0  0  0  0  0  0
   -3.9735  -19.6901    0.0000 C   0  0  0  0  0  0  0  0  0  0  0  0
   -3.9753  -18.0395    0.0000 C   0  0  0  0  0  0  0  0  0  0  0  0
   -3.2610  -18.4480    0.0000 C   0  0  0  0  0  0  0  0  0  0  0  0
   -3.2602  -19.2778    0.0000 C   0  0  0  0  0  0  0  0  0  0  0  0
   -2.5424  -19.6902    0.0000 N   0  0  0  0  0  0  0  0  0  0  0  0
   -2.5480  -18.0324    0.0000 C   0  0  0  0  0  0  0  0  0  0  0  0
   -1.8296  -18.4410    0.0000 C   0  0  0  0  0  0  0  0  0  0  0  0
   -1.8249  -19.2778    0.0000 C   0  0  0  0  0  0  0  0  0  0  0  0
   -1.0990  -19.6903    0.0000 C   0  0  0  0  0  0  0  0  0  0  0  0
   -0.3773  -19.2671    0.0000 C   0  0  0  0  0  0  0  0  0  0  0  0
   -0.3862  -18.4272    0.0000 C   0  0  0  0  0  0  0  0  0  0  0  0
   -1.1126  -18.0185    0.0000 C   0  0  0  0  0  0  0  0  0  0  0  0
   -2.5524  -17.2087    0.0000 O   0  0  0  0  0  0  0  0  0  0  0  0
   -1.0916  -20.5175    0.0000 C   0  0  0  0  0  0  0  0  0  0  0  0
   -1.8021  -20.9343    0.0000 O   0  0  0  0  0  0  0  0  0  0  0  0
   -0.3749  -20.9238    0.0000 N   0  0  0  0  0  0  0  0  0  0  0  0
    0.3352  -20.5064    0.0000 C   0  0  0  0  0  0  0  0  0  0  0  0
    1.0518  -20.9126    0.0000 C   0  0  0  0  0  0  0  0  0  0  0  0
    1.7620  -20.4951    0.0000 C   0  0  0  0  0  0  0  0  0  0  0  0
    2.4766  -20.9058    0.0000 C   0  0  0  0  0  0  0  0  0  0  0  0
    3.1863  -20.4890    0.0000 C   0  0  0  0  0  0  0  0  0  0  0  0
    3.1803  -19.6643    0.0000 C   0  0  0  0  0  0  0  0  0  0  0  0
    2.4585  -19.2583    0.0000 C   0  0  0  0  0  0  0  0  0  0  0  0
    1.7519  -19.6775    0.0000 C   0  0  0  0  0  0  0  0  0  0  0  0
    3.8898  -19.2459    0.0000 O   0  0  0  0  0  0  0  0  0  0  0  0
    4.6069  -19.6512    0.0000 C   0  0  0  0  0  0  0  0  0  0  0  0
  3  6  2  0
 13 14  1  0
 14  9  2  0
  6  7  1  0
  8 15  2  0
  7 10  1  0
  1  2  2  0
 16 17  2  0
 11 16  1  0
  9  8  1  0
 16 18  1  0
  8  5  1  0
 18 19  1  0
  5  4  2  0
 19 20  1  0
  4  1  1  0
 20 21  1  0
  9 10  1  0
 21 22  2  0
 22 23  1  0
 10 11  2  0
 23 24  2  0
  2  3  1  0
 24 25  1  0
 11 12  1  0
 25 26  2  0
 26 21  1  0
  5  6  1  0
 24 27  1  0
 12 13  2  0
 27 28  1  0
M  END
>  <Classification>  (4) 
1

>  <pchembl>  (4) 
6.46

>  <InChI_steorem>  (4) 
InChI=1S/C23H20N2O3/c1-28-16-11-9-15(10-12-16)13-14-24-23(27)19-7-4-6-18-21(19)25-20-8-3-2-5-17(20)22(18)26/h2-12H,13-14H2,1H3,(H,24,27)(H,25,26)

>  <source>  (4) 
ChEMBL25

>  <source_id>  (4) 
25

>  <optional_reference>  (4) 
10.1016/j.bmc.2007.02.017

>  <optional_origin>  (4) 
None

>  <target>  (4) 
BCRP

$$$$

     RDKit          2D

 30 33  0  0  0  0  0  0  0  0999 V2000
   -4.3471  -23.6639    0.0000 C   0  0  0  0  0  0  0  0  0  0  0  0
   -4.3483  -24.4904    0.0000 C   0  0  0  0  0  0  0  0  0  0  0  0
   -3.6342  -24.9029    0.0000 C   0  0  0  0  0  0  0  0  0  0  0  0
   -3.6360  -23.2515    0.0000 C   0  0  0  0  0  0  0  0  0  0  0  0
   -2.9213  -23.6602    0.0000 C   0  0  0  0  0  0  0  0  0  0  0  0
   -2.9205  -24.4904    0.0000 C   0  0  0  0  0  0  0  0  0  0  0  0
   -2.2023  -24.9031    0.0000 N   0  0  0  0  0  0  0  0  0  0  0  0
   -2.2080  -23.2444    0.0000 C   0  0  0  0  0  0  0  0  0  0  0  0
   -1.4892  -23.6533    0.0000 C   0  0  0  0  0  0  0  0  0  0  0  0
   -1.4844  -24.4905    0.0000 C   0  0  0  0  0  0  0  0  0  0  0  0
   -0.7581  -24.9031    0.0000 C   0  0  0  0  0  0  0  0  0  0  0  0
   -0.0362  -24.4797    0.0000 C   0  0  0  0  0  0  0  0  0  0  0  0
   -0.0451  -23.6393    0.0000 C   0  0  0  0  0  0  0  0  0  0  0  0
   -0.7719  -23.2305    0.0000 C   0  0  0  0  0  0  0  0  0  0  0  0
   -2.2123  -22.4202    0.0000 O   0  0  0  0  0  0  0  0  0  0  0  0
   -0.7508  -25.7308    0.0000 C   0  0  0  0  0  0  0  0  0  0  0  0
   -1.4617  -26.1478    0.0000 O   0  0  0  0  0  0  0  0  0  0  0  0
   -0.0338  -26.1372    0.0000 N   0  0  0  0  0  0  0  0  0  0  0  0
    0.6767  -25.7196    0.0000 C   0  0  0  0  0  0  0  0  0  0  0  0
    1.3937  -26.1261    0.0000 C   0  0  0  0  0  0  0  0  0  0  0  0
    2.1042  -25.7083    0.0000 C   0  0  0  0  0  0  0  0  0  0  0  0
    2.8192  -26.1193    0.0000 C   0  0  0  0  0  0  0  0  0  0  0  0
    3.5292  -25.7022    0.0000 C   0  0  0  0  0  0  0  0  0  0  0  0
    3.5231  -24.8772    0.0000 C   0  0  0  0  0  0  0  0  0  0  0  0
    2.8011  -24.4709    0.0000 C   0  0  0  0  0  0  0  0  0  0  0  0
    2.0940  -24.8903    0.0000 C   0  0  0  0  0  0  0  0  0  0  0  0
    4.2331  -24.4585    0.0000 O   0  0  0  0  0  0  0  0  0  0  0  0
    4.9506  -24.8640    0.0000 C   0  0  0  0  0  0  0  0  0  0  0  0
   -5.0624  -24.9020    0.0000 O   0  0  0  0  0  0  0  0  0  0  0  0
   -5.7757  -24.4893    0.0000 C   0  0  0  0  0  0  0  0  0  0  0  0
 14  9  2  0
  6  7  1  0
  8 15  2  0
  7 10  1  0
  1  2  2  0
 16 17  2  0
 11 16  1  0
  9  8  1  0
 16 18  1  0
  8  5  1  0
 18 19  1  0
  5  4  2  0
 19 20  1  0
  4  1  1  0
 20 21  1  0
  9 10  1  0
 21 22  2  0
 22 23  1  0
 10 11  2  0
 23 24  2  0
  2  3  1  0
 24 25  1  0
 11 12  1  0
 25 26  2  0
 26 21  1  0
  5  6  1  0
 24 27  1  0
 12 13  2  0
 27 28  1  0
  3  6  2  0
  2 29  1  0
 13 14  1  0
 29 30  1  0
M  END
>  <Classification>  (5) 
1

>  <pchembl>  (5) 
6.25

>  <InChI_steorem>  (5) 
InChI=1S/C24H22N2O4/c1-29-16-8-6-15(7-9-16)12-13-25-24(28)20-5-3-4-19-22(20)26-21-14-17(30-2)10-11-18(21)23(19)27/h3-11,14H,12-13H2,1-2H3,(H,25,28)(H,26,27)

>  <source>  (5) 
ChEMBL25

>  <source_id>  (5) 
25

>  <optional_reference>  (5) 
10.1016/j.bmc.2007.02.017

>  <optional_origin>  (5) 
None

>  <target>  (5) 
BCRP

$$$$

     RDKit          2D

 30 33  0  0  0  0  0  0  0  0999 V2000
    7.3237  -18.2254    0.0000 C   0  0  0  0  0  0  0  0  0  0  0  0
    7.3225  -19.0519    0.0000 C   0  0  0  0  0  0  0  0  0  0  0  0
    8.0366  -19.4643    0.0000 C   0  0  0  0  0  0  0  0  0  0  0  0
    8.0348  -17.8131    0.0000 C   0  0  0  0  0  0  0  0  0  0  0  0
    8.7493  -18.2218    0.0000 C   0  0  0  0  0  0  0  0  0  0  0  0
    8.7501  -19.0519    0.0000 C   0  0  0  0  0  0  0  0  0  0  0  0
    9.4682  -19.4645    0.0000 N   0  0  0  0  0  0  0  0  0  0  0  0
    9.4626  -17.8060    0.0000 C   0  0  0  0  0  0  0  0  0  0  0  0
   10.1813  -18.2148    0.0000 C   0  0  0  0  0  0  0  0  0  0  0  0
   10.1860  -19.0519    0.0000 C   0  0  0  0  0  0  0  0  0  0  0  0
   10.9122  -19.4645    0.0000 C   0  0  0  0  0  0  0  0  0  0  0  0
   11.6341  -19.0411    0.0000 C   0  0  0  0  0  0  0  0  0  0  0  0
   11.6252  -18.2009    0.0000 C   0  0  0  0  0  0  0  0  0  0  0  0
   10.8985  -17.7921    0.0000 C   0  0  0  0  0  0  0  0  0  0  0  0
    9.4582  -16.9819    0.0000 O   0  0  0  0  0  0  0  0  0  0  0  0
   10.9196  -20.2921    0.0000 C   0  0  0  0  0  0  0  0  0  0  0  0
   10.2088  -20.7091    0.0000 O   0  0  0  0  0  0  0  0  0  0  0  0
   11.6365  -20.6986    0.0000 N   0  0  0  0  0  0  0  0  0  0  0  0
   12.3469  -20.2808    0.0000 C   0  0  0  0  0  0  0  0  0  0  0  0
   13.0638  -20.6873    0.0000 C   0  0  0  0  0  0  0  0  0  0  0  0
   13.7742  -20.2697    0.0000 C   0  0  0  0  0  0  0  0  0  0  0  0
   14.4891  -20.6805    0.0000 C   0  0  0  0  0  0  0  0  0  0  0  0
   15.1990  -20.2636    0.0000 C   0  0  0  0  0  0  0  0  0  0  0  0
   15.1930  -19.4386    0.0000 C   0  0  0  0  0  0  0  0  0  0  0  0
   14.4710  -19.0324    0.0000 C   0  0  0  0  0  0  0  0  0  0  0  0
   13.7641  -19.4517    0.0000 C   0  0  0  0  0  0  0  0  0  0  0  0
   15.9028  -19.0199    0.0000 O   0  0  0  0  0  0  0  0  0  0  0  0
   16.6202  -19.4254    0.0000 C   0  0  0  0  0  0  0  0  0  0  0  0
   15.9157  -20.6703    0.0000 O   0  0  0  0  0  0  0  0  0  0  0  0
   15.9218  -21.4943    0.0000 C   0  0  0  0  0  0  0  0  0  0  0  0
 14  9  2  0
  6  7  1  0
  8 15  2  0
  7 10  1  0
  1  2  2  0
 16 17  2  0
 11 16  1  0
  9  8  1  0
 16 18  1  0
  8  5  1  0
 18 19  1  0
  5  4  2  0
 19 20  1  0
  4  1  1  0
 20 21  1  0
  9 10  1  0
 21 22  2  0
 22 23  1  0
 10 11  2  0
 23 24  2  0
  2  3  1  0
 24 25  1  0
 11 12  1  0
 25 26  2  0
 26 21  1  0
  5  6  1  0
 24 27  1  0
 12 13  2  0
 27 28  1  0
  3  6  2  0
 23 29  1  0
 13 14  1  0
 29 30  1  0
M  END
>  <Classification>  (6) 
1

>  <pchembl>  (6) 
6.35

>  <InChI_steorem>  (6) 
InChI=1S/C24H22N2O4/c1-29-20-11-10-15(14-21(20)30-2)12-13-25-24(28)18-8-5-7-17-22(18)26-19-9-4-3-6-16(19)23(17)27/h3-11,14H,12-13H2,1-2H3,(H,25,28)(H,26,27)

>  <source>  (6) 
ChEMBL25

>  <source_id>  (6) 
25

>  <optional_reference>  (6) 
10.1016/j.bmc.2007.02.017

>  <optional_origin>  (6) 
None

>  <target>  (6) 
BCRP

$$$$

     RDKit          2D

 32 35  0  0  0  0  0  0  0  0999 V2000
    8.4142  -23.7650    0.0000 C   0  0  0  0  0  0  0  0  0  0  0  0
    8.4130  -24.5915    0.0000 C   0  0  0  0  0  0  0  0  0  0  0  0
    9.1270  -25.0039    0.0000 C   0  0  0  0  0  0  0  0  0  0  0  0
    9.1252  -23.3528    0.0000 C   0  0  0  0  0  0  0  0  0  0  0  0
    9.8398  -23.7614    0.0000 C   0  0  0  0  0  0  0  0  0  0  0  0
    9.8406  -24.5915    0.0000 C   0  0  0  0  0  0  0  0  0  0  0  0
   10.5587  -25.0040    0.0000 N   0  0  0  0  0  0  0  0  0  0  0  0
   10.5530  -23.3457    0.0000 C   0  0  0  0  0  0  0  0  0  0  0  0
   11.2717  -23.7544    0.0000 C   0  0  0  0  0  0  0  0  0  0  0  0
   11.2765  -24.5915    0.0000 C   0  0  0  0  0  0  0  0  0  0  0  0
   12.0027  -25.0041    0.0000 C   0  0  0  0  0  0  0  0  0  0  0  0
   12.7246  -24.5808    0.0000 C   0  0  0  0  0  0  0  0  0  0  0  0
   12.7157  -23.7406    0.0000 C   0  0  0  0  0  0  0  0  0  0  0  0
   11.9889  -23.3317    0.0000 C   0  0  0  0  0  0  0  0  0  0  0  0
   10.5487  -22.5216    0.0000 O   0  0  0  0  0  0  0  0  0  0  0  0
   12.0101  -25.8317    0.0000 C   0  0  0  0  0  0  0  0  0  0  0  0
   11.2992  -26.2486    0.0000 O   0  0  0  0  0  0  0  0  0  0  0  0
   12.7270  -26.2382    0.0000 N   0  0  0  0  0  0  0  0  0  0  0  0
   13.4374  -25.8205    0.0000 C   0  0  0  0  0  0  0  0  0  0  0  0
   14.1543  -26.2269    0.0000 C   0  0  0  0  0  0  0  0  0  0  0  0
   14.8647  -25.8092    0.0000 C   0  0  0  0  0  0  0  0  0  0  0  0
   15.5796  -26.2201    0.0000 C   0  0  0  0  0  0  0  0  0  0  0  0
   16.2895  -25.8031    0.0000 C   0  0  0  0  0  0  0  0  0  0  0  0
   16.2834  -24.9782    0.0000 C   0  0  0  0  0  0  0  0  0  0  0  0
   15.5615  -24.5720    0.0000 C   0  0  0  0  0  0  0  0  0  0  0  0
   14.8545  -24.9914    0.0000 C   0  0  0  0  0  0  0  0  0  0  0  0
   16.9933  -24.5596    0.0000 O   0  0  0  0  0  0  0  0  0  0  0  0
   17.7107  -24.9651    0.0000 C   0  0  0  0  0  0  0  0  0  0  0  0
    7.6990  -25.0029    0.0000 O   0  0  0  0  0  0  0  0  0  0  0  0
    6.9857  -24.5904    0.0000 C   0  0  0  0  0  0  0  0  0  0  0  0
   17.0062  -26.2099    0.0000 O   0  0  0  0  0  0  0  0  0  0  0  0
   17.0123  -27.0340    0.0000 C   0  0  0  0  0  0  0  0  0  0  0  0
  8 15  2  0
  7 10  1  0
  1  2  2  0
 16 17  2  0
 11 16  1  0
  9  8  1  0
 16 18  1  0
  8  5  1  0
 18 19  1  0
  5  4  2  0
 19 20  1  0
  4  1  1  0
 20 21  1  0
  9 10  2  0
 21 22  2  0
 22 23  1  0
 10 11  1  0
 23 24  2  0
  2  3  1  0
 24 25  1  0
 11 12  2  0
 25 26  2  0
 26 21  1  0
  5  6  1  0
 24 27  1  0
 12 13  1  0
 27 28  1  0
  3  6  2  0
  2 29  1  0
 13 14  2  0
 29 30  1  0
 14  9  1  0
 23 31  1  0
  6  7  1  0
 31 32  1  0
M  END
>  <Classification>  (7) 
1

>  <pchembl>  (7) 
5.86

>  <InChI_steorem>  (7) 
InChI=1S/C25H24N2O5/c1-30-16-8-9-17-20(14-16)27-23-18(24(17)28)5-4-6-19(23)25(29)26-12-11-15-7-10-21(31-2)22(13-15)32-3/h4-10,13-14H,11-12H2,1-3H3,(H,26,29)(H,27,28)

>  <source>  (7) 
ChEMBL25

>  <source_id>  (7) 
25

>  <optional_reference>  (7) 
10.1016/j.bmc.2007.02.017

>  <optional_origin>  (7) 
None

>  <target>  (7) 
BCRP

$$$$

     RDKit          2D

 22 23  0  0  0  0  0  0  0  0999 V2000
   12.4330    0.1898    0.0000 C   0  0  0  0  0  0  0  0  0  0  0  0
   11.7172   -0.2227    0.0000 C   0  0  0  0  0  0  0  0  0  0  0  0
   11.7172   -1.0477    0.0000 O   0  0  0  0  0  0  0  0  0  0  0  0
   11.0013    0.1898    0.0000 C   0  0  0  0  0  0  0  0  0  0  0  0
   10.2896   -0.2227    0.0000 C   0  0  0  0  0  0  0  0  0  0  0  0
    9.5737    0.1898    0.0000 C   0  0  0  0  0  0  0  0  0  0  0  0
    9.5737    1.0148    0.0000 C   0  0  0  0  0  0  0  0  0  0  0  0
   10.2896    1.4273    0.0000 C   0  0  0  0  0  0  0  0  0  0  0  0
   11.0013    1.0148    0.0000 C   0  0  0  0  0  0  0  0  0  0  0  0
   13.1447   -0.2227    0.0000 C   0  0  0  0  0  0  0  0  0  0  0  0
   13.8606    0.1898    0.0000 C   0  0  0  0  0  0  0  0  0  0  0  0
   13.8606    1.0148    0.0000 C   0  0  0  0  0  0  0  0  0  0  0  0
   14.5764    1.4273    0.0000 C   0  0  0  0  0  0  0  0  0  0  0  0
   15.2881    1.0148    0.0000 C   0  0  0  0  0  0  0  0  0  0  0  0
   15.2881    0.1898    0.0000 C   0  0  0  0  0  0  0  0  0  0  0  0
   14.5764   -0.2227    0.0000 C   0  0  0  0  0  0  0  0  0  0  0  0
   13.1463    1.4276    0.0000 Cl  0  0  0  0  0  0  0  0  0  0  0  0
   10.2906   -1.0477    0.0000 O   0  0  0  0  0  0  0  0  0  0  0  0
    8.8594    1.4276    0.0000 O   0  0  0  0  0  0  0  0  0  0  0  0
    8.8598    2.2526    0.0000 C   0  0  0  0  0  0  0  0  0  0  0  0
   11.7161    1.4267    0.0000 O   0  0  0  0  0  0  0  0  0  0  0  0
   12.4302    1.0136    0.0000 C   0  0  0  0  0  0  0  0  0  0  0  0
  6  7  2  0
  7  8  1  0
  8  9  2  0
  4  9  1  0
  1 10  2  3
 10 11  1  0
 11 12  2  0
 12 13  1  0
 13 14  2  0
 14 15  1  0
 15 16  2  0
 11 16  1  0
 12 17  1  0
  1  2  1  0
  5 18  1  0
  2  3  2  0
  7 19  1  0
  2  4  1  0
 19 20  1  0
  4  5  2  0
  9 21  1  0
  5  6  1  0
 21 22  1  0
M  END
>  <Classification>  (8) 
1

>  <pchembl>  (8) 
5.28

>  <InChI_steorem>  (8) 
InChI=1S/C17H15ClO4/c1-21-12-9-15(20)17(16(10-12)22-2)14(19)8-7-11-5-3-4-6-13(11)18/h3-10,20H,1-2H3

>  <source>  (8) 
ChEMBL25

>  <source_id>  (8) 
25

>  <optional_reference>  (8) 
10.1016/j.bmc.2011.10.074

>  <optional_origin>  (8) 
None

>  <target>  (8) 
BCRP

$$$$

     RDKit          2D

 22 24  0  0  0  0  0  0  0  0999 V2000
   -3.9525  -14.3967    0.0000 C   0  0  0  0  0  0  0  0  0  0  0  0
   -3.9539  -15.2243    0.0000 C   0  0  0  0  0  0  0  0  0  0  0  0
   -3.2408  -15.6372    0.0000 C   0  0  0  0  0  0  0  0  0  0  0  0
   -3.2428  -13.9839    0.0000 C   0  0  0  0  0  0  0  0  0  0  0  0
   -2.5246  -14.3926    0.0000 C   0  0  0  0  0  0  0  0  0  0  0  0
   -2.5236  -15.2201    0.0000 C   0  0  0  0  0  0  0  0  0  0  0  0
   -1.8076  -15.6310    0.0000 C   0  0  0  0  0  0  0  0  0  0  0  0
   -1.0922  -15.2158    0.0000 C   0  0  0  0  0  0  0  0  0  0  0  0
   -1.8138  -13.9780    0.0000 C   0  0  0  0  0  0  0  0  0  0  0  0
   -1.1011  -14.3840    0.0000 C   0  0  0  0  0  0  0  0  0  0  0  0
   -0.3951  -13.9700    0.0000 C   0  0  0  0  0  0  0  0  0  0  0  0
   -0.4007  -13.1500    0.0000 C   0  0  0  0  0  0  0  0  0  0  0  0
   -1.1181  -12.7458    0.0000 C   0  0  0  0  0  0  0  0  0  0  0  0
   -1.8211  -13.1621    0.0000 O   0  0  0  0  0  0  0  0  0  0  0  0
   -0.3750  -15.6237    0.0000 O   0  0  0  0  0  0  0  0  0  0  0  0
    0.3221  -14.3777    0.0000 O   0  0  0  0  0  0  0  0  0  0  0  0
   -1.1270  -11.9208    0.0000 C   0  0  0  0  0  0  0  0  0  0  0  0
   -0.4170  -11.5006    0.0000 C   0  0  0  0  0  0  0  0  0  0  0  0
    0.3020  -11.9053    0.0000 C   0  0  0  0  0  0  0  0  0  0  0  0
   -3.2466  -13.1588    0.0000 O   0  0  0  0  0  0  0  0  0  0  0  0
   -2.5341  -12.7430    0.0000 C   0  0  0  0  0  0  0  0  0  0  0  0
   -4.6689  -15.6358    0.0000 O   0  0  0  0  0  0  0  0  0  0  0  0
 10 11  1  0
  2  3  1  0
 11 12  1  0
  5  6  1  0
 12 13  2  0
  3  6  2  0
 13 14  1  0
 14  9  1  0
  6  7  1  0
  8 15  1  0
  1  2  2  0
 11 16  2  0
  7  8  2  0
 13 17  1  0
  8 10  1  0
 17 18  1  0
  9  5  1  0
 18 19  1  0
  5  4  2  0
  4 20  1  0
  4  1  1  0
 20 21  1  0
  9 10  2  0
  2 22  1  0
M  END
>  <Classification>  (9) 
1

>  <pchembl>  (9) 
5.05

>  <InChI_steorem>  (9) 
InChI=1S/C17H16O5/c1-3-4-11-8-13(20)16-12(19)6-9-5-10(18)7-14(21-2)15(9)17(16)22-11/h5-8,18-19H,3-4H2,1-2H3

>  <source>  (9) 
ChEMBL25

>  <source_id>  (9) 
25

>  <optional_reference>  (9) 
10.1016/j.bmcl.2010.05.057

>  <optional_origin>  (9) 
None

>  <target>  (9) 
BCRP

$$$$

     RDKit          2D

 20 21  0  0  0  0  0  0  0  0999 V2000
    4.6274  -22.8105    0.0000 C   0  0  0  0  0  0  0  0  0  0  0  0
    4.6261  -23.6380    0.0000 C   0  0  0  0  0  0  0  0  0  0  0  0
    5.3391  -24.0510    0.0000 C   0  0  0  0  0  0  0  0  0  0  0  0
    6.0584  -23.6376    0.0000 C   0  0  0  0  0  0  0  0  0  0  0  0
    6.0553  -22.8065    0.0000 C   0  0  0  0  0  0  0  0  0  0  0  0
    5.3371  -22.3977    0.0000 C   0  0  0  0  0  0  0  0  0  0  0  0
    5.3377  -24.8759    0.0000 O   0  0  0  0  0  0  0  0  0  0  0  0
    3.9127  -22.3986    0.0000 O   0  0  0  0  0  0  0  0  0  0  0  0
    3.9119  -21.5736    0.0000 C   0  0  0  0  0  0  0  0  0  0  0  0
    6.7733  -24.0494    0.0000 C   0  0  0  0  0  0  0  0  0  0  0  0
    6.7740  -24.8744    0.0000 O   0  0  0  0  0  0  0  0  0  0  0  0
    7.4874  -23.6363    0.0000 C   0  0  0  0  0  0  0  0  0  0  0  0
    7.4866  -22.8113    0.0000 C   0  0  0  0  0  0  0  0  0  0  0  0
    8.2007  -22.3981    0.0000 C   0  0  0  0  0  0  0  0  0  0  0  0
    8.9143  -22.8139    0.0000 C   0  0  0  0  0  0  0  0  0  0  0  0
    9.6279  -22.4014    0.0000 C   0  0  0  0  0  0  0  0  0  0  0  0
    9.6277  -21.5756    0.0000 C   0  0  0  0  0  0  0  0  0  0  0  0
    8.9077  -21.1639    0.0000 C   0  0  0  0  0  0  0  0  0  0  0  0
    8.1972  -21.5788    0.0000 C   0  0  0  0  0  0  0  0  0  0  0  0
    7.4809  -21.1695    0.0000 Cl  0  0  0  0  0  0  0  0  0  0  0  0
  4 10  1  0
  2  3  2  0
 10 11  2  0
  5  6  1  0
 10 12  1  0
  6  1  2  0
 12 13  2  3
  1  2  1  0
 13 14  1  0
  3  7  1  0
 14 15  2  0
  3  4  1  0
 15 16  1  0
  1  8  1  0
 16 17  2  0
 17 18  1  0
  8  9  1  0
 18 19  2  0
 19 14  1  0
  4  5  2  0
 19 20  1  0
M  END
>  <Classification>  (10) 
1

>  <pchembl>  (10) 
5.16

>  <InChI_steorem>  (10) 
InChI=1S/C16H13ClO3/c1-20-12-7-8-13(16(19)10-12)15(18)9-6-11-4-2-3-5-14(11)17/h2-10,19H,1H3

>  <source>  (10) 
ChEMBL25

>  <source_id>  (10) 
25

>  <optional_reference>  (10) 
10.1016/j.bmc.2011.10.074

>  <optional_origin>  (10) 
None

>  <target>  (10) 
BCRP

$$$$

     RDKit          2D

 21 22  0  0  0  0  0  0  0  0999 V2000
   -4.9285   -7.0718    0.0000 C   0  0  0  0  0  0  0  0  0  0  0  0
   -4.9298   -7.8994    0.0000 C   0  0  0  0  0  0  0  0  0  0  0  0
   -4.2168   -8.3123    0.0000 C   0  0  0  0  0  0  0  0  0  0  0  0
   -3.4976   -7.8988    0.0000 C   0  0  0  0  0  0  0  0  0  0  0  0
   -3.5006   -7.0678    0.0000 C   0  0  0  0  0  0  0  0  0  0  0  0
   -4.2188   -6.6591    0.0000 C   0  0  0  0  0  0  0  0  0  0  0  0
   -4.2183   -9.1373    0.0000 O   0  0  0  0  0  0  0  0  0  0  0  0
   -5.6433   -6.6600    0.0000 O   0  0  0  0  0  0  0  0  0  0  0  0
   -5.6440   -5.8350    0.0000 C   0  0  0  0  0  0  0  0  0  0  0  0
   -2.7827   -8.3107    0.0000 C   0  0  0  0  0  0  0  0  0  0  0  0
   -2.7819   -9.1356    0.0000 O   0  0  0  0  0  0  0  0  0  0  0  0
   -2.0686   -7.8975    0.0000 C   0  0  0  0  0  0  0  0  0  0  0  0
   -2.0694   -7.0726    0.0000 C   0  0  0  0  0  0  0  0  0  0  0  0
   -1.3553   -6.6594    0.0000 C   0  0  0  0  0  0  0  0  0  0  0  0
   -0.6416   -7.0752    0.0000 C   0  0  0  0  0  0  0  0  0  0  0  0
    0.0719   -6.6628    0.0000 C   0  0  0  0  0  0  0  0  0  0  0  0
    0.0717   -5.8370    0.0000 C   0  0  0  0  0  0  0  0  0  0  0  0
   -0.6482   -5.4252    0.0000 C   0  0  0  0  0  0  0  0  0  0  0  0
   -1.3588   -5.8400    0.0000 C   0  0  0  0  0  0  0  0  0  0  0  0
   -0.6518   -4.6003    0.0000 O   0  0  0  0  0  0  0  0  0  0  0  0
    0.0608   -4.1846    0.0000 C   0  0  0  0  0  0  0  0  0  0  0  0
  2  3  2  0
 10 11  2  0
  5  6  1  0
 10 12  1  0
  6  1  2  0
 12 13  2  3
  1  2  1  0
 13 14  1  0
  3  7  1  0
 14 15  2  0
  3  4  1  0
 15 16  1  0
  1  8  1  0
 16 17  2  0
 17 18  1  0
  8  9  1  0
 18 19  2  0
 19 14  1  0
  4  5  2  0
 18 20  1  0
  4 10  1  0
 20 21  1  0
M  END
>  <Classification>  (11) 
1

>  <pchembl>  (11) 
5.5

>  <InChI_steorem>  (11) 
InChI=1S/C17H16O4/c1-20-13-5-3-4-12(10-13)6-9-16(18)15-8-7-14(21-2)11-17(15)19/h3-11,19H,1-2H3

>  <source>  (11) 
ChEMBL25

>  <source_id>  (11) 
25

>  <optional_reference>  (11) 
10.1016/j.bmc.2011.10.074

>  <optional_origin>  (11) 
None

>  <target>  (11) 
BCRP

$$$$

     RDKit          2D

 23 24  0  0  0  0  0  0  0  0999 V2000
   -2.2886  -28.1634    0.0000 C   0  0  0  0  0  0  0  0  0  0  0  0
   -2.2899  -28.9910    0.0000 C   0  0  0  0  0  0  0  0  0  0  0  0
   -1.5769  -29.4039    0.0000 C   0  0  0  0  0  0  0  0  0  0  0  0
   -0.8576  -28.9904    0.0000 C   0  0  0  0  0  0  0  0  0  0  0  0
   -0.8607  -28.1594    0.0000 C   0  0  0  0  0  0  0  0  0  0  0  0
   -1.5789  -27.7507    0.0000 C   0  0  0  0  0  0  0  0  0  0  0  0
   -1.5783  -30.2289    0.0000 O   0  0  0  0  0  0  0  0  0  0  0  0
   -3.0033  -27.7516    0.0000 O   0  0  0  0  0  0  0  0  0  0  0  0
   -3.0041  -26.9266    0.0000 C   0  0  0  0  0  0  0  0  0  0  0  0
   -0.1428  -29.4023    0.0000 C   0  0  0  0  0  0  0  0  0  0  0  0
   -0.1420  -30.2272    0.0000 O   0  0  0  0  0  0  0  0  0  0  0  0
    0.5713  -28.9891    0.0000 C   0  0  0  0  0  0  0  0  0  0  0  0
    1.2846  -27.7510    0.0000 C   0  0  0  0  0  0  0  0  0  0  0  0
    1.9983  -28.1668    0.0000 C   0  0  0  0  0  0  0  0  0  0  0  0
    2.7118  -27.7544    0.0000 C   0  0  0  0  0  0  0  0  0  0  0  0
    2.7116  -26.9286    0.0000 C   0  0  0  0  0  0  0  0  0  0  0  0
    1.9917  -26.5169    0.0000 C   0  0  0  0  0  0  0  0  0  0  0  0
    1.2811  -26.9316    0.0000 C   0  0  0  0  0  0  0  0  0  0  0  0
   -0.1484  -27.7434    0.0000 O   0  0  0  0  0  0  0  0  0  0  0  0
    0.5681  -28.1524    0.0000 C   0  0  0  0  0  0  0  0  0  0  0  0
   -0.1525  -26.9184    0.0000 C   0  0  0  0  0  0  0  0  0  0  0  0
    1.9881  -25.6919    0.0000 O   0  0  0  0  0  0  0  0  0  0  0  0
    2.7007  -25.2762    0.0000 C   0  0  0  0  0  0  0  0  0  0  0  0
  5  6  1  0
 10 12  1  0
 12 20  2  3
  6  1  2  0
 20 13  1  0
  1  2  1  0
 13 14  2  0
  3  7  1  0
 14 15  1  0
  3  4  1  0
 15 16  2  0
  1  8  1  0
 16 17  1  0
 17 18  2  0
 18 13  1  0
  8  9  1  0
  5 19  1  0
  4  5  2  0
  4 10  1  0
 19 21  1  0
  2  3  2  0
 17 22  1  0
 10 11  2  0
 22 23  1  0
M  END
>  <Classification>  (12) 
1

>  <pchembl>  (12) 
6.58

>  <InChI_steorem>  (12) 
InChI=1S/C18H18O5/c1-21-13-6-4-5-12(9-13)7-8-15(19)18-16(20)10-14(22-2)11-17(18)23-3/h4-11,20H,1-3H3

>  <source>  (12) 
ChEMBL25

>  <source_id>  (12) 
25

>  <optional_reference>  (12) 
10.1021/jm2016528

>  <optional_origin>  (12) 
None

>  <target>  (12) 
BCRP

$$$$

     RDKit          2D

 25 26  0  0  0  0  0  0  0  0999 V2000
   12.0292   -8.2497    0.0000 C   0  0  0  0  0  0  0  0  0  0  0  0
   12.0279   -9.0772    0.0000 C   0  0  0  0  0  0  0  0  0  0  0  0
   12.7409   -9.4901    0.0000 C   0  0  0  0  0  0  0  0  0  0  0  0
   13.4602   -9.0767    0.0000 C   0  0  0  0  0  0  0  0  0  0  0  0
   13.4570   -8.2456    0.0000 C   0  0  0  0  0  0  0  0  0  0  0  0
   12.7389   -7.8369    0.0000 C   0  0  0  0  0  0  0  0  0  0  0  0
   12.7395  -10.3151    0.0000 O   0  0  0  0  0  0  0  0  0  0  0  0
   11.3144   -7.8377    0.0000 O   0  0  0  0  0  0  0  0  0  0  0  0
   11.3137   -7.0128    0.0000 C   0  0  0  0  0  0  0  0  0  0  0  0
   14.1750   -9.4885    0.0000 C   0  0  0  0  0  0  0  0  0  0  0  0
   14.1757  -10.3135    0.0000 O   0  0  0  0  0  0  0  0  0  0  0  0
   14.8890   -9.0754    0.0000 C   0  0  0  0  0  0  0  0  0  0  0  0
   15.6023   -7.8373    0.0000 C   0  0  0  0  0  0  0  0  0  0  0  0
   16.3161   -8.2531    0.0000 C   0  0  0  0  0  0  0  0  0  0  0  0
   17.0296   -7.8406    0.0000 C   0  0  0  0  0  0  0  0  0  0  0  0
   17.0293   -7.0147    0.0000 C   0  0  0  0  0  0  0  0  0  0  0  0
   16.3095   -6.6030    0.0000 C   0  0  0  0  0  0  0  0  0  0  0  0
   15.5988   -7.0179    0.0000 C   0  0  0  0  0  0  0  0  0  0  0  0
   14.1694   -7.8296    0.0000 O   0  0  0  0  0  0  0  0  0  0  0  0
   14.8859   -8.2386    0.0000 C   0  0  0  0  0  0  0  0  0  0  0  0
   14.1653   -7.0046    0.0000 C   0  0  0  0  0  0  0  0  0  0  0  0
   14.8825   -6.6086    0.0000 O   0  0  0  0  0  0  0  0  0  0  0  0
   14.8788   -5.7837    0.0000 C   0  0  0  0  0  0  0  0  0  0  0  0
   16.3147   -9.0780    0.0000 O   0  0  0  0  0  0  0  0  0  0  0  0
   15.5995   -9.4893    0.0000 C   0  0  0  0  0  0  0  0  0  0  0  0
 12 20  2  3
  6  1  2  0
 20 13  1  0
  1  2  1  0
 13 14  2  0
  3  7  1  0
 14 15  1  0
  3  4  1  0
 15 16  2  0
  1  8  1  0
 16 17  1  0
 17 18  2  0
 18 13  1  0
  8  9  1  0
  5 19  1  0
  4  5  2  0
  4 10  1  0
 19 21  1  0
  2  3  2  0
 18 22  1  0
 10 11  2  0
 22 23  1  0
  5  6  1  0
 14 24  1  0
 10 12  1  0
 24 25  1  0
M  END
>  <Classification>  (13) 
1

>  <pchembl>  (13) 
6.46

>  <InChI_steorem>  (13) 
InChI=1S/C19H20O6/c1-22-12-10-15(21)19(18(11-12)25-4)14(20)9-8-13-16(23-2)6-5-7-17(13)24-3/h5-11,21H,1-4H3

>  <source>  (13) 
ChEMBL25

>  <source_id>  (13) 
25

>  <optional_reference>  (13) 
10.1021/jm2016528

>  <optional_origin>  (13) 
None

>  <target>  (13) 
BCRP

$$$$

     RDKit          2D

 25 26  0  0  0  0  0  0  0  0999 V2000
   12.1209  -15.8669    0.0000 C   0  0  0  0  0  0  0  0  0  0  0  0
   12.1196  -16.6944    0.0000 C   0  0  0  0  0  0  0  0  0  0  0  0
   12.8326  -17.1074    0.0000 C   0  0  0  0  0  0  0  0  0  0  0  0
   13.5518  -16.6940    0.0000 C   0  0  0  0  0  0  0  0  0  0  0  0
   13.5488  -15.8629    0.0000 C   0  0  0  0  0  0  0  0  0  0  0  0
   12.8306  -15.4541    0.0000 C   0  0  0  0  0  0  0  0  0  0  0  0
   12.8311  -17.9323    0.0000 O   0  0  0  0  0  0  0  0  0  0  0  0
   11.4061  -15.4550    0.0000 O   0  0  0  0  0  0  0  0  0  0  0  0
   11.4054  -14.6300    0.0000 C   0  0  0  0  0  0  0  0  0  0  0  0
   14.2667  -17.1058    0.0000 C   0  0  0  0  0  0  0  0  0  0  0  0
   14.2675  -17.9308    0.0000 O   0  0  0  0  0  0  0  0  0  0  0  0
   14.9808  -16.6927    0.0000 C   0  0  0  0  0  0  0  0  0  0  0  0
   15.6941  -15.4546    0.0000 C   0  0  0  0  0  0  0  0  0  0  0  0
   16.4078  -15.8703    0.0000 C   0  0  0  0  0  0  0  0  0  0  0  0
   17.1213  -15.4579    0.0000 C   0  0  0  0  0  0  0  0  0  0  0  0
   17.1211  -14.6320    0.0000 C   0  0  0  0  0  0  0  0  0  0  0  0
   16.4012  -14.2203    0.0000 C   0  0  0  0  0  0  0  0  0  0  0  0
   15.6906  -14.6352    0.0000 C   0  0  0  0  0  0  0  0  0  0  0  0
   14.2611  -15.4469    0.0000 O   0  0  0  0  0  0  0  0  0  0  0  0
   14.9776  -15.8558    0.0000 C   0  0  0  0  0  0  0  0  0  0  0  0
   14.2570  -14.6219    0.0000 C   0  0  0  0  0  0  0  0  0  0  0  0
   16.3975  -13.3954    0.0000 O   0  0  0  0  0  0  0  0  0  0  0  0
   17.1102  -12.9798    0.0000 C   0  0  0  0  0  0  0  0  0  0  0  0
   17.8360  -15.8700    0.0000 O   0  0  0  0  0  0  0  0  0  0  0  0
   17.8363  -16.6950    0.0000 C   0  0  0  0  0  0  0  0  0  0  0  0
 12 20  2  3
  6  1  2  0
 20 13  1  0
  1  2  1  0
 13 14  2  0
  3  7  1  0
 14 15  1  0
  3  4  1  0
 15 16  2  0
  1  8  1  0
 16 17  1  0
 17 18  2  0
 18 13  1  0
  8  9  1  0
  5 19  1  0
  4  5  2  0
  4 10  1  0
 19 21  1  0
  2  3  2  0
 17 22  1  0
 10 11  2  0
 22 23  1  0
  5  6  1  0
 15 24  1  0
 10 12  1  0
 24 25  1  0
M  END
>  <Classification>  (14) 
1

>  <pchembl>  (14) 
6.77

>  <InChI_steorem>  (14) 
InChI=1S/C19H20O6/c1-22-13-7-12(8-14(9-13)23-2)5-6-16(20)19-17(21)10-15(24-3)11-18(19)25-4/h5-11,21H,1-4H3

>  <source>  (14) 
ChEMBL25

>  <source_id>  (14) 
25

>  <optional_reference>  (14) 
10.1021/jm2016528

>  <optional_origin>  (14) 
None

>  <target>  (14) 
BCRP

$$$$

     RDKit          2D

 25 27  0  0  0  0  0  0  0  0999 V2000
    2.2978   -0.3389    0.0000 C   0  0  0  0  0  0  0  0  0  0  0  0
    2.2966   -1.1661    0.0000 C   0  0  0  0  0  0  0  0  0  0  0  0
    3.0091   -1.5786    0.0000 C   0  0  0  0  0  0  0  0  0  0  0  0
    3.0071    0.0737    0.0000 C   0  0  0  0  0  0  0  0  0  0  0  0
    3.7248   -0.3350    0.0000 C   0  0  0  0  0  0  0  0  0  0  0  0
    3.7259   -1.1618    0.0000 C   0  0  0  0  0  0  0  0  0  0  0  0
    4.4414   -1.5726    0.0000 C   0  0  0  0  0  0  0  0  0  0  0  0
    5.1563   -1.1575    0.0000 C   0  0  0  0  0  0  0  0  0  0  0  0
    4.4352    0.0795    0.0000 C   0  0  0  0  0  0  0  0  0  0  0  0
    5.1519   -0.3310    0.0000 C   0  0  0  0  0  0  0  0  0  0  0  0
    5.8618    0.0821    0.0000 C   0  0  0  0  0  0  0  0  0  0  0  0
    5.8613    0.9075    0.0000 C   0  0  0  0  0  0  0  0  0  0  0  0
    5.1445    1.3180    0.0000 C   0  0  0  0  0  0  0  0  0  0  0  0
    4.4284    0.9031    0.0000 O   0  0  0  0  0  0  0  0  0  0  0  0
    3.0032    0.8981    0.0000 O   0  0  0  0  0  0  0  0  0  0  0  0
    2.2874    1.3070    0.0000 C   0  0  0  0  0  0  0  0  0  0  0  0
    1.5819   -1.5772    0.0000 O   0  0  0  0  0  0  0  0  0  0  0  0
    4.4434   -2.3971    0.0000 O   0  0  0  0  0  0  0  0  0  0  0  0
    5.8719   -1.5670    0.0000 O   0  0  0  0  0  0  0  0  0  0  0  0
    3.7303   -2.8110    0.0000 C   0  0  0  0  0  0  0  0  0  0  0  0
    6.5767   -0.3287    0.0000 O   0  0  0  0  0  0  0  0  0  0  0  0
    5.1425    2.1425    0.0000 C   0  0  0  0  0  0  0  0  0  0  0  0
    4.4275    2.5530    0.0000 C   0  0  0  0  0  0  0  0  0  0  0  0
    3.7145    2.1390    0.0000 C   0  0  0  0  0  0  0  0  0  0  0  0
    5.8751   -2.3915    0.0000 C   0  0  0  0  0  0  0  0  0  0  0  0
  3  6  2  0
  9 14  1  0
 10 11  1  0
 11 12  1  0
 12 13  2  0
 13 14  1  0
  6  7  1  0
  4 15  1  0
  1  2  2  0
 15 16  1  0
  7  8  2  0
  2 17  1  0
  8 10  1  0
  7 18  1  0
  9  5  1  0
  8 19  1  0
  9 10  2  0
 18 20  1  0
  5  4  2  0
 11 21  2  0
  4  1  1  0
 13 22  1  0
 22 23  1  0
  2  3  1  0
 23 24  1  0
  5  6  1  0
 19 25  1  0
M  END
>  <Classification>  (15) 
0

>  <pchembl>  (15) 
4.78

>  <InChI_steorem>  (15) 
InChI=1S/C19H20O6/c1-5-6-11-9-13(21)16-18(25-11)15-12(17(23-3)19(16)24-4)7-10(20)8-14(15)22-2/h7-9,20H,5-6H2,1-4H3

>  <source>  (15) 
ChEMBL25

>  <source_id>  (15) 
25

>  <optional_reference>  (15) 
10.1016/j.bmcl.2010.05.057

>  <optional_origin>  (15) 
None

>  <target>  (15) 
BCRP

$$$$

     RDKit          2D

 28 32  0  0  0  0  0  0  0  0999 V2000
    7.4571  -22.7014    0.0000 C   0  0  0  0  0  0  0  0  0  0  0  0
    7.9200  -23.3876    0.0000 C   0  0  0  0  0  0  0  0  0  0  0  0
    8.7420  -23.3301    0.0000 C   0  0  0  0  0  0  0  0  0  0  0  0
    7.8137  -21.9617    0.0000 C   0  0  0  0  0  0  0  0  0  0  0  0
    8.6377  -21.8979    0.0000 C   0  0  0  0  0  0  0  0  0  0  0  0
    9.1054  -22.5799    0.0000 C   0  0  0  0  0  0  0  0  0  0  0  0
    9.1420  -21.2422    0.0000 N   0  0  0  0  0  0  0  0  0  0  0  0
    9.9180  -21.5200    0.0000 C   0  0  0  0  0  0  0  0  0  0  0  0
    9.8975  -22.3447    0.0000 C   0  0  0  0  0  0  0  0  0  0  0  0
   10.5977  -22.7724    0.0000 C   0  0  0  0  0  0  0  0  0  0  0  0
   10.6386  -21.1229    0.0000 C   0  0  0  0  0  0  0  0  0  0  0  0
   11.3431  -21.5553    0.0000 N   0  0  0  0  0  0  0  0  0  0  0  0
   11.3210  -22.3776    0.0000 C   0  0  0  0  0  0  0  0  0  0  0  0
   12.0183  -22.8057    0.0000 C   0  0  0  0  0  0  0  0  0  0  0  0
   12.0626  -21.1609    0.0000 C   0  0  0  0  0  0  0  0  0  0  0  0
   12.7643  -21.5936    0.0000 C   0  0  0  0  0  0  0  0  0  0  0  0
   12.7445  -22.4139    0.0000 N   0  0  0  0  0  0  0  0  0  0  0  0
   13.5185  -22.6862    0.0000 C   0  0  0  0  0  0  0  0  0  0  0  0
   14.0167  -22.0342    0.0000 C   0  0  0  0  0  0  0  0  0  0  0  0
   13.5505  -21.3590    0.0000 C   0  0  0  0  0  0  0  0  0  0  0  0
    6.6343  -22.7608    0.0000 O   0  0  0  0  0  0  0  0  0  0  0  0
    6.1714  -22.0778    0.0000 C   0  0  0  0  0  0  0  0  0  0  0  0
   10.6579  -20.2981    0.0000 C   0  0  0  0  0  0  0  0  0  0  0  0
    9.9532  -19.8689    0.0000 C   0  0  0  0  0  0  0  0  0  0  0  0
    9.9725  -19.0441    0.0000 C   0  0  0  0  0  0  0  0  0  0  0  0
    9.2292  -20.2646    0.0000 C   0  0  0  0  0  0  0  0  0  0  0  0
   12.0836  -20.3361    0.0000 O   0  0  0  0  0  0  0  0  0  0  0  0
   11.9952  -23.6304    0.0000 O   0  0  0  0  0  0  0  0  0  0  0  0
  7  5  1  0
 12 15  1  0
 13 14  1  0
 14 17  1  0
 16 15  1  0
 16 17  1  0
  7  8  1  0
  3  6  2  0
  8  9  2  0
  1  2  2  0
  5  4  2  0
 17 18  1  0
 18 19  1  0
 19 20  1  0
 20 16  1  0
  4  1  1  0
  1 21  1  0
  5  6  1  0
 21 22  1  0
  8 11  1  0
 11 23  1  0
  9 10  1  0
 23 24  2  3
 10 13  1  0
 24 25  1  0
 12 11  1  0
 24 26  1  0
 12 13  1  0
 15 27  2  0
  2  3  1  0
 14 28  2  0
  6  9  1  0
M  END
>  <Classification>  (16) 
1

>  <pchembl>  (16) 
6.1

>  <InChI_steorem>  (16) 
InChI=1S/C22H25N3O3/c1-12(2)9-18-20-15(14-7-6-13(28-3)10-16(14)23-20)11-19-21(26)24-8-4-5-17(24)22(27)25(18)19/h6-7,9-10,17-19,23H,4-5,8,11H2,1-3H3

>  <source>  (16) 
ChEMBL25

>  <source_id>  (16) 
25

>  <optional_reference>  (16) 
10.1021/np100797y

>  <optional_origin>  (16) 
None

>  <target>  (16) 
BCRP

$$$$

     RDKit          2D

 29 33  0  0  0  0  0  0  0  0999 V2000
   -1.0750   -1.8292    0.0000 C   0  0  0  0  0  0  0  0  0  0  0  0
   -1.8583   -2.0875    0.0000 N   0  0  0  0  0  0  0  0  0  0  0  0
   -1.8583   -0.7542    0.0000 C   0  0  0  0  0  0  0  0  0  0  0  0
   -1.0750   -1.0042    0.0000 C   0  0  0  0  0  0  0  0  0  0  0  0
   -2.3458   -1.4250    0.0000 C   0  0  0  0  0  0  0  0  0  0  0  0
   -0.3625   -2.2417    0.0000 C   0  0  0  0  0  0  0  0  0  0  0  0
   -0.3708   -3.0667    0.0000 N   0  0  0  0  0  0  0  0  0  0  0  0
   -2.1125    0.0333    0.0000 C   0  0  0  0  0  0  0  0  0  0  0  0
    0.3542   -1.8292    0.0000 N   0  0  0  0  0  0  0  0  0  0  0  0
   -0.3625   -0.5917    0.0000 N   0  0  0  0  0  0  0  0  0  0  0  0
   -2.3708    0.8208    0.0000 N   0  0  0  0  0  0  0  0  0  0  0  0
   -0.3958   -4.7125    0.0000 N   0  0  0  0  0  0  0  0  0  0  0  0
    0.3542   -1.0042    0.0000 C   0  0  0  0  0  0  0  0  0  0  0  0
    0.3375   -3.4792    0.0000 C   0  0  0  0  0  0  0  0  0  0  0  0
   -1.0958   -3.4667    0.0000 C   0  0  0  0  0  0  0  0  0  0  0  0
   -2.1958   -2.8417    0.0000 C   0  0  0  0  0  0  0  0  0  0  0  0
   -1.1083   -4.2917    0.0000 C   0  0  0  0  0  0  0  0  0  0  0  0
    0.3250   -4.3125    0.0000 C   0  0  0  0  0  0  0  0  0  0  0  0
   -0.4083   -5.5375    0.0000 C   0  0  0  0  0  0  0  0  0  0  0  0
   -3.1625   -1.5125    0.0000 C   0  0  0  0  0  0  0  0  0  0  0  0
    0.3000   -5.9542    0.0000 C   0  0  0  0  0  0  0  0  0  0  0  0
    0.2917   -6.7792    0.0000 C   0  0  0  0  0  0  0  0  0  0  0  0
   -0.4208   -7.1917    0.0000 C   0  0  0  0  0  0  0  0  0  0  0  0
    1.0042   -7.1917    0.0000 C   0  0  0  0  0  0  0  0  0  0  0  0
   -3.0208   -2.9292    0.0000 C   0  0  0  0  0  0  0  0  0  0  0  0
   -3.5000   -2.2667    0.0000 C   0  0  0  0  0  0  0  0  0  0  0  0
    1.0042   -8.0167    0.0000 C   0  0  0  0  0  0  0  0  0  0  0  0
   -0.4250   -8.0125    0.0000 C   0  0  0  0  0  0  0  0  0  0  0  0
    0.2875   -8.4292    0.0000 C   0  0  0  0  0  0  0  0  0  0  0  0
  2  1  1  0
  3  4  1  0
  4  1  2  0
  5  2  1  0
  6  1  1  0
  7  6  1  0
  8  3  1  0
  9  6  2  0
 10  4  1  0
 11  8  3  0
 12 17  1  0
 13  9  1  0
 14  7  1  0
 15  7  1  0
 16  2  1  0
 17 15  1  0
 18 14  1  0
 19 12  1  0
 20  5  1  0
 21 19  1  0
 22 21  1  0
 23 22  2  0
 24 22  1  0
 25 16  1  0
 26 25  1  0
 27 24  2  0
 28 23  1  0
 29 27  1  0
  3  5  2  0
 13 10  2  0
 18 12  1  0
 20 26  1  0
 28 29  2  0
M  END
>  <Classification>  (17) 
1

>  <pchembl>  (17) 
5.09

>  <InChI_steorem>  (17) 
InChI=1S/C23H26N6/c24-16-19-20-8-4-5-10-29(20)22-21(19)25-17-26-23(22)28-14-12-27(13-15-28)11-9-18-6-2-1-3-7-18/h1-3,6-7,17H,4-5,8-15H2

>  <source>  (17) 
ChEMBL25

>  <source_id>  (17) 
25

>  <optional_reference>  (17) 
10.1021/acs.jmedchem.5b01644

>  <optional_origin>  (17) 
None

>  <target>  (17) 
BCRP

$$$$

     RDKit          2D

 18 20  0  0  0  0  0  0  0  0999 V2000
    1.2042   -1.5042    0.0000 C   0  0  0  0  0  0  0  0  0  0  0  0
    0.6917   -1.8042    0.0000 C   0  0  0  0  0  0  0  0  0  0  0  0
    1.7292   -1.8000    0.0000 N   0  0  0  0  0  0  0  0  0  0  0  0
    1.2042   -0.9042    0.0000 N   0  0  0  0  0  0  0  0  0  0  0  0
    1.2125   -2.7042    0.0000 N   0  0  0  0  0  0  0  0  0  0  0  0
    1.7292   -2.4042    0.0000 C   0  0  0  0  0  0  0  0  0  0  0  0
    0.6917   -2.4042    0.0000 C   0  0  0  0  0  0  0  0  0  0  0  0
    1.7167   -0.5917    0.0000 C   0  0  0  0  0  0  0  0  0  0  0  0
    2.2375   -0.8917    0.0000 C   0  0  0  0  0  0  0  0  0  0  0  0
    2.7542   -0.6000    0.0000 C   0  0  0  0  0  0  0  0  0  0  0  0
    3.2667   -0.9000    0.0000 Br  0  0  0  0  0  0  0  0  0  0  0  0
    0.1667   -1.5042    0.0000 C   0  0  0  0  0  0  0  0  0  0  0  0
    2.2375    0.2958    0.0000 C   0  0  0  0  0  0  0  0  0  0  0  0
    1.7167   -0.0042    0.0000 C   0  0  0  0  0  0  0  0  0  0  0  0
    2.7542   -0.0042    0.0000 C   0  0  0  0  0  0  0  0  0  0  0  0
    0.1667   -2.7125    0.0000 C   0  0  0  0  0  0  0  0  0  0  0  0
   -0.3458   -1.8125    0.0000 C   0  0  0  0  0  0  0  0  0  0  0  0
   -0.3458   -2.4125    0.0000 C   0  0  0  0  0  0  0  0  0  0  0  0
  2  1  1  0
  3  1  2  0
  4  1  1  0
  5  6  2  0
  6  3  1  0
  7  2  2  0
  8  4  1  0
  9  8  2  0
 10  9  1  0
 11 10  1  0
 12  2  1  0
 13 14  2  0
 14  8  1  0
 15 13  1  0
 16  7  1  0
 17 12  2  0
 18 17  1  0
  7  5  1  0
 16 18  2  0
 10 15  2  0
M  END
>  <Classification>  (18) 
1

>  <pchembl>  (18) 
5.83

>  <InChI_steorem>  (18) 
InChI=1S/C14H10BrN3/c15-10-4-3-5-11(8-10)18-14-12-6-1-2-7-13(12)16-9-17-14/h1-9H,(H,16,17,18)

>  <source>  (18) 
ChEMBL25

>  <source_id>  (18) 
25

>  <optional_reference>  (18) 
10.1016/j.bmc.2013.10.007

>  <optional_origin>  (18) 
None

>  <target>  (18) 
BCRP

$$$$

     RDKit          2D

 21 23  0  0  0  0  0  0  0  0999 V2000
    3.0042   -4.3792    0.0000 C   0  0  0  0  0  0  0  0  0  0  0  0
    3.5292   -4.6875    0.0000 C   0  0  0  0  0  0  0  0  0  0  0  0
    2.4875   -4.6875    0.0000 C   0  0  0  0  0  0  0  0  0  0  0  0
    3.0042   -3.7792    0.0000 C   0  0  0  0  0  0  0  0  0  0  0  0
    4.0500   -4.3792    0.0000 C   0  0  0  0  0  0  0  0  0  0  0  0
    4.0500   -3.7792    0.0000 C   0  0  0  0  0  0  0  0  0  0  0  0
    3.5292   -3.4792    0.0000 O   0  0  0  0  0  0  0  0  0  0  0  0
    1.9667   -4.3792    0.0000 C   0  0  0  0  0  0  0  0  0  0  0  0
    2.4875   -3.4792    0.0000 C   0  0  0  0  0  0  0  0  0  0  0  0
    1.9667   -3.7875    0.0000 C   0  0  0  0  0  0  0  0  0  0  0  0
    3.5250   -5.2875    0.0000 O   0  0  0  0  0  0  0  0  0  0  0  0
    4.5667   -3.4792    0.0000 C   0  0  0  0  0  0  0  0  0  0  0  0
    2.4917   -5.2875    0.0000 O   0  0  0  0  0  0  0  0  0  0  0  0
    1.4500   -3.4792    0.0000 O   0  0  0  0  0  0  0  0  0  0  0  0
    1.4500   -4.6875    0.0000 C   0  0  0  0  0  0  0  0  0  0  0  0
    4.5667   -2.8875    0.0000 C   0  0  0  0  0  0  0  0  0  0  0  0
    5.0875   -3.7875    0.0000 C   0  0  0  0  0  0  0  0  0  0  0  0
    1.4417   -2.8792    0.0000 C   0  0  0  0  0  0  0  0  0  0  0  0
    5.0875   -2.5875    0.0000 C   0  0  0  0  0  0  0  0  0  0  0  0
    5.6042   -3.4875    0.0000 C   0  0  0  0  0  0  0  0  0  0  0  0
    5.6042   -2.8875    0.0000 C   0  0  0  0  0  0  0  0  0  0  0  0
  2  1  1  0
  3  1  2  0
  4  1  1  0
  5  2  1  0
  6  7  1  0
  7  4  1  0
  8  3  1  0
  9  4  2  0
 10  9  1  0
 11  2  2  0
 12  6  1  0
 13  3  1  0
 14 10  1  0
 15  8  1  0
 16 12  2  0
 17 12  1  0
 18 14  1  0
 19 16  1  0
 20 17  2  0
 21 20  1  0
 10  8  2  0
  6  5  2  0
 21 19  2  0
M  END
>  <Classification>  (19) 
1

>  <pchembl>  (19) 
5.52

>  <InChI_steorem>  (19) 
InChI=1S/C17H14O4/c1-10-13(20-2)9-15-16(17(10)19)12(18)8-14(21-15)11-6-4-3-5-7-11/h3-9,19H,1-2H3

>  <source>  (19) 
ChEMBL25

>  <source_id>  (19) 
25

>  <optional_reference>  (19) 
10.1016/j.bmc.2010.12.043

>  <optional_origin>  (19) 
None

>  <target>  (19) 
BCRP

$$$$

     RDKit          2D

 27 29  0  0  0  0  0  0  0  0999 V2000
    4.2292   -2.5042    0.0000 C   0  0  0  0  0  0  0  0  0  0  0  0
    4.1792   -1.9042    0.0000 C   0  0  0  0  0  0  0  0  0  0  0  0
    3.6375   -1.6500    0.0000 C   0  0  0  0  0  0  0  0  0  0  0  0
    3.1417   -1.9917    0.0000 C   0  0  0  0  0  0  0  0  0  0  0  0
    3.7292   -2.8500    0.0000 O   0  0  0  0  0  0  0  0  0  0  0  0
    3.1917   -2.5917    0.0000 C   0  0  0  0  0  0  0  0  0  0  0  0
    4.7750   -2.7667    0.0000 C   0  0  0  0  0  0  0  0  0  0  0  0
    2.6042   -1.7375    0.0000 C   0  0  0  0  0  0  0  0  0  0  0  0
    4.8167   -3.3625    0.0000 C   0  0  0  0  0  0  0  0  0  0  0  0
    2.7042   -2.9375    0.0000 C   0  0  0  0  0  0  0  0  0  0  0  0
    2.1042   -2.0792    0.0000 C   0  0  0  0  0  0  0  0  0  0  0  0
    5.2667   -2.4250    0.0000 C   0  0  0  0  0  0  0  0  0  0  0  0
    5.3542   -3.6250    0.0000 C   0  0  0  0  0  0  0  0  0  0  0  0
    3.5875   -1.0542    0.0000 O   0  0  0  0  0  0  0  0  0  0  0  0
    2.1542   -2.6792    0.0000 C   0  0  0  0  0  0  0  0  0  0  0  0
    4.6750   -1.5667    0.0000 O   0  0  0  0  0  0  0  0  0  0  0  0
    5.8542   -3.2792    0.0000 C   0  0  0  0  0  0  0  0  0  0  0  0
    2.5542   -1.1417    0.0000 O   0  0  0  0  0  0  0  0  0  0  0  0
    5.8042   -2.6792    0.0000 C   0  0  0  0  0  0  0  0  0  0  0  0
    4.3250   -3.7042    0.0000 O   0  0  0  0  0  0  0  0  0  0  0  0
    1.6667   -3.0167    0.0000 O   0  0  0  0  0  0  0  0  0  0  0  0
    6.3917   -3.5417    0.0000 O   0  0  0  0  0  0  0  0  0  0  0  0
    5.2167   -1.8250    0.0000 C   0  0  0  0  0  0  0  0  0  0  0  0
    2.0042   -0.8792    0.0000 C   0  0  0  0  0  0  0  0  0  0  0  0
    4.3667   -4.3000    0.0000 C   0  0  0  0  0  0  0  0  0  0  0  0
    1.1250   -2.7625    0.0000 C   0  0  0  0  0  0  0  0  0  0  0  0
    6.4417   -4.1417    0.0000 C   0  0  0  0  0  0  0  0  0  0  0  0
  2  1  2  0
  3  2  1  0
  4  6  2  0
  5  1  1  0
  6  5  1  0
  7  1  1  0
  8  4  1  0
  9  7  2  0
 10  6  1  0
 11 15  1  0
 12  7  1  0
 13  9  1  0
 14  3  2  0
 15 10  2  0
 16  2  1  0
 17 19  1  0
 18  8  1  0
 19 12  2  0
 20  9  1  0
 21 15  1  0
 22 17  1  0
 23 16  1  0
 24 18  1  0
 25 20  1  0
 26 21  1  0
 27 22  1  0
  4  3  1  0
 17 13  2  0
  8 11  2  0
M  END
>  <Classification>  (20) 
1

>  <pchembl>  (20) 
5.23

>  <InChI_steorem>  (20) 
InChI=1S/C20H20O7/c1-22-11-6-7-13(14(8-11)24-3)19-20(26-5)18(21)17-15(25-4)9-12(23-2)10-16(17)27-19/h6-10H,1-5H3

>  <source>  (20) 
ChEMBL25

>  <source_id>  (20) 
25

>  <optional_reference>  (20) 
10.1016/j.ejmech.2013.06.035

>  <optional_origin>  (20) 
None

>  <target>  (20) 
BCRP

$$$$

     RDKit          2D

 25 27  0  0  0  0  0  0  0  0999 V2000
    0.8667   -1.0292    0.0000 C   0  0  0  0  0  0  0  0  0  0  0  0
    1.3792   -0.7292    0.0000 C   0  0  0  0  0  0  0  0  0  0  0  0
    3.4500   -0.1167    0.0000 C   0  0  0  0  0  0  0  0  0  0  0  0
    0.8750   -1.6292    0.0000 C   0  0  0  0  0  0  0  0  0  0  0  0
    0.3417   -0.7417    0.0000 C   0  0  0  0  0  0  0  0  0  0  0  0
    1.9000   -1.0167    0.0000 N   0  0  0  0  0  0  0  0  0  0  0  0
    0.3625   -1.9417    0.0000 C   0  0  0  0  0  0  0  0  0  0  0  0
    1.3750   -0.1292    0.0000 N   0  0  0  0  0  0  0  0  0  0  0  0
   -0.1750   -1.0542    0.0000 C   0  0  0  0  0  0  0  0  0  0  0  0
   -0.1625   -1.6542    0.0000 C   0  0  0  0  0  0  0  0  0  0  0  0
    2.9292    0.1833    0.0000 C   0  0  0  0  0  0  0  0  0  0  0  0
    1.3917   -1.9250    0.0000 N   0  0  0  0  0  0  0  0  0  0  0  0
    1.9125   -1.6167    0.0000 C   0  0  0  0  0  0  0  0  0  0  0  0
    1.8917    0.1750    0.0000 C   0  0  0  0  0  0  0  0  0  0  0  0
    2.4125   -0.1167    0.0000 C   0  0  0  0  0  0  0  0  0  0  0  0
    3.4542   -0.7167    0.0000 F   0  0  0  0  0  0  0  0  0  0  0  0
    3.9667    0.1833    0.0000 F   0  0  0  0  0  0  0  0  0  0  0  0
    4.0292   -0.2667    0.0000 F   0  0  0  0  0  0  0  0  0  0  0  0
   -0.7000   -0.7542    0.0000 O   0  0  0  0  0  0  0  0  0  0  0  0
   -0.6833   -1.9667    0.0000 O   0  0  0  0  0  0  0  0  0  0  0  0
    2.9250    0.7833    0.0000 C   0  0  0  0  0  0  0  0  0  0  0  0
    2.4000    1.0833    0.0000 C   0  0  0  0  0  0  0  0  0  0  0  0
    1.8792    0.7750    0.0000 C   0  0  0  0  0  0  0  0  0  0  0  0
   -1.2000   -1.6667    0.0000 C   0  0  0  0  0  0  0  0  0  0  0  0
   -1.2208   -1.0667    0.0000 C   0  0  0  0  0  0  0  0  0  0  0  0
  2  1  1  0
  3 11  1  0
  4  1  1  0
  5  1  2  0
  6  2  2  0
  7  4  2  0
  8  2  1  0
  9  5  1  0
 10  9  2  0
 11 15  2  0
 12  4  1  0
 13 12  2  0
 14  8  1  0
 15 14  1  0
 16  3  1  0
 17  3  1  0
 18  3  1  0
 19  9  1  0
 20 10  1  0
 21 22  2  0
 22 23  1  0
 23 14  2  0
 24 20  1  0
 25 19  1  0
 10  7  1  0
  6 13  1  0
 11 21  1  0
M  END
>  <Classification>  (21) 
1

>  <pchembl>  (21) 
5.7

>  <InChI_steorem>  (21) 
InChI=1S/C17H14F3N3O2/c1-24-14-7-12-13(8-15(14)25-2)21-9-22-16(12)23-11-5-3-4-10(6-11)17(18,19)20/h3-9H,1-2H3,(H,21,22,23)

>  <source>  (21) 
ChEMBL25

>  <source_id>  (21) 
25

>  <optional_reference>  (21) 
10.1016/j.bmc.2013.10.007

>  <optional_origin>  (21) 
None

>  <target>  (21) 
BCRP

$$$$

     RDKit          2D

 26 29  0  0  0  0  0  0  0  0999 V2000
   -0.5500   -2.1292    0.0000 C   0  0  0  0  0  0  0  0  0  0  0  0
   -0.0333   -2.4292    0.0000 N   0  0  0  0  0  0  0  0  0  0  0  0
    0.4667    0.2708    0.0000 N   0  0  0  0  0  0  0  0  0  0  0  0
   -0.0333   -3.0375    0.0000 C   0  0  0  0  0  0  0  0  0  0  0  0
   -0.5500   -3.3375    0.0000 N   0  0  0  0  0  0  0  0  0  0  0  0
   -1.0708   -2.4375    0.0000 C   0  0  0  0  0  0  0  0  0  0  0  0
   -1.0708   -3.0375    0.0000 C   0  0  0  0  0  0  0  0  0  0  0  0
   -0.5583   -1.5292    0.0000 N   0  0  0  0  0  0  0  0  0  0  0  0
    0.4750   -0.3292    0.0000 C   0  0  0  0  0  0  0  0  0  0  0  0
   -0.0458   -0.6375    0.0000 C   0  0  0  0  0  0  0  0  0  0  0  0
    0.9875    0.5750    0.0000 O   0  0  0  0  0  0  0  0  0  0  0  0
   -0.0583    0.5625    0.0000 O   0  0  0  0  0  0  0  0  0  0  0  0
   -0.0333   -1.2292    0.0000 C   0  0  0  0  0  0  0  0  0  0  0  0
    0.4917   -3.3375    0.0000 C   0  0  0  0  0  0  0  0  0  0  0  0
   -1.5833   -2.1375    0.0000 C   0  0  0  0  0  0  0  0  0  0  0  0
    1.0000   -0.6292    0.0000 C   0  0  0  0  0  0  0  0  0  0  0  0
   -1.5833   -3.3375    0.0000 C   0  0  0  0  0  0  0  0  0  0  0  0
    1.0042   -1.2292    0.0000 C   0  0  0  0  0  0  0  0  0  0  0  0
    0.4792   -1.5292    0.0000 C   0  0  0  0  0  0  0  0  0  0  0  0
    0.4917   -3.9375    0.0000 C   0  0  0  0  0  0  0  0  0  0  0  0
    1.0042   -3.0292    0.0000 C   0  0  0  0  0  0  0  0  0  0  0  0
   -2.1083   -2.4292    0.0000 C   0  0  0  0  0  0  0  0  0  0  0  0
   -2.1083   -3.0375    0.0000 C   0  0  0  0  0  0  0  0  0  0  0  0
    1.5292   -3.3292    0.0000 C   0  0  0  0  0  0  0  0  0  0  0  0
    1.0125   -4.2292    0.0000 C   0  0  0  0  0  0  0  0  0  0  0  0
    1.5292   -3.9292    0.0000 C   0  0  0  0  0  0  0  0  0  0  0  0
  2  1  2  0
  3  9  1  0
  4  2  1  0
  5  7  1  0
  6  1  1  0
  7  6  2  0
  8  1  1  0
  9 10  2  0
 10 13  1  0
 11  3  1  0
 12  3  2  0
 13  8  1  0
 14  4  1  0
 15  6  1  0
 16 18  2  0
 17  7  1  0
 18 19  1  0
 19 13  2  0
 20 14  2  0
 21 14  1  0
 22 15  2  0
 23 22  1  0
 24 21  2  0
 25 20  1  0
 26 24  1  0
  5  4  2  0
 17 23  2  0
  9 16  1  0
 25 26  2  0
M  CHG  2   3   1  11  -1
M  END
>  <Classification>  (22) 
1

>  <pchembl>  (22) 
6.89

>  <InChI_steorem>  (22) 
InChI=1S/C20H14N4O2/c25-24(26)16-10-6-9-15(13-16)21-20-17-11-4-5-12-18(17)22-19(23-20)14-7-2-1-3-8-14/h1-13H,(H,21,22,23)

>  <source>  (22) 
ChEMBL25

>  <source_id>  (22) 
25

>  <optional_reference>  (22) 
10.1016/j.bmcl.2012.08.024

>  <optional_origin>  (22) 
None

>  <target>  (22) 
BCRP

$$$$

     RDKit          2D

 19 21  0  0  0  0  0  0  0  0999 V2000
    3.0417   -8.2000    0.0000 C   0  0  0  0  0  0  0  0  0  0  0  0
    3.0417   -7.3667    0.0000 C   0  0  0  0  0  0  0  0  0  0  0  0
    2.3167   -8.6125    0.0000 C   0  0  0  0  0  0  0  0  0  0  0  0
    2.3167   -6.9542    0.0000 O   0  0  0  0  0  0  0  0  0  0  0  0
    1.6042   -8.1917    0.0000 C   0  0  0  0  0  0  0  0  0  0  0  0
    1.6125   -7.3667    0.0000 C   0  0  0  0  0  0  0  0  0  0  0  0
    3.7542   -6.9625    0.0000 C   0  0  0  0  0  0  0  0  0  0  0  0
    2.3167   -9.4375    0.0000 O   0  0  0  0  0  0  0  0  0  0  0  0
    3.7500   -8.6125    0.0000 O   0  0  0  0  0  0  0  0  0  0  0  0
    0.8917   -8.6125    0.0000 C   0  0  0  0  0  0  0  0  0  0  0  0
    0.8917   -6.9542    0.0000 C   0  0  0  0  0  0  0  0  0  0  0  0
    3.7542   -6.1417    0.0000 C   0  0  0  0  0  0  0  0  0  0  0  0
    4.4667   -7.3792    0.0000 C   0  0  0  0  0  0  0  0  0  0  0  0
    4.4667   -8.2000    0.0000 C   0  0  0  0  0  0  0  0  0  0  0  0
    0.1792   -8.2000    0.0000 C   0  0  0  0  0  0  0  0  0  0  0  0
    0.1792   -7.3750    0.0000 C   0  0  0  0  0  0  0  0  0  0  0  0
    4.4667   -5.7292    0.0000 C   0  0  0  0  0  0  0  0  0  0  0  0
    5.1792   -6.9667    0.0000 C   0  0  0  0  0  0  0  0  0  0  0  0
    5.1875   -6.1417    0.0000 C   0  0  0  0  0  0  0  0  0  0  0  0
  2  1  2  0
  3  1  1  0
  4  2  1  0
  5  3  1  0
  6  5  2  0
  7  2  1  0
  8  3  2  0
  9  1  1  0
 10  5  1  0
 11  6  1  0
 12  7  2  0
 13  7  1  0
 14  9  1  0
 15 10  2  0
 16 15  1  0
 17 12  1  0
 18 13  2  0
 19 18  1  0
  4  6  1  0
 16 11  2  0
 17 19  2  0
M  END
>  <Classification>  (23) 
1

>  <pchembl>  (23) 
5.89

>  <InChI_steorem>  (23) 
InChI=1S/C16H12O3/c1-18-16-14(17)12-9-5-6-10-13(12)19-15(16)11-7-3-2-4-8-11/h2-10H,1H3

>  <source>  (23) 
ChEMBL25

>  <source_id>  (23) 
25

>  <optional_reference>  (23) 
10.1016/j.ejmech.2013.06.035

>  <optional_origin>  (23) 
None

>  <target>  (23) 
BCRP

$$$$

     RDKit          2D

 25 27  0  0  0  0  0  0  0  0999 V2000
   -2.9217   -0.8310    0.0000 C   0  0  0  0  0  0  0  0  0  0  0  0
   -2.2073   -1.2437    0.0000 C   0  0  0  0  0  0  0  0  0  0  0  0
   -1.4941   -0.0005    0.0000 C   0  0  0  0  0  0  0  0  0  0  0  0
   -1.4953   -0.8331    0.0000 C   0  0  0  0  0  0  0  0  0  0  0  0
   -0.7788   -1.2481    0.0000 C   0  0  0  0  0  0  0  0  0  0  0  0
   -0.0567   -0.8351    0.0000 C   0  0  0  0  0  0  0  0  0  0  0  0
   -0.0555   -0.0026    0.0000 C   0  0  0  0  0  0  0  0  0  0  0  0
   -0.7764    0.4171    0.0000 O   0  0  0  0  0  0  0  0  0  0  0  0
   -2.9206   -0.0041    0.0000 C   0  0  0  0  0  0  0  0  0  0  0  0
   -2.2070    0.4092    0.0000 C   0  0  0  0  0  0  0  0  0  0  0  0
    0.6579    0.4054    0.0000 C   0  0  0  0  0  0  0  0  0  0  0  0
    1.3712   -0.0104    0.0000 C   0  0  0  0  0  0  0  0  0  0  0  0
    2.0858    0.3995    0.0000 C   0  0  0  0  0  0  0  0  0  0  0  0
    2.0883    1.2249    0.0000 C   0  0  0  0  0  0  0  0  0  0  0  0
    1.3702    1.6387    0.0000 C   0  0  0  0  0  0  0  0  0  0  0  0
    0.6586    1.2265    0.0000 C   0  0  0  0  0  0  0  0  0  0  0  0
   -0.7812   -2.0726    0.0000 O   0  0  0  0  0  0  0  0  0  0  0  0
    0.6562   -1.2495    0.0000 O   0  0  0  0  0  0  0  0  0  0  0  0
    0.6539   -2.0739    0.0000 C   0  0  0  0  0  0  0  0  0  0  0  0
   -3.6346    0.4082    0.0000 O   0  0  0  0  0  0  0  0  0  0  0  0
   -3.6347    1.2327    0.0000 C   0  0  0  0  0  0  0  0  0  0  0  0
    2.8028    1.6363    0.0000 O   0  0  0  0  0  0  0  0  0  0  0  0
    3.5163    1.2233    0.0000 C   0  0  0  0  0  0  0  0  0  0  0  0
    2.7987   -0.0149    0.0000 O   0  0  0  0  0  0  0  0  0  0  0  0
    2.7963   -0.8394    0.0000 C   0  0  0  0  0  0  0  0  0  0  0  0
  3 10  2  0
 12 13  2  0
  3  4  1  0
 13 14  1  0
  3  8  1  0
 14 15  2  0
  4  5  1  0
 15 16  1  0
 16 11  2  0
  7 11  1  0
  5  6  1  0
  5 17  2  0
  6  7  2  0
  6 18  1  0
  7  8  1  0
 18 19  1  0
  9 10  1  0
  9 20  1  0
  9  1  2  0
 20 21  1  0
 14 22  1  0
  1  2  1  0
 22 23  1  0
  2  4  2  0
 13 24  1  0
 11 12  1  0
 24 25  1  0
M  END
>  <Classification>  (24) 
1

>  <pchembl>  (24) 
5.67

>  <InChI_steorem>  (24) 
InChI=1S/C19H18O6/c1-21-12-6-7-13-15(10-12)25-18(19(24-4)17(13)20)11-5-8-14(22-2)16(9-11)23-3/h5-10H,1-4H3

>  <source>  (24) 
ChEMBL25

>  <source_id>  (24) 
25

>  <optional_reference>  (24) 
10.1016/j.ejmech.2013.06.035

>  <optional_origin>  (24) 
None

>  <target>  (24) 
BCRP

$$$$

     RDKit          2D

 20 21  0  0  0  0  0  0  0  0999 V2000
   -2.9419  -23.9152    0.0000 C   0  0  0  0  0  0  0  0  0  0  0  0
   -2.2255  -23.5019    0.0000 C   0  0  0  0  0  0  0  0  0  0  0  0
   -2.2284  -22.6713    0.0000 C   0  0  0  0  0  0  0  0  0  0  0  0
   -2.9437  -22.2622    0.0000 C   0  0  0  0  0  0  0  0  0  0  0  0
   -1.5154  -22.2561    0.0000 C   0  0  0  0  0  0  0  0  0  0  0  0
   -0.7994  -22.6659    0.0000 C   0  0  0  0  0  0  0  0  0  0  0  0
   -1.5186  -21.4311    0.0000 O   0  0  0  0  0  0  0  0  0  0  0  0
   -0.0865  -22.2508    0.0000 C   0  0  0  0  0  0  0  0  0  0  0  0
    0.6295  -22.6606    0.0000 C   0  0  0  0  0  0  0  0  0  0  0  0
    0.6295  -23.4844    0.0000 C   0  0  0  0  0  0  0  0  0  0  0  0
    1.3447  -23.8941    0.0000 C   0  0  0  0  0  0  0  0  0  0  0  0
    1.3370  -22.2437    0.0000 C   0  0  0  0  0  0  0  0  0  0  0  0
   -3.6593  -23.4995    0.0000 C   0  0  0  0  0  0  0  0  0  0  0  0
   -3.6555  -22.6780    0.0000 C   0  0  0  0  0  0  0  0  0  0  0  0
    2.0577  -22.6434    0.0000 C   0  0  0  0  0  0  0  0  0  0  0  0
    2.0583  -23.4746    0.0000 C   0  0  0  0  0  0  0  0  0  0  0  0
   -2.9475  -21.4372    0.0000 O   0  0  0  0  0  0  0  0  0  0  0  0
   -4.3750  -23.9098    0.0000 O   0  0  0  0  0  0  0  0  0  0  0  0
   -5.0882  -23.4951    0.0000 C   0  0  0  0  0  0  0  0  0  0  0  0
    2.7745  -23.8841    0.0000 Cl  0  0  0  0  0  0  0  0  0  0  0  0
  4 14  1  0
  9 10  2  0
  1  2  2  0
 10 11  1  0
 11 16  2  0
  3  5  1  0
 15 12  2  0
 12  9  1  0
 13 14  2  0
 13  1  1  0
  5  6  1  0
 15 16  1  0
  2  3  1  0
  5  7  2  0
  4 17  1  0
  6  8  2  3
 13 18  1  0
  3  4  2  0
 18 19  1  0
  8  9  1  0
 16 20  1  0
M  END
>  <Classification>  (25) 
0

>  <pchembl>  (25) 
4.87

>  <InChI_steorem>  (25) 
InChI=1S/C16H13ClO3/c1-20-13-7-8-14(16(19)10-13)15(18)9-4-11-2-5-12(17)6-3-11/h2-10,19H,1H3

>  <source>  (25) 
ChEMBL25

>  <source_id>  (25) 
25

>  <optional_reference>  (25) 
10.1016/j.bmc.2011.10.074

>  <optional_origin>  (25) 
None

>  <target>  (25) 
BCRP

$$$$

     RDKit          2D

 21 22  0  0  0  0  0  0  0  0999 V2000
   10.0476   -3.0913    0.0000 C   0  0  0  0  0  0  0  0  0  0  0  0
   10.0464   -3.9186    0.0000 C   0  0  0  0  0  0  0  0  0  0  0  0
   10.7611   -4.3315    0.0000 C   0  0  0  0  0  0  0  0  0  0  0  0
   11.4776   -3.9181    0.0000 C   0  0  0  0  0  0  0  0  0  0  0  0
   11.4747   -3.0877    0.0000 C   0  0  0  0  0  0  0  0  0  0  0  0
   10.7593   -2.6786    0.0000 C   0  0  0  0  0  0  0  0  0  0  0  0
   10.7569   -1.8537    0.0000 O   0  0  0  0  0  0  0  0  0  0  0  0
   12.1875   -2.6725    0.0000 C   0  0  0  0  0  0  0  0  0  0  0  0
   12.9034   -3.0823    0.0000 C   0  0  0  0  0  0  0  0  0  0  0  0
   12.1844   -1.8476    0.0000 O   0  0  0  0  0  0  0  0  0  0  0  0
   13.6163   -2.6671    0.0000 C   0  0  0  0  0  0  0  0  0  0  0  0
   14.3323   -3.0769    0.0000 C   0  0  0  0  0  0  0  0  0  0  0  0
   14.3335   -3.9061    0.0000 C   0  0  0  0  0  0  0  0  0  0  0  0
   15.0482   -4.3190    0.0000 C   0  0  0  0  0  0  0  0  0  0  0  0
   15.7646   -3.9056    0.0000 C   0  0  0  0  0  0  0  0  0  0  0  0
   15.7617   -3.0752    0.0000 C   0  0  0  0  0  0  0  0  0  0  0  0
   15.0464   -2.6661    0.0000 C   0  0  0  0  0  0  0  0  0  0  0  0
   16.4746   -2.6600    0.0000 O   0  0  0  0  0  0  0  0  0  0  0  0
   17.1905   -3.0698    0.0000 C   0  0  0  0  0  0  0  0  0  0  0  0
   16.4797   -4.3170    0.0000 O   0  0  0  0  0  0  0  0  0  0  0  0
   16.4810   -5.1419    0.0000 C   0  0  0  0  0  0  0  0  0  0  0  0
  2  3  2  0
  9 11  2  3
  5  6  1  0
 11 12  1  0
  6  1  2  0
 12 13  2  0
  1  2  1  0
 13 14  1  0
  6  7  1  0
 14 15  2  0
  3  4  1  0
 15 16  1  0
  5  8  1  0
 16 17  2  0
 17 12  1  0
 16 18  1  0
  8  9  1  0
 18 19  1  0
  4  5  2  0
 15 20  1  0
  8 10  2  0
 20 21  1  0
M  END
>  <Classification>  (26) 
1

>  <pchembl>  (26) 
5.29

>  <InChI_steorem>  (26) 
InChI=1S/C17H16O4/c1-20-16-10-8-12(11-17(16)21-2)7-9-15(19)13-5-3-4-6-14(13)18/h3-11,18H,1-2H3

>  <source>  (26) 
ChEMBL25

>  <source_id>  (26) 
25

>  <optional_reference>  (26) 
10.1016/j.bmc.2011.10.074

>  <optional_origin>  (26) 
None

>  <target>  (26) 
BCRP

$$$$

     RDKit          2D

 22 23  0  0  0  0  0  0  0  0999 V2000
    7.7956   -5.6402    0.0000 C   0  0  0  0  0  0  0  0  0  0  0  0
    8.5120   -5.2269    0.0000 C   0  0  0  0  0  0  0  0  0  0  0  0
    8.5091   -4.3963    0.0000 C   0  0  0  0  0  0  0  0  0  0  0  0
    7.7938   -3.9872    0.0000 C   0  0  0  0  0  0  0  0  0  0  0  0
    9.2221   -3.9811    0.0000 C   0  0  0  0  0  0  0  0  0  0  0  0
    9.9381   -4.3909    0.0000 C   0  0  0  0  0  0  0  0  0  0  0  0
    9.2189   -3.1561    0.0000 O   0  0  0  0  0  0  0  0  0  0  0  0
   10.6510   -3.9758    0.0000 C   0  0  0  0  0  0  0  0  0  0  0  0
   11.3670   -4.3856    0.0000 C   0  0  0  0  0  0  0  0  0  0  0  0
   11.3670   -5.2094    0.0000 C   0  0  0  0  0  0  0  0  0  0  0  0
   12.0822   -5.6191    0.0000 C   0  0  0  0  0  0  0  0  0  0  0  0
   12.0745   -3.9687    0.0000 C   0  0  0  0  0  0  0  0  0  0  0  0
   12.7945   -4.3715    0.0000 C   0  0  0  0  0  0  0  0  0  0  0  0
   12.7958   -5.1996    0.0000 C   0  0  0  0  0  0  0  0  0  0  0  0
    7.0807   -5.2273    0.0000 C   0  0  0  0  0  0  0  0  0  0  0  0
    7.0820   -4.4030    0.0000 C   0  0  0  0  0  0  0  0  0  0  0  0
   13.5083   -5.6105    0.0000 O   0  0  0  0  0  0  0  0  0  0  0  0
   13.5087   -6.4355    0.0000 C   0  0  0  0  0  0  0  0  0  0  0  0
    7.7900   -3.1622    0.0000 O   0  0  0  0  0  0  0  0  0  0  0  0
    8.5025   -2.7464    0.0000 C   0  0  0  0  0  0  0  0  0  0  0  0
    6.3659   -5.6392    0.0000 O   0  0  0  0  0  0  0  0  0  0  0  0
    5.6518   -5.2261    0.0000 C   0  0  0  0  0  0  0  0  0  0  0  0
  1  2  2  0
 10 11  2  0
 11 14  1  0
  3  5  1  0
 13 12  1  0
 12  9  2  0
 13 14  2  0
 15  1  1  0
  5  6  1  0
 15 16  2  0
  2  3  1  0
  5  7  2  0
 14 17  1  0
  6  8  2  3
 17 18  1  0
  3  4  2  0
  4 19  1  0
  8  9  1  0
 19 20  1  0
  4 16  1  0
 15 21  1  0
  9 10  1  0
 21 22  1  0
M  END
>  <Classification>  (27) 
1

>  <pchembl>  (27) 
5.63

>  <InChI_steorem>  (27) 
InChI=1S/C18H18O4/c1-20-14-7-4-13(5-8-14)6-11-17(19)16-10-9-15(21-2)12-18(16)22-3/h4-12H,1-3H3

>  <source>  (27) 
ChEMBL25

>  <source_id>  (27) 
25

>  <optional_reference>  (27) 
10.1016/j.bmc.2011.10.074

>  <optional_origin>  (27) 
None

>  <target>  (27) 
BCRP

$$$$

     RDKit          2D

 22 23  0  0  0  0  0  0  0  0999 V2000
    9.1706    0.3098    0.0000 C   0  0  0  0  0  0  0  0  0  0  0  0
    9.8870    0.7231    0.0000 C   0  0  0  0  0  0  0  0  0  0  0  0
    9.8841    1.5537    0.0000 C   0  0  0  0  0  0  0  0  0  0  0  0
    9.1688    1.9628    0.0000 C   0  0  0  0  0  0  0  0  0  0  0  0
   10.5971    1.9689    0.0000 C   0  0  0  0  0  0  0  0  0  0  0  0
   11.3131    1.5591    0.0000 C   0  0  0  0  0  0  0  0  0  0  0  0
   10.5939    2.7939    0.0000 O   0  0  0  0  0  0  0  0  0  0  0  0
   12.0260    1.9742    0.0000 C   0  0  0  0  0  0  0  0  0  0  0  0
   12.7420    1.5644    0.0000 C   0  0  0  0  0  0  0  0  0  0  0  0
   12.7420    0.7406    0.0000 C   0  0  0  0  0  0  0  0  0  0  0  0
   13.4572    0.3309    0.0000 C   0  0  0  0  0  0  0  0  0  0  0  0
   13.4495    1.9813    0.0000 C   0  0  0  0  0  0  0  0  0  0  0  0
    8.4532    0.7255    0.0000 C   0  0  0  0  0  0  0  0  0  0  0  0
    8.4570    1.5470    0.0000 C   0  0  0  0  0  0  0  0  0  0  0  0
   14.1702    1.5816    0.0000 C   0  0  0  0  0  0  0  0  0  0  0  0
   14.1708    0.7504    0.0000 C   0  0  0  0  0  0  0  0  0  0  0  0
   14.8870    0.3409    0.0000 O   0  0  0  0  0  0  0  0  0  0  0  0
   15.5997    0.7565    0.0000 C   0  0  0  0  0  0  0  0  0  0  0  0
    7.7424    1.9593    0.0000 O   0  0  0  0  0  0  0  0  0  0  0  0
    7.7422    2.7843    0.0000 C   0  0  0  0  0  0  0  0  0  0  0  0
    7.7375    0.3152    0.0000 O   0  0  0  0  0  0  0  0  0  0  0  0
    7.0243    0.7299    0.0000 C   0  0  0  0  0  0  0  0  0  0  0  0
  1  2  2  0
 10 11  2  0
 11 16  1  0
  3  5  1  0
 15 12  1  0
 12  9  2  0
 13 14  2  0
 13  1  1  0
  5  6  1  0
 15 16  2  0
  2  3  1  0
  5  7  2  0
 16 17  1  0
  6  8  2  3
 17 18  1  0
  3  4  2  0
 14 19  1  0
  8  9  1  0
 19 20  1  0
  4 14  1  0
 13 21  1  0
  9 10  1  0
 21 22  1  0
M  END
>  <Classification>  (28) 
1

>  <pchembl>  (28) 
5.66

>  <InChI_steorem>  (28) 
InChI=1S/C18H18O4/c1-20-15-8-4-13(5-9-15)6-10-16(19)14-7-11-17(21-2)18(12-14)22-3/h4-12H,1-3H3

>  <source>  (28) 
ChEMBL25

>  <source_id>  (28) 
25

>  <optional_reference>  (28) 
10.1016/j.bmc.2011.10.074

>  <optional_origin>  (28) 
None

>  <target>  (28) 
BCRP

$$$$

     RDKit          2D

 23 24  0  0  0  0  0  0  0  0999 V2000
   -2.6711   -8.3735    0.0000 C   0  0  0  0  0  0  0  0  0  0  0  0
   -1.9547   -7.9602    0.0000 C   0  0  0  0  0  0  0  0  0  0  0  0
   -1.9575   -7.1297    0.0000 C   0  0  0  0  0  0  0  0  0  0  0  0
   -2.6729   -6.7205    0.0000 C   0  0  0  0  0  0  0  0  0  0  0  0
   -1.2446   -6.7145    0.0000 C   0  0  0  0  0  0  0  0  0  0  0  0
   -0.5286   -7.1243    0.0000 C   0  0  0  0  0  0  0  0  0  0  0  0
   -1.2477   -5.8895    0.0000 O   0  0  0  0  0  0  0  0  0  0  0  0
    0.1843   -6.7091    0.0000 C   0  0  0  0  0  0  0  0  0  0  0  0
    0.9003   -7.1189    0.0000 C   0  0  0  0  0  0  0  0  0  0  0  0
    0.9003   -7.9428    0.0000 C   0  0  0  0  0  0  0  0  0  0  0  0
    1.6155   -8.3525    0.0000 C   0  0  0  0  0  0  0  0  0  0  0  0
    1.6079   -6.7020    0.0000 C   0  0  0  0  0  0  0  0  0  0  0  0
   -3.3884   -7.9579    0.0000 C   0  0  0  0  0  0  0  0  0  0  0  0
   -3.3847   -7.1363    0.0000 C   0  0  0  0  0  0  0  0  0  0  0  0
    2.3285   -7.1017    0.0000 C   0  0  0  0  0  0  0  0  0  0  0  0
    2.3291   -7.9330    0.0000 C   0  0  0  0  0  0  0  0  0  0  0  0
   -4.1042   -8.3682    0.0000 O   0  0  0  0  0  0  0  0  0  0  0  0
    3.0453   -8.3424    0.0000 O   0  0  0  0  0  0  0  0  0  0  0  0
   -4.8174   -7.9535    0.0000 C   0  0  0  0  0  0  0  0  0  0  0  0
    3.7580   -7.9268    0.0000 C   0  0  0  0  0  0  0  0  0  0  0  0
   -2.6767   -5.8955    0.0000 O   0  0  0  0  0  0  0  0  0  0  0  0
    3.0393   -6.6829    0.0000 O   0  0  0  0  0  0  0  0  0  0  0  0
    3.7574   -7.0889    0.0000 C   0  0  0  0  0  0  0  0  0  0  0  0
 10 11  2  0
 11 16  1  0
  3  5  1  0
 15 12  1  0
 12  9  2  0
 13 14  1  0
 13  1  2  0
  5  6  1  0
 15 16  2  0
  2  3  2  0
  5  7  2  0
 13 17  1  0
  6  8  2  3
 16 18  1  0
  3  4  1  0
 17 19  1  0
  8  9  1  0
 18 20  1  0
  4 14  2  0
  4 21  1  0
  9 10  1  0
 15 22  1  0
  1  2  1  0
 22 23  1  0
M  END
>  <Classification>  (29) 
1

>  <pchembl>  (29) 
5.66

>  <InChI_steorem>  (29) 
InChI=1S/C18H18O5/c1-21-13-6-7-14(16(20)11-13)15(19)8-4-12-5-9-17(22-2)18(10-12)23-3/h4-11,20H,1-3H3

>  <source>  (29) 
ChEMBL25

>  <source_id>  (29) 
25

>  <optional_reference>  (29) 
10.1016/j.bmc.2011.10.074

>  <optional_origin>  (29) 
None

>  <target>  (29) 
BCRP

$$$$

     RDKit          2D

 23 24  0  0  0  0  0  0  0  0999 V2000
   -3.2969   -2.7865    0.0000 C   0  0  0  0  0  0  0  0  0  0  0  0
   -3.2981   -3.6141    0.0000 C   0  0  0  0  0  0  0  0  0  0  0  0
   -2.5852   -4.0269    0.0000 C   0  0  0  0  0  0  0  0  0  0  0  0
   -1.8658   -3.6135    0.0000 C   0  0  0  0  0  0  0  0  0  0  0  0
   -1.8690   -2.7825    0.0000 C   0  0  0  0  0  0  0  0  0  0  0  0
   -2.5872   -2.3737    0.0000 C   0  0  0  0  0  0  0  0  0  0  0  0
   -2.5910   -1.5487    0.0000 O   0  0  0  0  0  0  0  0  0  0  0  0
   -3.3073   -1.1397    0.0000 C   0  0  0  0  0  0  0  0  0  0  0  0
   -1.1566   -2.3664    0.0000 C   0  0  0  0  0  0  0  0  0  0  0  0
   -0.4402   -2.7754    0.0000 C   0  0  0  0  0  0  0  0  0  0  0  0
   -1.1608   -1.5416    0.0000 O   0  0  0  0  0  0  0  0  0  0  0  0
    0.2722   -2.3594    0.0000 C   0  0  0  0  0  0  0  0  0  0  0  0
    0.9887   -2.7683    0.0000 C   0  0  0  0  0  0  0  0  0  0  0  0
    0.9912   -3.5943    0.0000 C   0  0  0  0  0  0  0  0  0  0  0  0
    1.7068   -4.0031    0.0000 C   0  0  0  0  0  0  0  0  0  0  0  0
    2.4201   -3.5870    0.0000 C   0  0  0  0  0  0  0  0  0  0  0  0
    2.4134   -2.7578    0.0000 C   0  0  0  0  0  0  0  0  0  0  0  0
    1.6972   -2.3527    0.0000 C   0  0  0  0  0  0  0  0  0  0  0  0
   -1.1511   -4.0254    0.0000 O   0  0  0  0  0  0  0  0  0  0  0  0
   -4.0132   -4.0255    0.0000 O   0  0  0  0  0  0  0  0  0  0  0  0
    3.1372   -3.9950    0.0000 O   0  0  0  0  0  0  0  0  0  0  0  0
    3.1423   -4.8200    0.0000 C   0  0  0  0  0  0  0  0  0  0  0  0
   -4.0144   -4.8504    0.0000 C   0  0  0  0  0  0  0  0  0  0  0  0
  5  6  1  0
 10 12  2  3
  6  1  2  0
 12 13  1  0
  1  2  1  0
 13 14  2  0
  6  7  1  0
 14 15  1  0
  3  4  1  0
 15 16  2  0
  7  8  1  0
 16 17  1  0
 17 18  2  0
 18 13  1  0
  5  9  1  0
  4 19  1  0
  4  5  2  0
  2 20  1  0
  9 10  1  0
 16 21  1  0
  2  3  2  0
 21 22  1  0
  9 11  2  0
 20 23  1  0
M  END
>  <Classification>  (30) 
1

>  <pchembl>  (30) 
5.23

>  <InChI_steorem>  (30) 
InChI=1S/C18H18O5/c1-21-13-7-4-12(5-8-13)6-9-15(19)18-16(20)10-14(22-2)11-17(18)23-3/h4-11,20H,1-3H3

>  <source>  (30) 
ChEMBL25

>  <source_id>  (30) 
25

>  <optional_reference>  (30) 
10.1016/j.bmc.2011.10.074

>  <optional_origin>  (30) 
None

>  <target>  (30) 
BCRP

$$$$

     RDKit          2D

 25 26  0  0  0  0  0  0  0  0999 V2000
   -4.3723   -7.9916    0.0000 C   0  0  0  0  0  0  0  0  0  0  0  0
   -4.3734   -8.8190    0.0000 C   0  0  0  0  0  0  0  0  0  0  0  0
   -3.6586   -9.2319    0.0000 C   0  0  0  0  0  0  0  0  0  0  0  0
   -2.9422   -8.8185    0.0000 C   0  0  0  0  0  0  0  0  0  0  0  0
   -2.9450   -7.9880    0.0000 C   0  0  0  0  0  0  0  0  0  0  0  0
   -3.6604   -7.5789    0.0000 C   0  0  0  0  0  0  0  0  0  0  0  0
   -3.6629   -6.7539    0.0000 O   0  0  0  0  0  0  0  0  0  0  0  0
   -2.2321   -7.5728    0.0000 C   0  0  0  0  0  0  0  0  0  0  0  0
   -1.5161   -7.9826    0.0000 C   0  0  0  0  0  0  0  0  0  0  0  0
   -2.2352   -6.7478    0.0000 O   0  0  0  0  0  0  0  0  0  0  0  0
   -0.8032   -7.5674    0.0000 C   0  0  0  0  0  0  0  0  0  0  0  0
   -0.0872   -7.9772    0.0000 C   0  0  0  0  0  0  0  0  0  0  0  0
   -0.0859   -8.8065    0.0000 C   0  0  0  0  0  0  0  0  0  0  0  0
    0.6289   -9.2194    0.0000 C   0  0  0  0  0  0  0  0  0  0  0  0
    1.3453   -8.8060    0.0000 C   0  0  0  0  0  0  0  0  0  0  0  0
    1.3425   -7.9755    0.0000 C   0  0  0  0  0  0  0  0  0  0  0  0
    0.6271   -7.5664    0.0000 C   0  0  0  0  0  0  0  0  0  0  0  0
    2.0554   -7.5603    0.0000 O   0  0  0  0  0  0  0  0  0  0  0  0
    2.7714   -7.9701    0.0000 C   0  0  0  0  0  0  0  0  0  0  0  0
    2.0605   -9.2174    0.0000 O   0  0  0  0  0  0  0  0  0  0  0  0
    2.0617  -10.0424    0.0000 C   0  0  0  0  0  0  0  0  0  0  0  0
   -5.0882   -9.2309    0.0000 O   0  0  0  0  0  0  0  0  0  0  0  0
   -2.2270   -9.2299    0.0000 O   0  0  0  0  0  0  0  0  0  0  0  0
   -2.2258  -10.0549    0.0000 C   0  0  0  0  0  0  0  0  0  0  0  0
   -5.0889  -10.0559    0.0000 C   0  0  0  0  0  0  0  0  0  0  0  0
  6  1  2  0
 12 13  2  0
  1  2  1  0
 13 14  1  0
  6  7  1  0
 14 15  2  0
  3  4  1  0
 15 16  1  0
  5  8  1  0
 16 17  2  0
 17 12  1  0
 16 18  1  0
  8  9  1  0
 18 19  1  0
  4  5  2  0
 15 20  1  0
  8 10  2  0
 20 21  1  0
  2  3  2  0
  2 22  1  0
  9 11  2  3
  4 23  1  0
  5  6  1  0
 23 24  1  0
 11 12  1  0
 22 25  1  0
M  END
>  <Classification>  (31) 
1

>  <pchembl>  (31) 
6.12

>  <InChI_steorem>  (31) 
InChI=1S/C19H20O6/c1-22-13-10-15(21)19(18(11-13)25-4)14(20)7-5-12-6-8-16(23-2)17(9-12)24-3/h5-11,21H,1-4H3

>  <source>  (31) 
ChEMBL25

>  <source_id>  (31) 
25

>  <optional_reference>  (31) 
10.1016/j.bmc.2011.10.074

>  <optional_origin>  (31) 
None

>  <target>  (31) 
BCRP

$$$$

     RDKit          2D

 28 31  0  0  0  0  0  0  0  0999 V2000
    7.7767  -18.6977    0.0000 C   0  0  0  0  0  0  0  0  0  0  0  0
    7.7756  -19.5249    0.0000 C   0  0  0  0  0  0  0  0  0  0  0  0
    8.4904  -19.9378    0.0000 C   0  0  0  0  0  0  0  0  0  0  0  0
    8.4886  -18.2850    0.0000 C   0  0  0  0  0  0  0  0  0  0  0  0
    9.2039  -18.6940    0.0000 C   0  0  0  0  0  0  0  0  0  0  0  0
    9.2073  -19.5270    0.0000 C   0  0  0  0  0  0  0  0  0  0  0  0
    9.9264  -19.9383    0.0000 C   0  0  0  0  0  0  0  0  0  0  0  0
   10.6467  -19.5211    0.0000 N   0  0  0  0  0  0  0  0  0  0  0  0
   10.6432  -18.6881    0.0000 C   0  0  0  0  0  0  0  0  0  0  0  0
    9.9195  -18.2723    0.0000 C   0  0  0  0  0  0  0  0  0  0  0  0
   11.3622  -19.9317    0.0000 C   0  0  0  0  0  0  0  0  0  0  0  0
   12.0754  -19.5172    0.0000 C   0  0  0  0  0  0  0  0  0  0  0  0
   12.7909  -19.9278    0.0000 C   0  0  0  0  0  0  0  0  0  0  0  0
   12.7895  -20.7528    0.0000 C   0  0  0  0  0  0  0  0  0  0  0  0
   13.5042  -21.1631    0.0000 C   0  0  0  0  0  0  0  0  0  0  0  0
   14.2185  -20.7487    0.0000 C   0  0  0  0  0  0  0  0  0  0  0  0
   14.2136  -19.9196    0.0000 C   0  0  0  0  0  0  0  0  0  0  0  0
   13.4983  -19.5128    0.0000 C   0  0  0  0  0  0  0  0  0  0  0  0
   14.9346  -21.1582    0.0000 N   0  0  0  0  0  0  0  0  0  0  0  0
   15.6472  -20.7429    0.0000 C   0  0  0  0  0  0  0  0  0  0  0  0
   15.6439  -19.9180    0.0000 O   0  0  0  0  0  0  0  0  0  0  0  0
   16.3633  -21.1524    0.0000 C   0  0  0  0  0  0  0  0  0  0  0  0
   16.3652  -21.9775    0.0000 C   0  0  0  0  0  0  0  0  0  0  0  0
   17.0804  -22.3871    0.0000 C   0  0  0  0  0  0  0  0  0  0  0  0
   17.7941  -21.9716    0.0000 C   0  0  0  0  0  0  0  0  0  0  0  0
   17.7881  -21.1425    0.0000 C   0  0  0  0  0  0  0  0  0  0  0  0
   17.0723  -20.7368    0.0000 C   0  0  0  0  0  0  0  0  0  0  0  0
   15.6521  -22.3922    0.0000 N   0  0  0  0  0  0  0  0  0  0  0  0
  3  6  2  0
 13 14  2  0
  1  2  2  0
 14 15  1  0
  5  4  2  0
 15 16  2  0
  4  1  1  0
 16 17  1  0
  5 10  1  0
 17 18  2  0
 18 13  1  0
  6  7  1  0
 16 19  1  0
  7  8  1  0
 19 20  1  0
  8  9  1  0
 20 21  2  0
  9 10  1  0
 20 22  1  0
  5  6  1  0
 22 23  2  0
  8 11  1  0
 23 24  1  0
 24 25  2  0
 11 12  1  0
 25 26  1  0
  2  3  1  0
 26 27  2  0
 27 22  1  0
 12 13  1  0
 23 28  1  0
M  END
>  <Classification>  (32) 
0

>  <pchembl>  (32) 
4.13

>  <InChI_steorem>  (32) 
InChI=1S/C24H25N3O/c25-23-8-4-3-7-22(23)24(28)26-21-11-9-18(10-12-21)13-15-27-16-14-19-5-1-2-6-20(19)17-27/h1-12H,13-17,25H2,(H,26,28)

>  <source>  (32) 
ChEMBL25

>  <source_id>  (32) 
25

>  <optional_reference>  (32) 
10.1016/j.bmc.2008.07.034

>  <optional_origin>  (32) 
None

>  <target>  (32) 
BCRP

$$$$

     RDKit          2D

 29 32  0  0  0  0  0  0  0  0999 V2000
    8.9688   -2.7289    0.0000 C   0  0  0  0  0  0  0  0  0  0  0  0
    8.9676   -3.5563    0.0000 C   0  0  0  0  0  0  0  0  0  0  0  0
    9.6825   -3.9691    0.0000 C   0  0  0  0  0  0  0  0  0  0  0  0
    9.6807   -2.3162    0.0000 C   0  0  0  0  0  0  0  0  0  0  0  0
   10.3959   -2.7253    0.0000 C   0  0  0  0  0  0  0  0  0  0  0  0
   10.3994   -3.5584    0.0000 C   0  0  0  0  0  0  0  0  0  0  0  0
   11.1185   -3.9696    0.0000 C   0  0  0  0  0  0  0  0  0  0  0  0
   11.8388   -3.5525    0.0000 N   0  0  0  0  0  0  0  0  0  0  0  0
   11.8354   -2.7194    0.0000 C   0  0  0  0  0  0  0  0  0  0  0  0
   11.1117   -2.3035    0.0000 C   0  0  0  0  0  0  0  0  0  0  0  0
   12.5544   -3.9629    0.0000 C   0  0  0  0  0  0  0  0  0  0  0  0
   13.2677   -3.5486    0.0000 C   0  0  0  0  0  0  0  0  0  0  0  0
   13.9833   -3.9590    0.0000 C   0  0  0  0  0  0  0  0  0  0  0  0
   13.9819   -4.7841    0.0000 C   0  0  0  0  0  0  0  0  0  0  0  0
   14.6966   -5.1946    0.0000 C   0  0  0  0  0  0  0  0  0  0  0  0
   15.4109   -4.7801    0.0000 C   0  0  0  0  0  0  0  0  0  0  0  0
   15.4060   -3.9508    0.0000 C   0  0  0  0  0  0  0  0  0  0  0  0
   14.6906   -3.5442    0.0000 C   0  0  0  0  0  0  0  0  0  0  0  0
   16.1269   -5.1897    0.0000 N   0  0  0  0  0  0  0  0  0  0  0  0
   16.8397   -4.7743    0.0000 C   0  0  0  0  0  0  0  0  0  0  0  0
   17.5558   -5.1839    0.0000 N   0  0  0  0  0  0  0  0  0  0  0  0
   16.8364   -3.9493    0.0000 O   0  0  0  0  0  0  0  0  0  0  0  0
   18.2685   -4.7685    0.0000 C   0  0  0  0  0  0  0  0  0  0  0  0
   18.9829   -5.1791    0.0000 C   0  0  0  0  0  0  0  0  0  0  0  0
   19.6951   -4.7644    0.0000 C   0  0  0  0  0  0  0  0  0  0  0  0
   19.6922   -3.9385    0.0000 C   0  0  0  0  0  0  0  0  0  0  0  0
   18.9712   -3.5292    0.0000 C   0  0  0  0  0  0  0  0  0  0  0  0
   18.2618   -3.9461    0.0000 C   0  0  0  0  0  0  0  0  0  0  0  0
   18.9852   -6.0040    0.0000 N   0  0  0  0  0  0  0  0  0  0  0  0
 13 14  2  0
  1  2  2  0
 14 15  1  0
  5  4  2  0
 15 16  2  0
  4  1  1  0
 16 17  1  0
  5 10  1  0
 17 18  2  0
 18 13  1  0
  6  7  1  0
 16 19  1  0
  7  8  1  0
 19 20  1  0
  8  9  1  0
 20 21  1  0
  9 10  1  0
 20 22  2  0
  5  6  1  0
 21 23  1  0
  8 11  1  0
 23 24  2  0
 24 25  1  0
 11 12  1  0
 25 26  2  0
  2  3  1  0
 26 27  1  0
 12 13  1  0
 27 28  2  0
 28 23  1  0
  3  6  2  0
 24 29  1  0
M  END
>  <Classification>  (33) 
0

>  <pchembl>  (33) 
4.13

>  <InChI_steorem>  (33) 
InChI=1S/C24H26N4O/c25-22-7-3-4-8-23(22)27-24(29)26-21-11-9-18(10-12-21)13-15-28-16-14-19-5-1-2-6-20(19)17-28/h1-12H,13-17,25H2,(H2,26,27,29)

>  <source>  (33) 
ChEMBL25

>  <source_id>  (33) 
25

>  <optional_reference>  (33) 
10.1016/j.bmcl.2009.11.004

>  <optional_origin>  (33) 
None

>  <target>  (33) 
BCRP

$$$$

     RDKit          2D

 30 33  0  0  0  0  0  0  0  0999 V2000
   -5.4299  -12.1026    0.0000 C   0  0  0  0  0  0  0  0  0  0  0  0
   -5.4311  -12.9299    0.0000 C   0  0  0  0  0  0  0  0  0  0  0  0
   -4.7163  -13.3428    0.0000 C   0  0  0  0  0  0  0  0  0  0  0  0
   -4.7181  -11.6900    0.0000 C   0  0  0  0  0  0  0  0  0  0  0  0
   -4.0029  -12.0990    0.0000 C   0  0  0  0  0  0  0  0  0  0  0  0
   -3.9994  -12.9320    0.0000 C   0  0  0  0  0  0  0  0  0  0  0  0
   -3.2804  -13.3433    0.0000 C   0  0  0  0  0  0  0  0  0  0  0  0
   -2.5601  -12.9261    0.0000 N   0  0  0  0  0  0  0  0  0  0  0  0
   -2.5635  -12.0931    0.0000 C   0  0  0  0  0  0  0  0  0  0  0  0
   -3.2872  -11.6773    0.0000 C   0  0  0  0  0  0  0  0  0  0  0  0
   -1.8446  -13.3366    0.0000 C   0  0  0  0  0  0  0  0  0  0  0  0
   -1.1313  -12.9222    0.0000 C   0  0  0  0  0  0  0  0  0  0  0  0
   -0.4157  -13.3327    0.0000 C   0  0  0  0  0  0  0  0  0  0  0  0
   -0.4171  -14.1577    0.0000 C   0  0  0  0  0  0  0  0  0  0  0  0
    0.2976  -14.5681    0.0000 C   0  0  0  0  0  0  0  0  0  0  0  0
    1.0118  -14.1537    0.0000 C   0  0  0  0  0  0  0  0  0  0  0  0
    1.0069  -13.3245    0.0000 C   0  0  0  0  0  0  0  0  0  0  0  0
    0.2916  -12.9178    0.0000 C   0  0  0  0  0  0  0  0  0  0  0  0
    1.7278  -14.5632    0.0000 N   0  0  0  0  0  0  0  0  0  0  0  0
    2.4405  -14.1479    0.0000 C   0  0  0  0  0  0  0  0  0  0  0  0
    2.4372  -13.3230    0.0000 O   0  0  0  0  0  0  0  0  0  0  0  0
    3.1566  -14.5574    0.0000 C   0  0  0  0  0  0  0  0  0  0  0  0
    3.1585  -15.3825    0.0000 C   0  0  0  0  0  0  0  0  0  0  0  0
    3.8737  -15.7920    0.0000 C   0  0  0  0  0  0  0  0  0  0  0  0
    4.5874  -15.3766    0.0000 C   0  0  0  0  0  0  0  0  0  0  0  0
    4.5814  -14.5474    0.0000 C   0  0  0  0  0  0  0  0  0  0  0  0
    3.8656  -14.1417    0.0000 C   0  0  0  0  0  0  0  0  0  0  0  0
    2.4419  -15.8016    0.0000 N   0  0  0  0  0  0  0  0  0  0  0  0
    2.4443  -16.6265    0.0000 O   0  0  0  0  0  0  0  0  0  0  0  0
    1.7263  -15.3912    0.0000 O   0  0  0  0  0  0  0  0  0  0  0  0
  1  2  2  0
 14 15  2  0
  5  4  2  0
 15 16  1  0
  4  1  1  0
 16 17  2  0
  5 10  1  0
 17 18  1  0
 18 13  2  0
  6  7  1  0
 16 19  1  0
  7  8  1  0
 19 20  1  0
  8  9  1  0
 20 21  2  0
  9 10  1  0
 20 22  1  0
  5  6  1  0
 22 23  2  0
  8 11  1  0
 23 24  1  0
 24 25  2  0
 11 12  1  0
 25 26  1  0
  2  3  1  0
 26 27  2  0
 27 22  1  0
 12 13  1  0
  3  6  2  0
 13 14  1  0
 28 29  2  0
 28 30  1  0
 23 28  1  0
M  CHG  2  28   1  30  -1
M  END
>  <Classification>  (34) 
0

>  <pchembl>  (34) 
4.1

>  <InChI_steorem>  (34) 
InChI=1S/C24H23N3O3/c28-24(22-7-3-4-8-23(22)27(29)30)25-21-11-9-18(10-12-21)13-15-26-16-14-19-5-1-2-6-20(19)17-26/h1-12H,13-17H2,(H,25,28)

>  <source>  (34) 
ChEMBL25

>  <source_id>  (34) 
25

>  <optional_reference>  (34) 
10.1016/j.bmc.2008.07.034

>  <optional_origin>  (34) 
None

>  <target>  (34) 
BCRP

$$$$

     RDKit          2D

 31 34  0  0  0  0  0  0  0  0999 V2000
   -5.8676    3.5747    0.0000 C   0  0  0  0  0  0  0  0  0  0  0  0
   -5.8688    2.7474    0.0000 C   0  0  0  0  0  0  0  0  0  0  0  0
   -5.1539    2.3346    0.0000 C   0  0  0  0  0  0  0  0  0  0  0  0
   -5.1557    3.9874    0.0000 C   0  0  0  0  0  0  0  0  0  0  0  0
   -4.4405    3.5784    0.0000 C   0  0  0  0  0  0  0  0  0  0  0  0
   -4.4370    2.7453    0.0000 C   0  0  0  0  0  0  0  0  0  0  0  0
   -3.7180    2.3341    0.0000 C   0  0  0  0  0  0  0  0  0  0  0  0
   -2.9976    2.7512    0.0000 N   0  0  0  0  0  0  0  0  0  0  0  0
   -3.0010    3.5843    0.0000 C   0  0  0  0  0  0  0  0  0  0  0  0
   -3.7248    4.0075    0.0000 C   0  0  0  0  0  0  0  0  0  0  0  0
   -2.2821    2.3407    0.0000 C   0  0  0  0  0  0  0  0  0  0  0  0
   -1.5688    2.7551    0.0000 C   0  0  0  0  0  0  0  0  0  0  0  0
   -0.8532    2.3446    0.0000 C   0  0  0  0  0  0  0  0  0  0  0  0
   -0.8546    1.5196    0.0000 C   0  0  0  0  0  0  0  0  0  0  0  0
   -0.1399    1.1092    0.0000 C   0  0  0  0  0  0  0  0  0  0  0  0
    0.5743    1.5237    0.0000 C   0  0  0  0  0  0  0  0  0  0  0  0
    0.5694    2.3528    0.0000 C   0  0  0  0  0  0  0  0  0  0  0  0
   -0.1459    2.7595    0.0000 C   0  0  0  0  0  0  0  0  0  0  0  0
    1.2904    1.1141    0.0000 N   0  0  0  0  0  0  0  0  0  0  0  0
    2.0031    1.5295    0.0000 C   0  0  0  0  0  0  0  0  0  0  0  0
    2.7193    1.1199    0.0000 N   0  0  0  0  0  0  0  0  0  0  0  0
    1.9998    2.3544    0.0000 O   0  0  0  0  0  0  0  0  0  0  0  0
    3.4319    1.5353    0.0000 C   0  0  0  0  0  0  0  0  0  0  0  0
    4.1462    1.1247    0.0000 C   0  0  0  0  0  0  0  0  0  0  0  0
    4.8585    1.5394    0.0000 C   0  0  0  0  0  0  0  0  0  0  0  0
    4.8556    2.3652    0.0000 C   0  0  0  0  0  0  0  0  0  0  0  0
    4.1345    2.7745    0.0000 C   0  0  0  0  0  0  0  0  0  0  0  0
    3.4252    2.3575    0.0000 C   0  0  0  0  0  0  0  0  0  0  0  0
    4.1514    0.2980    0.0000 N   0  0  0  0  0  0  0  0  0  0  0  0
    4.8670   -0.1125    0.0000 O   0  0  0  0  0  0  0  0  0  0  0  0
    3.4382   -0.1165    0.0000 O   0  0  0  0  0  0  0  0  0  0  0  0
 14 15  2  0
  5  4  1  0
 15 16  1  0
  4  1  2  0
 16 17  2  0
  5 10  1  0
 17 18  1  0
 18 13  2  0
  6  7  1  0
 16 19  1  0
  7  8  1  0
 19 20  1  0
  8  9  1  0
 20 21  1  0
  9 10  1  0
 20 22  2  0
  5  6  2  0
 21 23  1  0
  8 11  1  0
 23 24  2  0
 24 25  1  0
 11 12  1  0
 25 26  2  0
  2  3  2  0
 26 27  1  0
 12 13  1  0
 27 28  2  0
 28 23  1  0
  3  6  1  0
 13 14  1  0
  1  2  1  0
 29 30  2  0
 29 31  1  0
 24 29  1  0
M  CHG  2  29   1  31  -1
M  END
>  <Classification>  (35) 
1

>  <pchembl>  (35) 
5.17

>  <InChI_steorem>  (35) 
InChI=1S/C24H24N4O3/c29-24(26-22-7-3-4-8-23(22)28(30)31)25-21-11-9-18(10-12-21)13-15-27-16-14-19-5-1-2-6-20(19)17-27/h1-12H,13-17H2,(H2,25,26,29)

>  <source>  (35) 
ChEMBL25

>  <source_id>  (35) 
25

>  <optional_reference>  (35) 
10.1016/j.bmcl.2009.11.004

>  <optional_origin>  (35) 
None

>  <target>  (35) 
BCRP

$$$$

     RDKit          2D

 32 35  0  0  0  0  0  0  0  0999 V2000
   -5.1175  -23.9929    0.0000 C   0  0  0  0  0  0  0  0  0  0  0  0
   -5.1187  -24.8202    0.0000 C   0  0  0  0  0  0  0  0  0  0  0  0
   -4.4039  -25.2329    0.0000 C   0  0  0  0  0  0  0  0  0  0  0  0
   -4.4057  -23.5801    0.0000 C   0  0  0  0  0  0  0  0  0  0  0  0
   -3.6904  -23.9893    0.0000 C   0  0  0  0  0  0  0  0  0  0  0  0
   -3.6869  -24.8222    0.0000 C   0  0  0  0  0  0  0  0  0  0  0  0
   -2.9679  -25.2334    0.0000 C   0  0  0  0  0  0  0  0  0  0  0  0
   -2.2476  -24.8163    0.0000 N   0  0  0  0  0  0  0  0  0  0  0  0
   -2.2510  -23.9834    0.0000 C   0  0  0  0  0  0  0  0  0  0  0  0
   -2.9747  -23.5675    0.0000 C   0  0  0  0  0  0  0  0  0  0  0  0
   -1.5321  -25.2268    0.0000 C   0  0  0  0  0  0  0  0  0  0  0  0
   -0.8188  -24.8124    0.0000 C   0  0  0  0  0  0  0  0  0  0  0  0
   -0.1033  -25.2229    0.0000 C   0  0  0  0  0  0  0  0  0  0  0  0
   -0.1047  -26.0479    0.0000 C   0  0  0  0  0  0  0  0  0  0  0  0
    0.6100  -26.4584    0.0000 C   0  0  0  0  0  0  0  0  0  0  0  0
    1.3242  -26.0439    0.0000 C   0  0  0  0  0  0  0  0  0  0  0  0
    1.3193  -25.2147    0.0000 C   0  0  0  0  0  0  0  0  0  0  0  0
    0.6040  -24.8081    0.0000 C   0  0  0  0  0  0  0  0  0  0  0  0
    2.0402  -26.4535    0.0000 N   0  0  0  0  0  0  0  0  0  0  0  0
    2.7530  -26.0381    0.0000 C   0  0  0  0  0  0  0  0  0  0  0  0
    2.7497  -25.2132    0.0000 O   0  0  0  0  0  0  0  0  0  0  0  0
    3.4691  -26.4477    0.0000 C   0  0  0  0  0  0  0  0  0  0  0  0
    3.4710  -27.2728    0.0000 C   0  0  0  0  0  0  0  0  0  0  0  0
    4.1862  -27.6822    0.0000 C   0  0  0  0  0  0  0  0  0  0  0  0
    4.8999  -27.2669    0.0000 C   0  0  0  0  0  0  0  0  0  0  0  0
    4.8939  -26.4377    0.0000 C   0  0  0  0  0  0  0  0  0  0  0  0
    4.1781  -26.0319    0.0000 C   0  0  0  0  0  0  0  0  0  0  0  0
    2.7579  -27.6873    0.0000 N   0  0  0  0  0  0  0  0  0  0  0  0
   -5.8320  -23.5806    0.0000 O   0  0  0  0  0  0  0  0  0  0  0  0
   -6.5462  -23.9932    0.0000 C   0  0  0  0  0  0  0  0  0  0  0  0
   -5.8334  -25.2320    0.0000 O   0  0  0  0  0  0  0  0  0  0  0  0
   -6.5474  -24.8190    0.0000 C   0  0  0  0  0  0  0  0  0  0  0  0
  5  4  1  0
 15 16  2  0
  4  1  2  0
 16 17  1  0
  5 10  1  0
 17 18  2  0
 18 13  1  0
  6  7  1  0
 16 19  1  0
  7  8  1  0
 19 20  1  0
  8  9  1  0
 20 21  2  0
  9 10  1  0
 20 22  1  0
  5  6  2  0
 22 23  2  0
  8 11  1  0
 23 24  1  0
 24 25  2  0
 11 12  1  0
 25 26  1  0
  2  3  2  0
 26 27  2  0
 27 22  1  0
 12 13  1  0
 23 28  1  0
  3  6  1  0
  1 29  1  0
 13 14  2  0
 29 30  1  0
  1  2  1  0
  2 31  1  0
 14 15  1  0
 31 32  1  0
M  END
>  <Classification>  (36) 
0

>  <pchembl>  (36) 
4.07

>  <InChI_steorem>  (36) 
InChI=1S/C26H29N3O3/c1-31-24-15-19-12-14-29(17-20(19)16-25(24)32-2)13-11-18-7-9-21(10-8-18)28-26(30)22-5-3-4-6-23(22)27/h3-10,15-16H,11-14,17,27H2,1-2H3,(H,28,30)

>  <source>  (36) 
ChEMBL25

>  <source_id>  (36) 
25

>  <optional_reference>  (36) 
10.1016/j.bmc.2008.07.034

>  <optional_origin>  (36) 
None

>  <target>  (36) 
BCRP

$$$$

     RDKit          2D

 32 35  0  0  0  0  0  0  0  0999 V2000
    8.6808  -24.4470    0.0000 C   0  0  0  0  0  0  0  0  0  0  0  0
    8.6796  -25.2742    0.0000 C   0  0  0  0  0  0  0  0  0  0  0  0
    9.3944  -25.6870    0.0000 C   0  0  0  0  0  0  0  0  0  0  0  0
    9.3926  -24.0343    0.0000 C   0  0  0  0  0  0  0  0  0  0  0  0
   10.1079  -24.4433    0.0000 C   0  0  0  0  0  0  0  0  0  0  0  0
   10.1114  -25.2763    0.0000 C   0  0  0  0  0  0  0  0  0  0  0  0
   10.8304  -25.6875    0.0000 C   0  0  0  0  0  0  0  0  0  0  0  0
   11.5507  -25.2704    0.0000 N   0  0  0  0  0  0  0  0  0  0  0  0
   11.5473  -24.4374    0.0000 C   0  0  0  0  0  0  0  0  0  0  0  0
   10.8236  -24.0216    0.0000 C   0  0  0  0  0  0  0  0  0  0  0  0
   12.2662  -25.6810    0.0000 C   0  0  0  0  0  0  0  0  0  0  0  0
   12.9795  -25.2665    0.0000 C   0  0  0  0  0  0  0  0  0  0  0  0
   13.6950  -25.6771    0.0000 C   0  0  0  0  0  0  0  0  0  0  0  0
   13.6936  -26.5020    0.0000 C   0  0  0  0  0  0  0  0  0  0  0  0
   14.4083  -26.9124    0.0000 C   0  0  0  0  0  0  0  0  0  0  0  0
   15.1225  -26.4979    0.0000 C   0  0  0  0  0  0  0  0  0  0  0  0
   15.1176  -25.6689    0.0000 C   0  0  0  0  0  0  0  0  0  0  0  0
   14.4023  -25.2621    0.0000 C   0  0  0  0  0  0  0  0  0  0  0  0
   15.8386  -26.9075    0.0000 N   0  0  0  0  0  0  0  0  0  0  0  0
   16.5513  -26.4922    0.0000 C   0  0  0  0  0  0  0  0  0  0  0  0
   16.5480  -25.6673    0.0000 O   0  0  0  0  0  0  0  0  0  0  0  0
   17.2674  -26.9017    0.0000 C   0  0  0  0  0  0  0  0  0  0  0  0
   17.2693  -27.7268    0.0000 C   0  0  0  0  0  0  0  0  0  0  0  0
   17.9845  -28.1363    0.0000 C   0  0  0  0  0  0  0  0  0  0  0  0
   18.6982  -27.7209    0.0000 C   0  0  0  0  0  0  0  0  0  0  0  0
   18.6922  -26.8918    0.0000 C   0  0  0  0  0  0  0  0  0  0  0  0
   17.9764  -26.4861    0.0000 C   0  0  0  0  0  0  0  0  0  0  0  0
    7.9663  -24.0347    0.0000 O   0  0  0  0  0  0  0  0  0  0  0  0
    7.2545  -24.4473    0.0000 C   0  0  0  0  0  0  0  0  0  0  0  0
    7.9649  -25.6861    0.0000 O   0  0  0  0  0  0  0  0  0  0  0  0
    7.2556  -25.2731    0.0000 C   0  0  0  0  0  0  0  0  0  0  0  0
   19.4148  -28.1295    0.0000 N   0  0  0  0  0  0  0  0  0  0  0  0
  5  4  1  0
 15 16  2  0
  4  1  2  0
 16 17  1  0
  5 10  1  0
 17 18  2  0
 18 13  1  0
  6  7  1  0
 16 19  1  0
  7  8  1  0
 19 20  1  0
  8  9  1  0
 20 21  2  0
  9 10  1  0
 20 22  1  0
  5  6  2  0
 22 23  2  0
  8 11  1  0
 23 24  1  0
 24 25  2  0
 11 12  1  0
 25 26  1  0
  2  3  2  0
 26 27  2  0
 27 22  1  0
 12 13  1  0
  1 28  1  0
  3  6  1  0
 28 29  1  0
 13 14  2  0
  2 30  1  0
  1  2  1  0
 30 31  1  0
 14 15  1  0
 25 32  1  0
M  END
>  <Classification>  (37) 
0

>  <pchembl>  (37) 
4.01

>  <InChI_steorem>  (37) 
InChI=1S/C26H29N3O3/c1-31-24-15-20-12-14-29(17-21(20)16-25(24)32-2)13-11-18-3-9-23(10-4-18)28-26(30)19-5-7-22(27)8-6-19/h3-10,15-16H,11-14,17,27H2,1-2H3,(H,28,30)

>  <source>  (37) 
ChEMBL25

>  <source_id>  (37) 
25

>  <optional_reference>  (37) 
10.1016/j.bmcl.2009.11.004

>  <optional_origin>  (37) 
None

>  <target>  (37) 
BCRP

$$$$

     RDKit          2D

 33 36  0  0  0  0  0  0  0  0999 V2000
   -4.8889   -6.9208    0.0000 C   0  0  0  0  0  0  0  0  0  0  0  0
   -4.8901   -7.7482    0.0000 C   0  0  0  0  0  0  0  0  0  0  0  0
   -4.1753   -8.1610    0.0000 C   0  0  0  0  0  0  0  0  0  0  0  0
   -4.1771   -6.5080    0.0000 C   0  0  0  0  0  0  0  0  0  0  0  0
   -3.4617   -6.9172    0.0000 C   0  0  0  0  0  0  0  0  0  0  0  0
   -3.4583   -7.7502    0.0000 C   0  0  0  0  0  0  0  0  0  0  0  0
   -2.7391   -8.1615    0.0000 C   0  0  0  0  0  0  0  0  0  0  0  0
   -2.0187   -7.7443    0.0000 N   0  0  0  0  0  0  0  0  0  0  0  0
   -2.0221   -6.9113    0.0000 C   0  0  0  0  0  0  0  0  0  0  0  0
   -2.7459   -6.4954    0.0000 C   0  0  0  0  0  0  0  0  0  0  0  0
   -1.3031   -8.1549    0.0000 C   0  0  0  0  0  0  0  0  0  0  0  0
   -0.5898   -7.7404    0.0000 C   0  0  0  0  0  0  0  0  0  0  0  0
    0.1258   -8.1510    0.0000 C   0  0  0  0  0  0  0  0  0  0  0  0
    0.1245   -8.9761    0.0000 C   0  0  0  0  0  0  0  0  0  0  0  0
    0.8392   -9.3866    0.0000 C   0  0  0  0  0  0  0  0  0  0  0  0
    1.5536   -8.9721    0.0000 C   0  0  0  0  0  0  0  0  0  0  0  0
    1.5486   -8.1428    0.0000 C   0  0  0  0  0  0  0  0  0  0  0  0
    0.8333   -7.7361    0.0000 C   0  0  0  0  0  0  0  0  0  0  0  0
    2.2697   -9.3817    0.0000 N   0  0  0  0  0  0  0  0  0  0  0  0
    2.9825   -8.9663    0.0000 C   0  0  0  0  0  0  0  0  0  0  0  0
    3.6986   -9.3759    0.0000 N   0  0  0  0  0  0  0  0  0  0  0  0
    2.9791   -8.1413    0.0000 O   0  0  0  0  0  0  0  0  0  0  0  0
    4.4114   -8.9605    0.0000 C   0  0  0  0  0  0  0  0  0  0  0  0
    5.1258   -9.3710    0.0000 C   0  0  0  0  0  0  0  0  0  0  0  0
    5.8381   -8.9563    0.0000 C   0  0  0  0  0  0  0  0  0  0  0  0
    5.8352   -8.1304    0.0000 C   0  0  0  0  0  0  0  0  0  0  0  0
    5.1140   -7.7210    0.0000 C   0  0  0  0  0  0  0  0  0  0  0  0
    4.4047   -8.1381    0.0000 C   0  0  0  0  0  0  0  0  0  0  0  0
    5.1281  -10.1960    0.0000 N   0  0  0  0  0  0  0  0  0  0  0  0
   -5.6035   -6.5085    0.0000 O   0  0  0  0  0  0  0  0  0  0  0  0
   -6.3179   -6.9211    0.0000 C   0  0  0  0  0  0  0  0  0  0  0  0
   -5.6049   -8.1601    0.0000 O   0  0  0  0  0  0  0  0  0  0  0  0
   -6.3190   -7.7470    0.0000 C   0  0  0  0  0  0  0  0  0  0  0  0
 15 16  2  0
  4  1  2  0
 16 17  1  0
  5 10  1  0
 17 18  2  0
 18 13  1  0
  6  7  1  0
 16 19  1  0
  7  8  1  0
 19 20  1  0
  8  9  1  0
 20 21  1  0
  9 10  1  0
 20 22  2  0
  5  6  2  0
 21 23  1  0
  8 11  1  0
 23 24  2  0
 24 25  1  0
 11 12  1  0
 25 26  2  0
  2  3  2  0
 26 27  1  0
 12 13  1  0
 27 28  2  0
 28 23  1  0
  3  6  1  0
 24 29  1  0
 13 14  2  0
  1 30  1  0
  1  2  1  0
 30 31  1  0
 14 15  1  0
  2 32  1  0
  5  4  1  0
 32 33  1  0
M  END
>  <Classification>  (38) 
0

>  <pchembl>  (38) 
4.18

>  <InChI_steorem>  (38) 
InChI=1S/C26H30N4O3/c1-32-24-15-19-12-14-30(17-20(19)16-25(24)33-2)13-11-18-7-9-21(10-8-18)28-26(31)29-23-6-4-3-5-22(23)27/h3-10,15-16H,11-14,17,27H2,1-2H3,(H2,28,29,31)

>  <source>  (38) 
ChEMBL25

>  <source_id>  (38) 
25

>  <optional_reference>  (38) 
10.1016/j.bmcl.2009.11.004

>  <optional_origin>  (38) 
None

>  <target>  (38) 
BCRP

$$$$

     RDKit          2D

 33 36  0  0  0  0  0  0  0  0999 V2000
    9.5527   -8.1291    0.0000 C   0  0  0  0  0  0  0  0  0  0  0  0
    9.5516   -8.9565    0.0000 C   0  0  0  0  0  0  0  0  0  0  0  0
   10.2664   -9.3694    0.0000 C   0  0  0  0  0  0  0  0  0  0  0  0
   10.2646   -7.7164    0.0000 C   0  0  0  0  0  0  0  0  0  0  0  0
   10.9800   -8.1255    0.0000 C   0  0  0  0  0  0  0  0  0  0  0  0
   10.9834   -8.9586    0.0000 C   0  0  0  0  0  0  0  0  0  0  0  0
   11.7026   -9.3699    0.0000 C   0  0  0  0  0  0  0  0  0  0  0  0
   12.4230   -8.9527    0.0000 N   0  0  0  0  0  0  0  0  0  0  0  0
   12.4195   -8.1196    0.0000 C   0  0  0  0  0  0  0  0  0  0  0  0
   11.6957   -7.7037    0.0000 C   0  0  0  0  0  0  0  0  0  0  0  0
   13.1386   -9.3632    0.0000 C   0  0  0  0  0  0  0  0  0  0  0  0
   13.8519   -8.9488    0.0000 C   0  0  0  0  0  0  0  0  0  0  0  0
   14.5675   -9.3593    0.0000 C   0  0  0  0  0  0  0  0  0  0  0  0
   14.5661  -10.1844    0.0000 C   0  0  0  0  0  0  0  0  0  0  0  0
   15.2809  -10.5949    0.0000 C   0  0  0  0  0  0  0  0  0  0  0  0
   15.9952  -10.1804    0.0000 C   0  0  0  0  0  0  0  0  0  0  0  0
   15.9903   -9.3511    0.0000 C   0  0  0  0  0  0  0  0  0  0  0  0
   15.2750   -8.9444    0.0000 C   0  0  0  0  0  0  0  0  0  0  0  0
   16.7114  -10.5900    0.0000 N   0  0  0  0  0  0  0  0  0  0  0  0
   17.4241  -10.1746    0.0000 C   0  0  0  0  0  0  0  0  0  0  0  0
   18.1403  -10.5842    0.0000 N   0  0  0  0  0  0  0  0  0  0  0  0
   17.4208   -9.3496    0.0000 O   0  0  0  0  0  0  0  0  0  0  0  0
   18.8531  -10.1688    0.0000 C   0  0  0  0  0  0  0  0  0  0  0  0
   19.5674  -10.5794    0.0000 C   0  0  0  0  0  0  0  0  0  0  0  0
   20.2798  -10.1647    0.0000 C   0  0  0  0  0  0  0  0  0  0  0  0
   20.2769   -9.3388    0.0000 C   0  0  0  0  0  0  0  0  0  0  0  0
   19.5557   -8.9294    0.0000 C   0  0  0  0  0  0  0  0  0  0  0  0
   18.8463   -9.3464    0.0000 C   0  0  0  0  0  0  0  0  0  0  0  0
    8.8382   -7.7168    0.0000 O   0  0  0  0  0  0  0  0  0  0  0  0
    8.1238   -8.1295    0.0000 C   0  0  0  0  0  0  0  0  0  0  0  0
    8.8368   -9.3684    0.0000 O   0  0  0  0  0  0  0  0  0  0  0  0
    8.1226   -8.9554    0.0000 C   0  0  0  0  0  0  0  0  0  0  0  0
   20.9891   -8.9224    0.0000 N   0  0  0  0  0  0  0  0  0  0  0  0
 15 16  2  0
  4  1  2  0
 16 17  1  0
  5 10  1  0
 17 18  2  0
 18 13  1  0
  6  7  1  0
 16 19  1  0
  7  8  1  0
 19 20  1  0
  8  9  1  0
 20 21  1  0
  9 10  1  0
 20 22  2  0
  5  6  2  0
 21 23  1  0
  8 11  1  0
 23 24  2  0
 24 25  1  0
 11 12  1  0
 25 26  2  0
  2  3  2  0
 26 27  1  0
 12 13  1  0
 27 28  2  0
 28 23  1  0
  3  6  1  0
  1 29  1  0
 13 14  2  0
 29 30  1  0
  1  2  1  0
  2 31  1  0
 14 15  1  0
 31 32  1  0
  5  4  1  0
 26 33  1  0
M  END
>  <Classification>  (39) 
0

>  <pchembl>  (39) 
4.13

>  <InChI_steorem>  (39) 
InChI=1S/C26H30N4O3/c1-32-24-15-19-12-14-30(17-20(19)16-25(24)33-2)13-11-18-3-7-22(8-4-18)28-26(31)29-23-9-5-21(27)6-10-23/h3-10,15-16H,11-14,17,27H2,1-2H3,(H2,28,29,31)

>  <source>  (39) 
ChEMBL25

>  <source_id>  (39) 
25

>  <optional_reference>  (39) 
10.1016/j.bmcl.2009.11.004

>  <optional_origin>  (39) 
None

>  <target>  (39) 
BCRP

$$$$

     RDKit          2D

 34 37  0  0  0  0  0  0  0  0999 V2000
   -4.7133  -17.3020    0.0000 C   0  0  0  0  0  0  0  0  0  0  0  0
   -4.7145  -18.1293    0.0000 C   0  0  0  0  0  0  0  0  0  0  0  0
   -3.9998  -18.5421    0.0000 C   0  0  0  0  0  0  0  0  0  0  0  0
   -4.0016  -16.8893    0.0000 C   0  0  0  0  0  0  0  0  0  0  0  0
   -3.2863  -17.2984    0.0000 C   0  0  0  0  0  0  0  0  0  0  0  0
   -3.2829  -18.1314    0.0000 C   0  0  0  0  0  0  0  0  0  0  0  0
   -2.5638  -18.5426    0.0000 C   0  0  0  0  0  0  0  0  0  0  0  0
   -1.8435  -18.1255    0.0000 N   0  0  0  0  0  0  0  0  0  0  0  0
   -1.8469  -17.2925    0.0000 C   0  0  0  0  0  0  0  0  0  0  0  0
   -2.5706  -16.8766    0.0000 C   0  0  0  0  0  0  0  0  0  0  0  0
   -1.1280  -18.5359    0.0000 C   0  0  0  0  0  0  0  0  0  0  0  0
   -0.4147  -18.1216    0.0000 C   0  0  0  0  0  0  0  0  0  0  0  0
    0.3008  -18.5320    0.0000 C   0  0  0  0  0  0  0  0  0  0  0  0
    0.2995  -19.3570    0.0000 C   0  0  0  0  0  0  0  0  0  0  0  0
    1.0141  -19.7675    0.0000 C   0  0  0  0  0  0  0  0  0  0  0  0
    1.7284  -19.3530    0.0000 C   0  0  0  0  0  0  0  0  0  0  0  0
    1.7234  -18.5238    0.0000 C   0  0  0  0  0  0  0  0  0  0  0  0
    1.0082  -18.1172    0.0000 C   0  0  0  0  0  0  0  0  0  0  0  0
    2.4444  -19.7626    0.0000 N   0  0  0  0  0  0  0  0  0  0  0  0
    3.1571  -19.3472    0.0000 C   0  0  0  0  0  0  0  0  0  0  0  0
    3.1537  -18.5223    0.0000 O   0  0  0  0  0  0  0  0  0  0  0  0
    3.8731  -19.7568    0.0000 C   0  0  0  0  0  0  0  0  0  0  0  0
    3.8751  -20.5819    0.0000 C   0  0  0  0  0  0  0  0  0  0  0  0
    4.5903  -20.9913    0.0000 C   0  0  0  0  0  0  0  0  0  0  0  0
    5.3040  -20.5760    0.0000 C   0  0  0  0  0  0  0  0  0  0  0  0
    5.2980  -19.7468    0.0000 C   0  0  0  0  0  0  0  0  0  0  0  0
    4.5822  -19.3410    0.0000 C   0  0  0  0  0  0  0  0  0  0  0  0
   -5.4278  -16.8897    0.0000 O   0  0  0  0  0  0  0  0  0  0  0  0
   -6.1480  -17.3024    0.0000 C   0  0  0  0  0  0  0  0  0  0  0  0
   -5.4292  -18.5411    0.0000 O   0  0  0  0  0  0  0  0  0  0  0  0
   -6.1468  -18.1282    0.0000 C   0  0  0  0  0  0  0  0  0  0  0  0
    6.0232  -20.9879    0.0000 N   0  0  0  0  0  0  0  0  0  0  0  0
    6.7354  -20.5716    0.0000 O   0  0  0  0  0  0  0  0  0  0  0  0
    6.0276  -21.8127    0.0000 O   0  0  0  0  0  0  0  0  0  0  0  0
  4  1  2  0
 16 17  1  0
  5 10  1  0
 17 18  2  0
 18 13  1  0
  6  7  1  0
 16 19  1  0
  7  8  1  0
 19 20  1  0
  8  9  1  0
 20 21  2  0
  9 10  1  0
 20 22  1  0
  5  6  2  0
 22 23  2  0
  8 11  1  0
 23 24  1  0
 24 25  2  0
 11 12  1  0
 25 26  1  0
  2  3  2  0
 26 27  2  0
 27 22  1  0
 12 13  1  0
  1 28  1  0
  3  6  1  0
 28 29  1  0
 13 14  2  0
  2 30  1  0
  1  2  1  0
 30 31  1  0
 14 15  1  0
  5  4  1  0
 15 16  2  0
 32 33  2  0
 32 34  1  0
 25 32  1  0
M  CHG  2  32   1  34  -1
M  END
>  <Classification>  (40) 
1

>  <pchembl>  (40) 
5.12

>  <InChI_steorem>  (40) 
InChI=1S/C26H27N3O5/c1-33-24-15-20-12-14-28(17-21(20)16-25(24)34-2)13-11-18-3-7-22(8-4-18)27-26(30)19-5-9-23(10-6-19)29(31)32/h3-10,15-16H,11-14,17H2,1-2H3,(H,27,30)

>  <source>  (40) 
ChEMBL25

>  <source_id>  (40) 
25

>  <optional_reference>  (40) 
10.1016/j.bmc.2008.07.034

>  <optional_origin>  (40) 
None

>  <target>  (40) 
BCRP

$$$$

     RDKit          2D

 34 37  0  0  0  0  0  0  0  0999 V2000
    9.5932  -12.8567    0.0000 C   0  0  0  0  0  0  0  0  0  0  0  0
    9.5920  -13.6840    0.0000 C   0  0  0  0  0  0  0  0  0  0  0  0
   10.3068  -14.0968    0.0000 C   0  0  0  0  0  0  0  0  0  0  0  0
   10.3050  -12.4440    0.0000 C   0  0  0  0  0  0  0  0  0  0  0  0
   11.0202  -12.8531    0.0000 C   0  0  0  0  0  0  0  0  0  0  0  0
   11.0237  -13.6860    0.0000 C   0  0  0  0  0  0  0  0  0  0  0  0
   11.7428  -14.0973    0.0000 C   0  0  0  0  0  0  0  0  0  0  0  0
   12.4631  -13.6801    0.0000 N   0  0  0  0  0  0  0  0  0  0  0  0
   12.4597  -12.8472    0.0000 C   0  0  0  0  0  0  0  0  0  0  0  0
   11.7360  -12.4314    0.0000 C   0  0  0  0  0  0  0  0  0  0  0  0
   13.1786  -14.0907    0.0000 C   0  0  0  0  0  0  0  0  0  0  0  0
   13.8919  -13.6762    0.0000 C   0  0  0  0  0  0  0  0  0  0  0  0
   14.6074  -14.0868    0.0000 C   0  0  0  0  0  0  0  0  0  0  0  0
   14.6060  -14.9118    0.0000 C   0  0  0  0  0  0  0  0  0  0  0  0
   15.3207  -15.3222    0.0000 C   0  0  0  0  0  0  0  0  0  0  0  0
   16.0349  -14.9078    0.0000 C   0  0  0  0  0  0  0  0  0  0  0  0
   16.0300  -14.0786    0.0000 C   0  0  0  0  0  0  0  0  0  0  0  0
   15.3147  -13.6719    0.0000 C   0  0  0  0  0  0  0  0  0  0  0  0
   16.7509  -15.3173    0.0000 N   0  0  0  0  0  0  0  0  0  0  0  0
   17.4637  -14.9020    0.0000 C   0  0  0  0  0  0  0  0  0  0  0  0
   17.4604  -14.0771    0.0000 O   0  0  0  0  0  0  0  0  0  0  0  0
   18.1798  -15.3115    0.0000 C   0  0  0  0  0  0  0  0  0  0  0  0
   18.1817  -16.1366    0.0000 C   0  0  0  0  0  0  0  0  0  0  0  0
   18.8969  -16.5461    0.0000 C   0  0  0  0  0  0  0  0  0  0  0  0
   19.6106  -16.1307    0.0000 C   0  0  0  0  0  0  0  0  0  0  0  0
   19.6046  -15.3015    0.0000 C   0  0  0  0  0  0  0  0  0  0  0  0
   18.8888  -14.8958    0.0000 C   0  0  0  0  0  0  0  0  0  0  0  0
    8.8787  -12.4445    0.0000 O   0  0  0  0  0  0  0  0  0  0  0  0
    8.1645  -12.8570    0.0000 C   0  0  0  0  0  0  0  0  0  0  0  0
    8.8773  -14.0959    0.0000 O   0  0  0  0  0  0  0  0  0  0  0  0
    8.1633  -13.6828    0.0000 C   0  0  0  0  0  0  0  0  0  0  0  0
   17.4651  -16.5556    0.0000 N   0  0  0  0  0  0  0  0  0  0  0  0
   17.4675  -17.3805    0.0000 O   0  0  0  0  0  0  0  0  0  0  0  0
   16.7494  -16.1453    0.0000 O   0  0  0  0  0  0  0  0  0  0  0  0
  4  1  2  0
 16 17  1  0
  5 10  1  0
 17 18  2  0
 18 13  1  0
  6  7  1  0
 16 19  1  0
  7  8  1  0
 19 20  1  0
  8  9  1  0
 20 21  2  0
  9 10  1  0
 20 22  1  0
  5  6  2  0
 22 23  2  0
  8 11  1  0
 23 24  1  0
 24 25  2  0
 11 12  1  0
 25 26  1  0
  2  3  2  0
 26 27  2  0
 27 22  1  0
 12 13  1  0
  1 28  1  0
  3  6  1  0
 28 29  1  0
 13 14  2  0
  2 30  1  0
  1  2  1  0
 30 31  1  0
 14 15  1  0
  5  4  1  0
 15 16  2  0
 32 33  2  0
 32 34  1  0
 23 32  1  0
M  CHG  2  32   1  34  -1
M  END
>  <Classification>  (41) 
0

>  <pchembl>  (41) 
4.11

>  <InChI_steorem>  (41) 
InChI=1S/C26H27N3O5/c1-33-24-15-19-12-14-28(17-20(19)16-25(24)34-2)13-11-18-7-9-21(10-8-18)27-26(30)22-5-3-4-6-23(22)29(31)32/h3-10,15-16H,11-14,17H2,1-2H3,(H,27,30)

>  <source>  (41) 
ChEMBL25

>  <source_id>  (41) 
25

>  <optional_reference>  (41) 
10.1016/j.bmcl.2009.11.004

>  <optional_origin>  (41) 
None

>  <target>  (41) 
BCRP

$$$$

     RDKit          2D

 35 38  0  0  0  0  0  0  0  0999 V2000
   -5.3341   -2.1288    0.0000 C   0  0  0  0  0  0  0  0  0  0  0  0
   -5.3352   -2.9561    0.0000 C   0  0  0  0  0  0  0  0  0  0  0  0
   -4.6205   -3.3690    0.0000 C   0  0  0  0  0  0  0  0  0  0  0  0
   -4.6223   -1.7162    0.0000 C   0  0  0  0  0  0  0  0  0  0  0  0
   -3.9070   -2.1252    0.0000 C   0  0  0  0  0  0  0  0  0  0  0  0
   -3.9036   -2.9582    0.0000 C   0  0  0  0  0  0  0  0  0  0  0  0
   -3.1845   -3.3695    0.0000 C   0  0  0  0  0  0  0  0  0  0  0  0
   -2.4642   -2.9523    0.0000 N   0  0  0  0  0  0  0  0  0  0  0  0
   -2.4677   -2.1193    0.0000 C   0  0  0  0  0  0  0  0  0  0  0  0
   -3.1914   -1.7035    0.0000 C   0  0  0  0  0  0  0  0  0  0  0  0
   -1.7487   -3.3628    0.0000 C   0  0  0  0  0  0  0  0  0  0  0  0
   -1.0355   -2.9484    0.0000 C   0  0  0  0  0  0  0  0  0  0  0  0
   -0.3200   -3.3589    0.0000 C   0  0  0  0  0  0  0  0  0  0  0  0
   -0.3214   -4.1839    0.0000 C   0  0  0  0  0  0  0  0  0  0  0  0
    0.3934   -4.5943    0.0000 C   0  0  0  0  0  0  0  0  0  0  0  0
    1.1076   -4.1799    0.0000 C   0  0  0  0  0  0  0  0  0  0  0  0
    1.1027   -3.3507    0.0000 C   0  0  0  0  0  0  0  0  0  0  0  0
    0.3875   -2.9440    0.0000 C   0  0  0  0  0  0  0  0  0  0  0  0
    1.8237   -4.5894    0.0000 N   0  0  0  0  0  0  0  0  0  0  0  0
    2.5363   -4.1741    0.0000 C   0  0  0  0  0  0  0  0  0  0  0  0
    3.2524   -4.5836    0.0000 N   0  0  0  0  0  0  0  0  0  0  0  0
    2.5330   -3.3492    0.0000 O   0  0  0  0  0  0  0  0  0  0  0  0
    3.9651   -4.1683    0.0000 C   0  0  0  0  0  0  0  0  0  0  0  0
    4.6793   -4.5788    0.0000 C   0  0  0  0  0  0  0  0  0  0  0  0
    5.3916   -4.1642    0.0000 C   0  0  0  0  0  0  0  0  0  0  0  0
    5.3887   -3.3384    0.0000 C   0  0  0  0  0  0  0  0  0  0  0  0
    4.6676   -2.9290    0.0000 C   0  0  0  0  0  0  0  0  0  0  0  0
    3.9583   -3.3460    0.0000 C   0  0  0  0  0  0  0  0  0  0  0  0
   -6.0500   -1.7166    0.0000 O   0  0  0  0  0  0  0  0  0  0  0  0
   -6.7688   -2.1292    0.0000 C   0  0  0  0  0  0  0  0  0  0  0  0
   -6.0569   -3.3680    0.0000 O   0  0  0  0  0  0  0  0  0  0  0  0
   -6.7677   -2.9550    0.0000 C   0  0  0  0  0  0  0  0  0  0  0  0
    6.1026   -2.9203    0.0000 N   0  0  0  0  0  0  0  0  0  0  0  0
    6.0982   -2.0954    0.0000 O   0  0  0  0  0  0  0  0  0  0  0  0
    6.8192   -3.3289    0.0000 O   0  0  0  0  0  0  0  0  0  0  0  0
 16 17  1  0
  5 10  1  0
 17 18  2  0
 18 13  1  0
  6  7  1  0
 16 19  1  0
  7  8  1  0
 19 20  1  0
  8  9  1  0
 20 21  1  0
  9 10  1  0
 20 22  2  0
  5  6  1  0
 21 23  1  0
  8 11  1  0
 23 24  2  0
 24 25  1  0
 11 12  1  0
 25 26  2  0
  2  3  1  0
 26 27  1  0
 12 13  1  0
 27 28  2  0
 28 23  1  0
  3  6  2  0
  1 29  1  0
 13 14  2  0
 29 30  1  0
  1  2  2  0
  2 31  1  0
 14 15  1  0
 31 32  1  0
  5  4  2  0
 15 16  2  0
  4  1  1  0
 33 34  2  0
 33 35  1  0
 26 33  1  0
M  CHG  2  33   1  35  -1
M  END
>  <Classification>  (42) 
1

>  <pchembl>  (42) 
5.41

>  <InChI_steorem>  (42) 
InChI=1S/C26H28N4O5/c1-34-24-15-19-12-14-29(17-20(19)16-25(24)35-2)13-11-18-3-5-21(6-4-18)27-26(31)28-22-7-9-23(10-8-22)30(32)33/h3-10,15-16H,11-14,17H2,1-2H3,(H2,27,28,31)

>  <source>  (42) 
ChEMBL25

>  <source_id>  (42) 
25

>  <optional_reference>  (42) 
10.1016/j.bmcl.2009.11.004

>  <optional_origin>  (42) 
None

>  <target>  (42) 
BCRP

$$$$

     RDKit          2D

 34 37  0  0  0  0  0  0  0  0999 V2000
    6.1929  -25.2691    0.0000 N   0  0  0  0  0  0  0  0  0  0  0  0
    5.4094  -25.5217    0.0000 C   0  0  0  0  0  0  0  0  0  0  0  0
    5.4094  -26.3455    0.0000 C   0  0  0  0  0  0  0  0  0  0  0  0
    6.1929  -26.6023    0.0000 C   0  0  0  0  0  0  0  0  0  0  0  0
    6.5259  -27.3515    0.0000 C   0  0  0  0  0  0  0  0  0  0  0  0
    7.3470  -27.4404    0.0000 C   0  0  0  0  0  0  0  0  0  0  0  0
    7.8311  -26.7716    0.0000 C   0  0  0  0  0  0  0  0  0  0  0  0
    7.4939  -26.0183    0.0000 C   0  0  0  0  0  0  0  0  0  0  0  0
    6.6770  -25.9336    0.0000 C   0  0  0  0  0  0  0  0  0  0  0  0
    4.6944  -25.1098    0.0000 C   0  0  0  0  0  0  0  0  0  0  0  0
    4.6944  -26.7575    0.0000 C   0  0  0  0  0  0  0  0  0  0  0  0
    3.9795  -26.3455    0.0000 C   0  0  0  0  0  0  0  0  0  0  0  0
    3.9795  -25.5217    0.0000 N   0  0  0  0  0  0  0  0  0  0  0  0
    3.2688  -26.7575    0.0000 C   0  0  0  0  0  0  0  0  0  0  0  0
    2.5540  -26.3455    0.0000 N   0  0  0  0  0  0  0  0  0  0  0  0
    2.5540  -25.5217    0.0000 C   0  0  0  0  0  0  0  0  0  0  0  0
    3.2688  -25.1098    0.0000 C   0  0  0  0  0  0  0  0  0  0  0  0
    0.4136  -25.1098    0.0000 C   0  0  0  0  0  0  0  0  0  0  0  0
    1.1284  -25.5217    0.0000 C   0  0  0  0  0  0  0  0  0  0  0  0
    1.8391  -25.1098    0.0000 C   0  0  0  0  0  0  0  0  0  0  0  0
    0.4136  -24.2859    0.0000 O   0  0  0  0  0  0  0  0  0  0  0  0
   -0.2971  -25.5217    0.0000 O   0  0  0  0  0  0  0  0  0  0  0  0
    3.2688  -24.2859    0.0000 O   0  0  0  0  0  0  0  0  0  0  0  0
    3.2688  -27.5813    0.0000 O   0  0  0  0  0  0  0  0  0  0  0  0
    4.6944  -24.2859    0.0000 C   0  0  0  0  0  0  0  0  0  0  0  0
    5.4094  -23.8740    0.0000 C   0  0  0  0  0  0  0  0  0  0  0  0
    5.4094  -23.0501    0.0000 C   0  0  0  0  0  0  0  0  0  0  0  0
    6.1242  -24.2859    0.0000 C   0  0  0  0  0  0  0  0  0  0  0  0
    8.6481  -26.8605    0.0000 O   0  0  0  0  0  0  0  0  0  0  0  0
    8.9852  -27.6140    0.0000 C   0  0  0  0  0  0  0  0  0  0  0  0
   -1.0120  -25.1098    0.0000 C   0  0  0  0  0  0  0  0  0  0  0  0
   -1.4239  -25.8247    0.0000 C   0  0  0  0  0  0  0  0  0  0  0  0
   -1.7269  -24.6978    0.0000 C   0  0  0  0  0  0  0  0  0  0  0  0
   -0.6001  -24.3991    0.0000 C   0  0  0  0  0  0  0  0  0  0  0  0
  1  2  1  0
  2  3  2  0
  3  4  1  0
  4  5  2  0
  5  6  1  0
  6  7  2  0
  7  8  1  0
  8  9  2  0
  1  9  1  0
  4  9  1  0
 11 12  1  0
 12 13  1  0
 10 13  1  0
 14 15  1  0
 15 16  1  0
 16 17  1  0
 13 17  1  0
 12 14  1  0
  2 10  1  0
  3 11  1  0
 18 19  1  0
 19 20  1  0
 18 21  2  0
 18 22  1  0
 16 20  1  0
 17 23  2  0
 14 24  2  0
 25 26  1  0
 26 27  1  0
 26 28  1  0
 10 25  1  0
 29 30  1  0
  7 29  1  0
 31 32  1  0
 31 33  1  0
 31 34  1  0
 22 31  1  0
M  END
>  <Classification>  (43) 
1

>  <pchembl>  (43) 
6.51

>  <InChI_steorem>  (43) 
InChI=1S/C26H35N3O5/c1-14(2)11-20-23-17(16-8-7-15(33-6)12-19(16)27-23)13-21-24(31)28-18(25(32)29(20)21)9-10-22(30)34-26(3,4)5/h7-8,12,14,18,20-21,27H,9-11,13H2,1-6H3,(H,28,31)

>  <source>  (43) 
ChEMBL25

>  <source_id>  (43) 
25

>  <optional_reference>  (43) 
10.1016/j.bmc.2008.07.034

>  <optional_origin>  (43) 
None

>  <target>  (43) 
BCRP

$$$$

     RDKit          2D

 35 38  0  0  0  0  0  0  0  0999 V2000
    9.1861    3.3875    0.0000 C   0  0  0  0  0  0  0  0  0  0  0  0
    9.1849    2.5602    0.0000 C   0  0  0  0  0  0  0  0  0  0  0  0
    9.8997    2.1473    0.0000 C   0  0  0  0  0  0  0  0  0  0  0  0
    9.8979    3.8003    0.0000 C   0  0  0  0  0  0  0  0  0  0  0  0
   10.6133    3.3912    0.0000 C   0  0  0  0  0  0  0  0  0  0  0  0
   10.6167    2.5581    0.0000 C   0  0  0  0  0  0  0  0  0  0  0  0
   11.3359    2.1468    0.0000 C   0  0  0  0  0  0  0  0  0  0  0  0
   12.0563    2.5640    0.0000 N   0  0  0  0  0  0  0  0  0  0  0  0
   12.0529    3.3971    0.0000 C   0  0  0  0  0  0  0  0  0  0  0  0
   11.3291    3.8130    0.0000 C   0  0  0  0  0  0  0  0  0  0  0  0
   12.7719    2.1534    0.0000 C   0  0  0  0  0  0  0  0  0  0  0  0
   13.4852    2.5679    0.0000 C   0  0  0  0  0  0  0  0  0  0  0  0
   14.2008    2.1573    0.0000 C   0  0  0  0  0  0  0  0  0  0  0  0
   14.1995    1.3322    0.0000 C   0  0  0  0  0  0  0  0  0  0  0  0
   14.9142    0.9218    0.0000 C   0  0  0  0  0  0  0  0  0  0  0  0
   15.6286    1.3363    0.0000 C   0  0  0  0  0  0  0  0  0  0  0  0
   15.6236    2.1655    0.0000 C   0  0  0  0  0  0  0  0  0  0  0  0
   14.9083    2.5723    0.0000 C   0  0  0  0  0  0  0  0  0  0  0  0
   16.3447    0.9267    0.0000 N   0  0  0  0  0  0  0  0  0  0  0  0
   17.0575    1.3421    0.0000 C   0  0  0  0  0  0  0  0  0  0  0  0
   17.7736    0.9325    0.0000 N   0  0  0  0  0  0  0  0  0  0  0  0
   17.0541    2.1671    0.0000 O   0  0  0  0  0  0  0  0  0  0  0  0
   18.4864    1.3479    0.0000 C   0  0  0  0  0  0  0  0  0  0  0  0
   19.2008    0.9373    0.0000 C   0  0  0  0  0  0  0  0  0  0  0  0
   19.9131    1.3520    0.0000 C   0  0  0  0  0  0  0  0  0  0  0  0
   19.9102    2.1779    0.0000 C   0  0  0  0  0  0  0  0  0  0  0  0
   19.1890    2.5873    0.0000 C   0  0  0  0  0  0  0  0  0  0  0  0
   18.4797    2.1702    0.0000 C   0  0  0  0  0  0  0  0  0  0  0  0
   19.2060    0.1105    0.0000 N   0  0  0  0  0  0  0  0  0  0  0  0
   19.9216   -0.3000    0.0000 O   0  0  0  0  0  0  0  0  0  0  0  0
   18.4927   -0.3040    0.0000 O   0  0  0  0  0  0  0  0  0  0  0  0
    8.4715    3.7999    0.0000 O   0  0  0  0  0  0  0  0  0  0  0  0
    7.7571    3.3872    0.0000 C   0  0  0  0  0  0  0  0  0  0  0  0
    8.4701    2.1482    0.0000 O   0  0  0  0  0  0  0  0  0  0  0  0
    7.7560    2.5613    0.0000 C   0  0  0  0  0  0  0  0  0  0  0  0
 16 17  1  0
  5 10  1  0
 17 18  2  0
 18 13  1  0
  6  7  1  0
 16 19  1  0
  7  8  1  0
 19 20  1  0
  8  9  1  0
 20 21  1  0
  9 10  1  0
 20 22  2  0
  5  6  1  0
 21 23  1  0
  8 11  1  0
 23 24  2  0
 24 25  1  0
 11 12  1  0
 25 26  2  0
  2  3  1  0
 26 27  1  0
 12 13  1  0
 27 28  2  0
 28 23  1  0
  3  6  2  0
 13 14  2  0
  1  2  2  0
 29 30  2  0
 29 31  1  0
 24 29  1  0
 14 15  1  0
  1 32  1  0
  5  4  2  0
 32 33  1  0
 15 16  2  0
  2 34  1  0
  4  1  1  0
 34 35  1  0
M  CHG  2  29   1  31  -1
M  END
>  <Classification>  (44) 
0

>  <pchembl>  (44) 
4.99

>  <InChI_steorem>  (44) 
InChI=1S/C26H28N4O5/c1-34-24-15-19-12-14-29(17-20(19)16-25(24)35-2)13-11-18-7-9-21(10-8-18)27-26(31)28-22-5-3-4-6-23(22)30(32)33/h3-10,15-16H,11-14,17H2,1-2H3,(H2,27,28,31)

>  <source>  (44) 
ChEMBL25

>  <source_id>  (44) 
25

>  <optional_reference>  (44) 
10.1016/j.bmcl.2009.11.004

>  <optional_origin>  (44) 
None

>  <target>  (44) 
BCRP

$$$$

     RDKit          2D

 43 47  0  0  0  0  0  0  0  0999 V2000
   -5.3178   -2.7081    0.0000 C   0  0  0  0  0  0  0  0  0  0  0  0
   -5.3190   -3.5355    0.0000 C   0  0  0  0  0  0  0  0  0  0  0  0
   -4.6041   -3.9482    0.0000 C   0  0  0  0  0  0  0  0  0  0  0  0
   -4.6059   -2.2954    0.0000 C   0  0  0  0  0  0  0  0  0  0  0  0
   -3.8906   -2.7045    0.0000 C   0  0  0  0  0  0  0  0  0  0  0  0
   -3.8871   -3.5375    0.0000 C   0  0  0  0  0  0  0  0  0  0  0  0
   -3.1681   -3.9487    0.0000 C   0  0  0  0  0  0  0  0  0  0  0  0
   -2.4477   -3.5316    0.0000 N   0  0  0  0  0  0  0  0  0  0  0  0
   -2.4511   -2.6986    0.0000 C   0  0  0  0  0  0  0  0  0  0  0  0
   -3.1749   -2.2828    0.0000 C   0  0  0  0  0  0  0  0  0  0  0  0
   -1.7322   -3.9421    0.0000 C   0  0  0  0  0  0  0  0  0  0  0  0
   -1.0188   -3.5277    0.0000 C   0  0  0  0  0  0  0  0  0  0  0  0
   -0.3033   -3.9382    0.0000 C   0  0  0  0  0  0  0  0  0  0  0  0
   -0.3047   -4.7633    0.0000 C   0  0  0  0  0  0  0  0  0  0  0  0
    0.4101   -5.1738    0.0000 C   0  0  0  0  0  0  0  0  0  0  0  0
    1.1243   -4.7593    0.0000 C   0  0  0  0  0  0  0  0  0  0  0  0
    1.1194   -3.9300    0.0000 C   0  0  0  0  0  0  0  0  0  0  0  0
    0.4041   -3.5234    0.0000 C   0  0  0  0  0  0  0  0  0  0  0  0
    1.8404   -5.1689    0.0000 N   0  0  0  0  0  0  0  0  0  0  0  0
    2.5531   -4.7535    0.0000 C   0  0  0  0  0  0  0  0  0  0  0  0
    2.5498   -3.9285    0.0000 O   0  0  0  0  0  0  0  0  0  0  0  0
   -6.0336   -2.2959    0.0000 O   0  0  0  0  0  0  0  0  0  0  0  0
   -6.7526   -2.7084    0.0000 C   0  0  0  0  0  0  0  0  0  0  0  0
   -6.0405   -3.9473    0.0000 O   0  0  0  0  0  0  0  0  0  0  0  0
   -6.7514   -3.5343    0.0000 C   0  0  0  0  0  0  0  0  0  0  0  0
    3.2692   -5.1631    0.0000 C   0  0  0  0  0  0  0  0  0  0  0  0
    3.2712   -5.9882    0.0000 C   0  0  0  0  0  0  0  0  0  0  0  0
    3.9864   -6.3977    0.0000 C   0  0  0  0  0  0  0  0  0  0  0  0
    4.7002   -5.9823    0.0000 C   0  0  0  0  0  0  0  0  0  0  0  0
    4.6942   -5.1531    0.0000 C   0  0  0  0  0  0  0  0  0  0  0  0
    3.9783   -4.7473    0.0000 C   0  0  0  0  0  0  0  0  0  0  0  0
    2.5580   -6.4028    0.0000 N   0  0  0  0  0  0  0  0  0  0  0  0
    2.5604   -7.2277    0.0000 C   0  0  0  0  0  0  0  0  0  0  0  0
    1.8473   -7.6423    0.0000 C   0  0  0  0  0  0  0  0  0  0  0  0
    3.2761   -7.6381    0.0000 O   0  0  0  0  0  0  0  0  0  0  0  0
    1.1338   -7.2283    0.0000 C   0  0  0  0  0  0  0  0  0  0  0  0
    0.4212   -7.6422    0.0000 C   0  0  0  0  0  0  0  0  0  0  0  0
    0.4232   -8.4681    0.0000 C   0  0  0  0  0  0  0  0  0  0  0  0
    1.1438   -8.8782    0.0000 C   0  0  0  0  0  0  0  0  0  0  0  0
    1.8536   -8.4620    0.0000 C   0  0  0  0  0  0  0  0  0  0  0  0
   -0.2904   -8.8860    0.0000 N   0  0  0  0  0  0  0  0  0  0  0  0
   -0.2868   -9.7110    0.0000 O   0  0  0  0  0  0  0  0  0  0  0  0
   -1.0065   -8.4767    0.0000 O   0  0  0  0  0  0  0  0  0  0  0  0
  8  9  1  0
 20 21  2  0
  9 10  1  0
  1 22  1  0
  5  6  1  0
 22 23  1  0
  8 11  1  0
  2 24  1  0
 24 25  1  0
 11 12  1  0
 20 26  1  0
  2  3  1  0
 26 27  1  0
 12 13  1  0
 27 28  2  0
  3  6  2  0
 28 29  1  0
 13 14  2  0
 29 30  2  0
  1  2  2  0
 30 31  1  0
 31 26  2  0
 14 15  1  0
 27 32  1  0
  5  4  2  0
 32 33  1  0
 15 16  2  0
 33 34  1  0
  4  1  1  0
 33 35  2  0
 16 17  1  0
 34 36  2  0
  5 10  1  0
 36 37  1  0
 17 18  2  0
 37 38  2  0
 18 13  1  0
 38 39  1  0
  6  7  1  0
 39 40  2  0
 40 34  1  0
 16 19  1  0
  7  8  1  0
 19 20  1  0
 41 42  2  0
 41 43  1  0
 38 41  1  0
M  CHG  2  41   1  43  -1
M  END
>  <Classification>  (45) 
1

>  <pchembl>  (45) 
6.16

>  <InChI_steorem>  (45) 
InChI=1S/C33H32N4O6/c1-42-30-19-24-16-18-36(21-25(24)20-31(30)43-2)17-15-22-7-11-26(12-8-22)34-33(39)28-5-3-4-6-29(28)35-32(38)23-9-13-27(14-10-23)37(40)41/h3-14,19-20H,15-18,21H2,1-2H3,(H,34,39)(H,35,38)

>  <source>  (45) 
ChEMBL25

>  <source_id>  (45) 
25

>  <optional_reference>  (45) 
10.1016/j.bmcl.2009.11.004

>  <optional_origin>  (45) 
None

>  <target>  (45) 
BCRP

$$$$

     RDKit          2D

 44 48  0  0  0  0  0  0  0  0999 V2000
   10.1687    4.6830    0.0000 C   0  0  0  0  0  0  0  0  0  0  0  0
   10.1675    3.8474    0.0000 C   0  0  0  0  0  0  0  0  0  0  0  0
   10.8824    3.4346    0.0000 C   0  0  0  0  0  0  0  0  0  0  0  0
   10.8806    5.0952    0.0000 C   0  0  0  0  0  0  0  0  0  0  0  0
   11.5958    4.6794    0.0000 C   0  0  0  0  0  0  0  0  0  0  0  0
   11.5993    3.8453    0.0000 C   0  0  0  0  0  0  0  0  0  0  0  0
   12.3184    3.4341    0.0000 C   0  0  0  0  0  0  0  0  0  0  0  0
   13.0387    3.8512    0.0000 N   0  0  0  0  0  0  0  0  0  0  0  0
   13.0353    4.6901    0.0000 C   0  0  0  0  0  0  0  0  0  0  0  0
   12.3116    5.1076    0.0000 C   0  0  0  0  0  0  0  0  0  0  0  0
   13.7543    3.4407    0.0000 C   0  0  0  0  0  0  0  0  0  0  0  0
   14.4676    3.8551    0.0000 C   0  0  0  0  0  0  0  0  0  0  0  0
   15.1832    3.4446    0.0000 C   0  0  0  0  0  0  0  0  0  0  0  0
   15.1818    2.6195    0.0000 C   0  0  0  0  0  0  0  0  0  0  0  0
   15.8965    2.2092    0.0000 C   0  0  0  0  0  0  0  0  0  0  0  0
   16.6108    2.6236    0.0000 C   0  0  0  0  0  0  0  0  0  0  0  0
   16.6059    3.4528    0.0000 C   0  0  0  0  0  0  0  0  0  0  0  0
   15.8906    3.8595    0.0000 C   0  0  0  0  0  0  0  0  0  0  0  0
   17.3269    2.2141    0.0000 N   0  0  0  0  0  0  0  0  0  0  0  0
   18.0396    2.6294    0.0000 C   0  0  0  0  0  0  0  0  0  0  0  0
   18.0363    3.4544    0.0000 O   0  0  0  0  0  0  0  0  0  0  0  0
    9.4542    5.0873    0.0000 O   0  0  0  0  0  0  0  0  0  0  0  0
    8.7399    4.6750    0.0000 C   0  0  0  0  0  0  0  0  0  0  0  0
    9.4528    3.4355    0.0000 O   0  0  0  0  0  0  0  0  0  0  0  0
    8.7387    3.8485    0.0000 C   0  0  0  0  0  0  0  0  0  0  0  0
   18.7557    2.2199    0.0000 C   0  0  0  0  0  0  0  0  0  0  0  0
   18.7577    1.3947    0.0000 C   0  0  0  0  0  0  0  0  0  0  0  0
   19.4729    0.9851    0.0000 C   0  0  0  0  0  0  0  0  0  0  0  0
   20.1867    1.4006    0.0000 C   0  0  0  0  0  0  0  0  0  0  0  0
   20.1807    2.2298    0.0000 C   0  0  0  0  0  0  0  0  0  0  0  0
   19.4648    2.6355    0.0000 C   0  0  0  0  0  0  0  0  0  0  0  0
   18.0445    0.9800    0.0000 N   0  0  0  0  0  0  0  0  0  0  0  0
   18.0469    0.1551    0.0000 C   0  0  0  0  0  0  0  0  0  0  0  0
   17.3338   -0.2595    0.0000 C   0  0  0  0  0  0  0  0  0  0  0  0
   18.7626   -0.2552    0.0000 O   0  0  0  0  0  0  0  0  0  0  0  0
   16.6203    0.1546    0.0000 C   0  0  0  0  0  0  0  0  0  0  0  0
   15.9076   -0.2594    0.0000 C   0  0  0  0  0  0  0  0  0  0  0  0
   15.9096   -1.0852    0.0000 C   0  0  0  0  0  0  0  0  0  0  0  0
   16.6303   -1.4953    0.0000 C   0  0  0  0  0  0  0  0  0  0  0  0
   17.3401   -1.0790    0.0000 C   0  0  0  0  0  0  0  0  0  0  0  0
   16.6357   -2.3202    0.0000 O   0  0  0  0  0  0  0  0  0  0  0  0
   15.1970   -1.5007    0.0000 O   0  0  0  0  0  0  0  0  0  0  0  0
   14.4808   -1.0913    0.0000 C   0  0  0  0  0  0  0  0  0  0  0  0
   15.9239   -2.7374    0.0000 C   0  0  0  0  0  0  0  0  0  0  0  0
 20 21  2  0
  9 10  1  0
  1 22  1  0
  5  6  1  0
 22 23  1  0
  8 11  1  0
  2 24  1  0
 24 25  1  0
 11 12  1  0
 20 26  1  0
  2  3  1  0
 26 27  1  0
 12 13  1  0
 27 28  2  0
  3  6  2  0
 28 29  1  0
 13 14  2  0
 29 30  2  0
  1  2  2  0
 30 31  1  0
 31 26  2  0
 14 15  1  0
 27 32  1  0
  5  4  2  0
 32 33  1  0
 15 16  2  0
 33 34  1  0
  4  1  1  0
 33 35  2  0
 16 17  1  0
 34 36  2  0
  5 10  1  0
 36 37  1  0
 17 18  2  0
 37 38  2  0
 18 13  1  0
 38 39  1  0
  6  7  1  0
 39 40  2  0
 40 34  1  0
 16 19  1  0
 39 41  1  0
  7  8  1  0
 38 42  1  0
 19 20  1  0
 42 43  1  0
  8  9  1  0
 41 44  1  0
M  END
>  <Classification>  (46) 
1

>  <pchembl>  (46) 
5.68

>  <InChI_steorem>  (46) 
InChI=1S/C35H37N3O6/c1-41-30-14-11-25(20-31(30)42-2)34(39)37-29-8-6-5-7-28(29)35(40)36-27-12-9-23(10-13-27)15-17-38-18-16-24-19-32(43-3)33(44-4)21-26(24)22-38/h5-14,19-21H,15-18,22H2,1-4H3,(H,36,40)(H,37,39)

>  <source>  (46) 
ChEMBL25

>  <source_id>  (46) 
25

>  <optional_reference>  (46) 
10.1016/j.bmc.2008.07.034

>  <optional_origin>  (46) 
None

>  <target>  (46) 
BCRP

$$$$

     RDKit          2D

 44 48  0  0  0  0  0  0  0  0999 V2000
   15.1750   -3.7084    0.0000 C   0  0  0  0  0  0  0  0  0  0  0  0
    9.4569   -2.8916    0.0000 C   0  0  0  0  0  0  0  0  0  0  0  0
    9.4557   -3.7190    0.0000 C   0  0  0  0  0  0  0  0  0  0  0  0
   10.1706   -4.1319    0.0000 C   0  0  0  0  0  0  0  0  0  0  0  0
   10.1688   -2.4789    0.0000 C   0  0  0  0  0  0  0  0  0  0  0  0
   10.8841   -2.8880    0.0000 C   0  0  0  0  0  0  0  0  0  0  0  0
   10.8876   -3.7211    0.0000 C   0  0  0  0  0  0  0  0  0  0  0  0
   11.6067   -4.1324    0.0000 C   0  0  0  0  0  0  0  0  0  0  0  0
   12.3271   -3.7152    0.0000 N   0  0  0  0  0  0  0  0  0  0  0  0
   12.3237   -2.8821    0.0000 C   0  0  0  0  0  0  0  0  0  0  0  0
   11.5999   -2.4662    0.0000 C   0  0  0  0  0  0  0  0  0  0  0  0
   13.0427   -4.1257    0.0000 C   0  0  0  0  0  0  0  0  0  0  0  0
   13.7561   -3.7113    0.0000 C   0  0  0  0  0  0  0  0  0  0  0  0
   14.4717   -4.1218    0.0000 C   0  0  0  0  0  0  0  0  0  0  0  0
   14.4703   -4.9469    0.0000 C   0  0  0  0  0  0  0  0  0  0  0  0
   15.1851   -5.3574    0.0000 C   0  0  0  0  0  0  0  0  0  0  0  0
   15.8994   -4.9429    0.0000 C   0  0  0  0  0  0  0  0  0  0  0  0
   15.8945   -4.1136    0.0000 C   0  0  0  0  0  0  0  0  0  0  0  0
   16.6155   -5.3525    0.0000 N   0  0  0  0  0  0  0  0  0  0  0  0
   17.3283   -4.9371    0.0000 C   0  0  0  0  0  0  0  0  0  0  0  0
   17.3250   -4.1121    0.0000 O   0  0  0  0  0  0  0  0  0  0  0  0
    8.7423   -2.4793    0.0000 O   0  0  0  0  0  0  0  0  0  0  0  0
    8.0280   -2.8920    0.0000 C   0  0  0  0  0  0  0  0  0  0  0  0
    8.7409   -4.1309    0.0000 O   0  0  0  0  0  0  0  0  0  0  0  0
    8.0268   -3.7179    0.0000 C   0  0  0  0  0  0  0  0  0  0  0  0
   18.0444   -5.3467    0.0000 C   0  0  0  0  0  0  0  0  0  0  0  0
   18.0464   -6.1719    0.0000 C   0  0  0  0  0  0  0  0  0  0  0  0
   18.7617   -6.5814    0.0000 C   0  0  0  0  0  0  0  0  0  0  0  0
   19.4755   -6.1660    0.0000 C   0  0  0  0  0  0  0  0  0  0  0  0
   19.4695   -5.3367    0.0000 C   0  0  0  0  0  0  0  0  0  0  0  0
   18.7536   -4.9309    0.0000 C   0  0  0  0  0  0  0  0  0  0  0  0
   17.3332   -6.5865    0.0000 N   0  0  0  0  0  0  0  0  0  0  0  0
   17.3356   -7.4115    0.0000 C   0  0  0  0  0  0  0  0  0  0  0  0
   16.6224   -7.8262    0.0000 N   0  0  0  0  0  0  0  0  0  0  0  0
   18.0513   -7.8219    0.0000 O   0  0  0  0  0  0  0  0  0  0  0  0
   16.6249   -8.6512    0.0000 C   0  0  0  0  0  0  0  0  0  0  0  0
   15.9104   -9.0635    0.0000 C   0  0  0  0  0  0  0  0  0  0  0  0
   15.9125   -9.8877    0.0000 C   0  0  0  0  0  0  0  0  0  0  0  0
   16.6287  -10.2989    0.0000 C   0  0  0  0  0  0  0  0  0  0  0  0
   17.3443   -9.8798    0.0000 C   0  0  0  0  0  0  0  0  0  0  0  0
   17.3387   -9.0570    0.0000 C   0  0  0  0  0  0  0  0  0  0  0  0
   16.6337  -11.1285    0.0000 N   0  0  0  0  0  0  0  0  0  0  0  0
   17.3499  -11.5379    0.0000 O   0  0  0  0  0  0  0  0  0  0  0  0
   15.9210  -11.5441    0.0000 O   0  0  0  0  0  0  0  0  0  0  0  0
 20 21  2  0
  9 10  1  0
  2 22  1  0
 10 11  1  0
 22 23  1  0
  6  7  1  0
  3 24  1  0
  9 12  1  0
 24 25  1  0
 20 26  1  0
 12 13  1  0
 26 27  1  0
  3  4  1  0
 27 28  2  0
 13 14  1  0
 28 29  1  0
  4  7  2  0
 29 30  2  0
 14 15  2  0
 30 31  1  0
 31 26  2  0
  2  3  2  0
 27 32  1  0
 15 16  1  0
 32 33  1  0
  6  5  2  0
 33 34  1  0
 16 17  2  0
 33 35  2  0
  5  2  1  0
 34 36  1  0
 17 18  1  0
 36 37  2  0
 18  1  2  0
 37 38  1  0
  1 14  1  0
 38 39  2  0
  6 11  1  0
 39 40  1  0
 17 19  1  0
 40 41  2  0
 41 36  1  0
  7  8  1  0
 19 20  1  0
  8  9  1  0
 42 43  2  0
 42 44  1  0
 39 42  1  0
M  CHG  2  42   1  44  -1
M  END
>  <Classification>  (47) 
1

>  <pchembl>  (47) 
6.27

>  <InChI_steorem>  (47) 
InChI=1S/C33H33N5O6/c1-43-30-19-23-16-18-37(21-24(23)20-31(30)44-2)17-15-22-7-9-25(10-8-22)34-32(39)28-5-3-4-6-29(28)36-33(40)35-26-11-13-27(14-12-26)38(41)42/h3-14,19-20H,15-18,21H2,1-2H3,(H,34,39)(H2,35,36,40)

>  <source>  (47) 
ChEMBL25

>  <source_id>  (47) 
25

>  <optional_reference>  (47) 
10.1016/j.bmcl.2009.11.004

>  <optional_origin>  (47) 
None

>  <target>  (47) 
BCRP

$$$$

     RDKit          2D

 45 49  0  0  0  0  0  0  0  0999 V2000
   -4.4514    3.1500    0.0000 C   0  0  0  0  0  0  0  0  0  0  0  0
   -4.4526    2.3227    0.0000 C   0  0  0  0  0  0  0  0  0  0  0  0
   -3.7378    1.9098    0.0000 C   0  0  0  0  0  0  0  0  0  0  0  0
   -3.7396    3.5628    0.0000 C   0  0  0  0  0  0  0  0  0  0  0  0
   -3.0242    3.1537    0.0000 C   0  0  0  0  0  0  0  0  0  0  0  0
   -3.0208    2.3206    0.0000 C   0  0  0  0  0  0  0  0  0  0  0  0
   -2.3016    1.9093    0.0000 C   0  0  0  0  0  0  0  0  0  0  0  0
   -1.5812    2.3265    0.0000 N   0  0  0  0  0  0  0  0  0  0  0  0
   -1.5846    3.1596    0.0000 C   0  0  0  0  0  0  0  0  0  0  0  0
   -2.3084    3.5755    0.0000 C   0  0  0  0  0  0  0  0  0  0  0  0
   -0.8656    1.9159    0.0000 C   0  0  0  0  0  0  0  0  0  0  0  0
   -0.1523    2.3304    0.0000 C   0  0  0  0  0  0  0  0  0  0  0  0
    0.5633    1.9198    0.0000 C   0  0  0  0  0  0  0  0  0  0  0  0
    0.5620    1.0947    0.0000 C   0  0  0  0  0  0  0  0  0  0  0  0
    1.2767    0.6843    0.0000 C   0  0  0  0  0  0  0  0  0  0  0  0
    1.9911    1.0988    0.0000 C   0  0  0  0  0  0  0  0  0  0  0  0
    1.9861    1.9280    0.0000 C   0  0  0  0  0  0  0  0  0  0  0  0
    1.2708    2.3348    0.0000 C   0  0  0  0  0  0  0  0  0  0  0  0
    2.7072    0.6892    0.0000 N   0  0  0  0  0  0  0  0  0  0  0  0
    3.4200    1.1046    0.0000 C   0  0  0  0  0  0  0  0  0  0  0  0
    3.4166    1.9296    0.0000 O   0  0  0  0  0  0  0  0  0  0  0  0
    4.1361    0.6950    0.0000 N   0  0  0  0  0  0  0  0  0  0  0  0
    4.8489    1.1104    0.0000 C   0  0  0  0  0  0  0  0  0  0  0  0
    5.5633    0.6998    0.0000 C   0  0  0  0  0  0  0  0  0  0  0  0
    6.2756    1.1145    0.0000 C   0  0  0  0  0  0  0  0  0  0  0  0
    6.2727    1.9404    0.0000 C   0  0  0  0  0  0  0  0  0  0  0  0
    5.5515    2.3498    0.0000 C   0  0  0  0  0  0  0  0  0  0  0  0
    4.8422    1.9327    0.0000 C   0  0  0  0  0  0  0  0  0  0  0  0
    5.5656   -0.1252    0.0000 N   0  0  0  0  0  0  0  0  0  0  0  0
    4.8523   -0.5397    0.0000 C   0  0  0  0  0  0  0  0  0  0  0  0
    4.8546   -1.3647    0.0000 C   0  0  0  0  0  0  0  0  0  0  0  0
    4.1367   -0.1292    0.0000 O   0  0  0  0  0  0  0  0  0  0  0  0
    4.1406   -1.7758    0.0000 C   0  0  0  0  0  0  0  0  0  0  0  0
    4.1426   -2.6001    0.0000 C   0  0  0  0  0  0  0  0  0  0  0  0
    4.8588   -3.0114    0.0000 C   0  0  0  0  0  0  0  0  0  0  0  0
    5.5744   -2.5924    0.0000 C   0  0  0  0  0  0  0  0  0  0  0  0
    5.5690   -1.7696    0.0000 C   0  0  0  0  0  0  0  0  0  0  0  0
   -5.1660    3.5624    0.0000 O   0  0  0  0  0  0  0  0  0  0  0  0
   -5.8804    3.1497    0.0000 C   0  0  0  0  0  0  0  0  0  0  0  0
   -5.1674    1.9107    0.0000 O   0  0  0  0  0  0  0  0  0  0  0  0
   -5.8815    2.3238    0.0000 C   0  0  0  0  0  0  0  0  0  0  0  0
    6.2915   -3.0004    0.0000 O   0  0  0  0  0  0  0  0  0  0  0  0
    6.2968   -3.8254    0.0000 C   0  0  0  0  0  0  0  0  0  0  0  0
    4.8622   -3.8364    0.0000 O   0  0  0  0  0  0  0  0  0  0  0  0
    4.1494   -4.2518    0.0000 C   0  0  0  0  0  0  0  0  0  0  0  0
  9 10  1  0
 20 22  1  0
  5  6  1  0
 22 23  1  0
  8 11  1  0
 23 24  1  0
 24 25  2  0
 11 12  1  0
 25 26  1  0
  2  3  1  0
 26 27  2  0
 12 13  1  0
 27 28  1  0
 28 23  2  0
  3  6  2  0
 24 29  1  0
 13 14  2  0
 29 30  1  0
  1  2  2  0
 30 31  1  0
 14 15  1  0
 30 32  2  0
  5  4  2  0
 31 33  2  0
 15 16  2  0
 33 34  1  0
  4  1  1  0
 34 35  2  0
 16 17  1  0
 35 36  1  0
  5 10  1  0
 36 37  2  0
 37 31  1  0
 17 18  2  0
  1 38  1  0
 18 13  1  0
 38 39  1  0
  6  7  1  0
  2 40  1  0
 16 19  1  0
 40 41  1  0
  7  8  1  0
 36 42  1  0
 19 20  1  0
 42 43  1  0
  8  9  1  0
 35 44  1  0
 20 21  2  0
 44 45  1  0
M  END
>  <Classification>  (48) 
0

>  <pchembl>  (48) 
4.99

>  <InChI_steorem>  (48) 
InChI=1S/C35H38N4O6/c1-42-30-14-11-25(20-31(30)43-2)34(40)37-28-7-5-6-8-29(28)38-35(41)36-27-12-9-23(10-13-27)15-17-39-18-16-24-19-32(44-3)33(45-4)21-26(24)22-39/h5-14,19-21H,15-18,22H2,1-4H3,(H,37,40)(H2,36,38,41)

>  <source>  (48) 
ChEMBL25

>  <source_id>  (48) 
25

>  <optional_reference>  (48) 
10.1016/j.bmcl.2009.11.004

>  <optional_origin>  (48) 
None

>  <target>  (48) 
BCRP

$$$$

     RDKit          2D

 21 24  0  0  0  0  0  0  0  0999 V2000
   -2.4110   -0.9024    0.0000 O   0  0  0  0  0  0  0  0  0  0  0  0
   -1.6971   -0.4930    0.0000 C   0  0  0  0  0  0  0  0  0  0  0  0
   -1.6971    0.3342    0.0000 C   0  0  0  0  0  0  0  0  0  0  0  0
   -2.4110    0.7520    0.0000 C   0  0  0  0  0  0  0  0  0  0  0  0
   -3.1250   -0.4930    0.0000 C   0  0  0  0  0  0  0  0  0  0  0  0
   -3.1224    0.3324    0.0000 C   0  0  0  0  0  0  0  0  0  0  0  0
   -4.5488   -0.4941    0.0000 C   0  0  0  0  0  0  0  0  0  0  0  0
   -3.8358   -0.9035    0.0000 C   0  0  0  0  0  0  0  0  0  0  0  0
   -4.5502    0.3344    0.0000 C   0  0  0  0  0  0  0  0  0  0  0  0
   -3.8369    0.7409    0.0000 C   0  0  0  0  0  0  0  0  0  0  0  0
   -3.8332    1.5599    0.0000 C   0  0  0  0  0  0  0  0  0  0  0  0
   -4.5422    1.9735    0.0000 C   0  0  0  0  0  0  0  0  0  0  0  0
   -5.2561    1.5621    0.0000 C   0  0  0  0  0  0  0  0  0  0  0  0
   -5.2563    0.7444    0.0000 C   0  0  0  0  0  0  0  0  0  0  0  0
   -2.4125    1.5792    0.0000 O   0  0  0  0  0  0  0  0  0  0  0  0
   -0.9832   -0.9065    0.0000 C   0  0  0  0  0  0  0  0  0  0  0  0
   -0.9857   -1.7348    0.0000 C   0  0  0  0  0  0  0  0  0  0  0  0
   -0.2708   -2.1494    0.0000 C   0  0  0  0  0  0  0  0  0  0  0  0
    0.4471   -1.7368    0.0000 C   0  0  0  0  0  0  0  0  0  0  0  0
    0.4457   -0.9053    0.0000 C   0  0  0  0  0  0  0  0  0  0  0  0
   -0.2698   -0.4945    0.0000 C   0  0  0  0  0  0  0  0  0  0  0  0
  9 10  2  0
 10 11  1  0
  6  4  1  0
 11 12  2  0
  5  6  2  0
 12 13  1  0
  6 10  1  0
 13 14  2  0
 14  9  1  0
  5  1  1  0
  4 15  2  0
  9  7  1  0
  1  2  1  0
 16 17  2  0
  7  8  2  0
 17 18  1  0
  8  5  1  0
 18 19  2  0
  2  3  2  0
 19 20  1  0
  3  4  1  0
 20 21  2  0
 21 16  1  0
  2 16  1  0
M  END
>  <Classification>  (49) 
1

>  <pchembl>  (49) 
5.22

>  <InChI_steorem>  (49) 
InChI=1S/C19H12O2/c20-16-12-18(14-7-2-1-3-8-14)21-17-11-10-13-6-4-5-9-15(13)19(16)17/h1-12H

>  <source>  (49) 
ChEMBL25

>  <source_id>  (49) 
25

>  <optional_reference>  (49) 
10.1016/j.ejmech.2013.06.035

>  <optional_origin>  (49) 
None

>  <target>  (49) 
BCRP

$$$$

     RDKit          2D

 24 25  0  0  0  0  0  0  0  0999 V2000
    9.8914  -15.1042    0.0000 C   0  0  0  0  0  0  0  0  0  0  0  0
   10.6059  -14.6917    0.0000 C   0  0  0  0  0  0  0  0  0  0  0  0
    9.1774  -14.6887    0.0000 C   0  0  0  0  0  0  0  0  0  0  0  0
    8.4634  -15.1005    0.0000 C   0  0  0  0  0  0  0  0  0  0  0  0
    8.4630  -15.9264    0.0000 C   0  0  0  0  0  0  0  0  0  0  0  0
    9.1825  -16.3387    0.0000 C   0  0  0  0  0  0  0  0  0  0  0  0
    9.8935  -15.9246    0.0000 C   0  0  0  0  0  0  0  0  0  0  0  0
    7.7492  -14.6877    0.0000 O   0  0  0  0  0  0  0  0  0  0  0  0
    7.7496  -13.8627    0.0000 C   0  0  0  0  0  0  0  0  0  0  0  0
    7.7491  -16.3399    0.0000 O   0  0  0  0  0  0  0  0  0  0  0  0
    7.7502  -17.1649    0.0000 C   0  0  0  0  0  0  0  0  0  0  0  0
   11.3243  -15.1042    0.0000 C   0  0  0  0  0  0  0  0  0  0  0  0
   12.0388  -14.6917    0.0000 C   0  0  0  0  0  0  0  0  0  0  0  0
   12.7533  -15.1042    0.0000 C   0  0  0  0  0  0  0  0  0  0  0  0
   12.7514  -15.9302    0.0000 C   0  0  0  0  0  0  0  0  0  0  0  0
   13.4650  -16.3427    0.0000 C   0  0  0  0  0  0  0  0  0  0  0  0
   14.1805  -15.9301    0.0000 C   0  0  0  0  0  0  0  0  0  0  0  0
   14.1778  -15.1008    0.0000 C   0  0  0  0  0  0  0  0  0  0  0  0
   13.4636  -14.6922    0.0000 C   0  0  0  0  0  0  0  0  0  0  0  0
   14.8908  -14.6858    0.0000 O   0  0  0  0  0  0  0  0  0  0  0  0
   14.8955  -16.3417    0.0000 O   0  0  0  0  0  0  0  0  0  0  0  0
   14.8966  -17.1667    0.0000 C   0  0  0  0  0  0  0  0  0  0  0  0
   14.8879  -13.8608    0.0000 C   0  0  0  0  0  0  0  0  0  0  0  0
   10.6059  -13.8667    0.0000 O   0  0  0  0  0  0  0  0  0  0  0  0
  1  2  1  0
 12 13  2  3
  6  7  1  0
 13 14  1  0
  7  1  2  0
 14 15  2  0
  3  4  2  0
 15 16  1  0
  4  8  1  0
 16 17  2  0
 17 18  1  0
  8  9  1  0
 18 19  2  0
 19 14  1  0
  4  5  1  0
 18 20  1  0
  5 10  1  0
 17 21  1  0
  1  3  1  0
 21 22  1  0
 10 11  1  0
 20 23  1  0
  2 12  1  0
  5  6  2  0
  2 24  2  0
M  END
>  <Classification>  (50) 
1

>  <pchembl>  (50) 
5.48

>  <InChI_steorem>  (50) 
InChI=1S/C19H20O5/c1-21-16-9-6-13(11-18(16)23-3)5-8-15(20)14-7-10-17(22-2)19(12-14)24-4/h5-12H,1-4H3

>  <source>  (50) 
ChEMBL25

>  <source_id>  (50) 
25

>  <optional_reference>  (50) 
10.1016/j.bmc.2011.10.074

>  <optional_origin>  (50) 
None

>  <target>  (50) 
BCRP

$$$$

     RDKit          2D

 20 22  0  0  0  0  0  0  0  0999 V2000
   -4.4116  -14.3632    0.0000 C   0  0  0  0  0  0  0  0  0  0  0  0
   -4.4128  -15.1902    0.0000 C   0  0  0  0  0  0  0  0  0  0  0  0
   -3.6984  -15.6028    0.0000 C   0  0  0  0  0  0  0  0  0  0  0  0
   -3.7001  -13.9506    0.0000 C   0  0  0  0  0  0  0  0  0  0  0  0
   -2.9851  -14.3596    0.0000 C   0  0  0  0  0  0  0  0  0  0  0  0
   -2.9817  -15.1876    0.0000 C   0  0  0  0  0  0  0  0  0  0  0  0
   -2.2669  -15.5965    0.0000 C   0  0  0  0  0  0  0  0  0  0  0  0
   -1.5509  -15.1818    0.0000 C   0  0  0  0  0  0  0  0  0  0  0  0
   -1.5543  -14.3537    0.0000 C   0  0  0  0  0  0  0  0  0  0  0  0
   -2.2737  -13.9404    0.0000 O   0  0  0  0  0  0  0  0  0  0  0  0
   -0.8428  -13.9400    0.0000 C   0  0  0  0  0  0  0  0  0  0  0  0
   -0.1270  -14.3517    0.0000 C   0  0  0  0  0  0  0  0  0  0  0  0
    0.5853  -13.9380    0.0000 C   0  0  0  0  0  0  0  0  0  0  0  0
    0.5832  -13.1125    0.0000 C   0  0  0  0  0  0  0  0  0  0  0  0
   -0.1372  -12.7026    0.0000 C   0  0  0  0  0  0  0  0  0  0  0  0
   -0.8466  -13.1187    0.0000 C   0  0  0  0  0  0  0  0  0  0  0  0
   -2.2646  -16.4210    0.0000 O   0  0  0  0  0  0  0  0  0  0  0  0
   -5.1258  -13.9511    0.0000 O   0  0  0  0  0  0  0  0  0  0  0  0
   -3.6978  -16.4273    0.0000 O   0  0  0  0  0  0  0  0  0  0  0  0
   -5.1260  -13.1266    0.0000 C   0  0  0  0  0  0  0  0  0  0  0  0
  8  9  1  0
  9 10  1  0
  5  6  1  0
 11 12  2  0
  2  3  1  0
 12 13  1  0
  3  6  2  0
 13 14  2  0
  1  2  2  0
 14 15  1  0
  5  4  2  0
 15 16  2  0
 16 11  1  0
  9 11  1  0
  4  1  1  0
  7 17  2  0
  5 10  1  0
  1 18  1  0
  6  7  1  0
  3 19  1  0
  7  8  1  0
 18 20  1  0
M  END
>  <Classification>  (51) 
1

>  <pchembl>  (51) 
5.05

>  <InChI_steorem>  (51) 
InChI=1S/C16H14O4/c1-19-11-7-12(17)16-13(18)9-14(20-15(16)8-11)10-5-3-2-4-6-10/h2-8,14,17H,9H2,1H3

>  <source>  (51) 
ChEMBL25

>  <source_id>  (51) 
25

>  <optional_reference>  (51) 
10.1016/j.bmc.2010.12.043

>  <optional_origin>  (51) 
None

>  <target>  (51) 
BCRP

$$$$

     RDKit          2D

 25 27  0  0  0  0  0  0  0  0999 V2000
   -4.4278  -17.0600    0.0000 C   0  0  0  0  0  0  0  0  0  0  0  0
   -4.4290  -17.8869    0.0000 C   0  0  0  0  0  0  0  0  0  0  0  0
   -3.7146  -18.2994    0.0000 C   0  0  0  0  0  0  0  0  0  0  0  0
   -3.7164  -16.6475    0.0000 C   0  0  0  0  0  0  0  0  0  0  0  0
   -3.0015  -17.0564    0.0000 C   0  0  0  0  0  0  0  0  0  0  0  0
   -3.0027  -17.8889    0.0000 C   0  0  0  0  0  0  0  0  0  0  0  0
   -2.2863  -18.3039    0.0000 C   0  0  0  0  0  0  0  0  0  0  0  0
   -1.5640  -17.8910    0.0000 C   0  0  0  0  0  0  0  0  0  0  0  0
   -1.5628  -17.0584    0.0000 C   0  0  0  0  0  0  0  0  0  0  0  0
   -2.2839  -16.6389    0.0000 O   0  0  0  0  0  0  0  0  0  0  0  0
   -0.8512  -18.3052    0.0000 O   0  0  0  0  0  0  0  0  0  0  0  0
   -0.8535  -19.1297    0.0000 C   0  0  0  0  0  0  0  0  0  0  0  0
   -2.2886  -19.1284    0.0000 O   0  0  0  0  0  0  0  0  0  0  0  0
   -0.8478  -16.6480    0.0000 C   0  0  0  0  0  0  0  0  0  0  0  0
   -0.1362  -17.0662    0.0000 C   0  0  0  0  0  0  0  0  0  0  0  0
    0.5783  -16.6565    0.0000 C   0  0  0  0  0  0  0  0  0  0  0  0
    0.5808  -15.8311    0.0000 C   0  0  0  0  0  0  0  0  0  0  0  0
   -0.1372  -15.4173    0.0000 C   0  0  0  0  0  0  0  0  0  0  0  0
   -0.8489  -15.8295    0.0000 C   0  0  0  0  0  0  0  0  0  0  0  0
    1.2912  -17.0708    0.0000 O   0  0  0  0  0  0  0  0  0  0  0  0
    1.2953  -15.4197    0.0000 O   0  0  0  0  0  0  0  0  0  0  0  0
    2.0088  -15.8327    0.0000 C   0  0  0  0  0  0  0  0  0  0  0  0
   -3.7149  -19.1239    0.0000 O   0  0  0  0  0  0  0  0  0  0  0  0
   -5.1419  -16.6480    0.0000 O   0  0  0  0  0  0  0  0  0  0  0  0
   -5.1421  -15.8235    0.0000 C   0  0  0  0  0  0  0  0  0  0  0  0
 11 12  1  0
  2  3  1  0
  7 13  2  0
  3  6  2  0
  9 14  1  0
  1  2  2  0
 14 15  2  0
  5  4  2  0
 15 16  1  0
  4  1  1  0
 16 17  2  0
  5 10  1  0
 17 18  1  0
  6  7  1  0
 18 19  2  0
 19 14  1  0
  7  8  1  0
 16 20  1  0
  8  9  2  0
 17 21  1  0
  9 10  1  0
 21 22  1  0
  5  6  1  0
  3 23  1  0
  8 11  1  0
  1 24  1  0
 24 25  1  0
M  END
>  <Classification>  (52) 
1

>  <pchembl>  (52) 
6.34

>  <InChI_steorem>  (52) 
InChI=1S/C18H16O7/c1-22-10-7-12(20)15-14(8-10)25-17(18(24-3)16(15)21)9-4-5-13(23-2)11(19)6-9/h4-8,19-20H,1-3H3

>  <source>  (52) 
ChEMBL25

>  <source_id>  (52) 
25

>  <optional_reference>  (52) 
10.1016/j.bmc.2010.12.043

>  <optional_origin>  (52) 
None

>  <target>  (52) 
BCRP

$$$$

     RDKit          2D

 28 31  0  0  0  0  0  0  0  0999 V2000
   -5.5757  -12.8400    0.0000 C   0  0  0  0  0  0  0  0  0  0  0  0
   -5.5769  -13.6673    0.0000 C   0  0  0  0  0  0  0  0  0  0  0  0
   -4.8622  -14.0802    0.0000 C   0  0  0  0  0  0  0  0  0  0  0  0
   -4.8640  -12.4274    0.0000 C   0  0  0  0  0  0  0  0  0  0  0  0
   -4.1487  -12.8364    0.0000 C   0  0  0  0  0  0  0  0  0  0  0  0
   -4.1453  -13.6694    0.0000 C   0  0  0  0  0  0  0  0  0  0  0  0
   -3.4262  -14.0807    0.0000 C   0  0  0  0  0  0  0  0  0  0  0  0
   -2.7059  -13.6635    0.0000 N   0  0  0  0  0  0  0  0  0  0  0  0
   -2.7093  -12.8305    0.0000 C   0  0  0  0  0  0  0  0  0  0  0  0
   -3.4330  -12.4147    0.0000 C   0  0  0  0  0  0  0  0  0  0  0  0
   -1.9904  -14.0740    0.0000 C   0  0  0  0  0  0  0  0  0  0  0  0
   -1.2771  -13.6596    0.0000 C   0  0  0  0  0  0  0  0  0  0  0  0
   -0.5616  -14.0701    0.0000 C   0  0  0  0  0  0  0  0  0  0  0  0
   -0.5629  -14.8951    0.0000 C   0  0  0  0  0  0  0  0  0  0  0  0
    0.1517  -15.3055    0.0000 C   0  0  0  0  0  0  0  0  0  0  0  0
    0.8660  -14.8911    0.0000 C   0  0  0  0  0  0  0  0  0  0  0  0
    0.8610  -14.0619    0.0000 C   0  0  0  0  0  0  0  0  0  0  0  0
    0.1458  -13.6552    0.0000 C   0  0  0  0  0  0  0  0  0  0  0  0
    1.5820  -15.3006    0.0000 N   0  0  0  0  0  0  0  0  0  0  0  0
    2.2947  -14.8853    0.0000 C   0  0  0  0  0  0  0  0  0  0  0  0
    3.0107  -15.2948    0.0000 C   0  0  0  0  0  0  0  0  0  0  0  0
    2.2913  -14.0604    0.0000 O   0  0  0  0  0  0  0  0  0  0  0  0
    3.0127  -16.1199    0.0000 C   0  0  0  0  0  0  0  0  0  0  0  0
    3.7279  -16.5294    0.0000 C   0  0  0  0  0  0  0  0  0  0  0  0
    4.4416  -16.1140    0.0000 C   0  0  0  0  0  0  0  0  0  0  0  0
    4.4356  -15.2848    0.0000 C   0  0  0  0  0  0  0  0  0  0  0  0
    3.7198  -14.8791    0.0000 C   0  0  0  0  0  0  0  0  0  0  0  0
    5.1582  -16.5226    0.0000 N   0  0  0  0  0  0  0  0  0  0  0  0
  3  6  2  0
 13 14  2  0
  1  2  2  0
 14 15  1  0
  5  4  2  0
 15 16  2  0
  4  1  1  0
 16 17  1  0
  5 10  1  0
 17 18  2  0
 18 13  1  0
  6  7  1  0
 16 19  1  0
  7  8  1  0
 19 20  1  0
  8  9  1  0
 20 21  1  0
  9 10  1  0
 20 22  2  0
  5  6  1  0
 21 23  2  0
  8 11  1  0
 23 24  1  0
 24 25  2  0
 11 12  1  0
 25 26  1  0
  2  3  1  0
 26 27  2  0
 27 21  1  0
 12 13  1  0
 25 28  1  0
M  END
>  <Classification>  (53) 
0

>  <pchembl>  (53) 
4.11

>  <InChI_steorem>  (53) 
InChI=1S/C24H25N3O/c25-22-9-7-20(8-10-22)24(28)26-23-11-5-18(6-12-23)13-15-27-16-14-19-3-1-2-4-21(19)17-27/h1-12H,13-17,25H2,(H,26,28)

>  <source>  (53) 
ChEMBL25

>  <source_id>  (53) 
25

>  <optional_reference>  (53) 
10.1016/j.bmc.2008.07.034

>  <optional_origin>  (53) 
None

>  <target>  (53) 
BCRP

$$$$

     RDKit          2D

 30 33  0  0  0  0  0  0  0  0999 V2000
   -5.3216   -9.4946    0.0000 C   0  0  0  0  0  0  0  0  0  0  0  0
   -5.3227  -10.3219    0.0000 C   0  0  0  0  0  0  0  0  0  0  0  0
   -4.6080  -10.7347    0.0000 C   0  0  0  0  0  0  0  0  0  0  0  0
   -4.6098   -9.0819    0.0000 C   0  0  0  0  0  0  0  0  0  0  0  0
   -3.8945   -9.4910    0.0000 C   0  0  0  0  0  0  0  0  0  0  0  0
   -3.8911  -10.3239    0.0000 C   0  0  0  0  0  0  0  0  0  0  0  0
   -3.1720  -10.7352    0.0000 C   0  0  0  0  0  0  0  0  0  0  0  0
   -2.4517  -10.3180    0.0000 N   0  0  0  0  0  0  0  0  0  0  0  0
   -2.4552   -9.4851    0.0000 C   0  0  0  0  0  0  0  0  0  0  0  0
   -3.1789   -9.0693    0.0000 C   0  0  0  0  0  0  0  0  0  0  0  0
   -1.7362  -10.7286    0.0000 C   0  0  0  0  0  0  0  0  0  0  0  0
   -1.0230  -10.3141    0.0000 C   0  0  0  0  0  0  0  0  0  0  0  0
   -0.3075  -10.7247    0.0000 C   0  0  0  0  0  0  0  0  0  0  0  0
   -0.3089  -11.5497    0.0000 C   0  0  0  0  0  0  0  0  0  0  0  0
    0.4059  -11.9601    0.0000 C   0  0  0  0  0  0  0  0  0  0  0  0
    1.1201  -11.5457    0.0000 C   0  0  0  0  0  0  0  0  0  0  0  0
    1.1152  -10.7165    0.0000 C   0  0  0  0  0  0  0  0  0  0  0  0
    0.4000  -10.3098    0.0000 C   0  0  0  0  0  0  0  0  0  0  0  0
    1.8362  -11.9552    0.0000 N   0  0  0  0  0  0  0  0  0  0  0  0
    2.5488  -11.5399    0.0000 C   0  0  0  0  0  0  0  0  0  0  0  0
    3.2649  -11.9494    0.0000 C   0  0  0  0  0  0  0  0  0  0  0  0
    2.5455  -10.7150    0.0000 O   0  0  0  0  0  0  0  0  0  0  0  0
    3.2668  -12.7745    0.0000 C   0  0  0  0  0  0  0  0  0  0  0  0
    3.9820  -13.1840    0.0000 C   0  0  0  0  0  0  0  0  0  0  0  0
    4.6957  -12.7686    0.0000 C   0  0  0  0  0  0  0  0  0  0  0  0
    4.6897  -11.9394    0.0000 C   0  0  0  0  0  0  0  0  0  0  0  0
    3.9739  -11.5337    0.0000 C   0  0  0  0  0  0  0  0  0  0  0  0
    5.4149  -13.1805    0.0000 N   0  0  0  0  0  0  0  0  0  0  0  0
    6.1270  -12.7642    0.0000 O   0  0  0  0  0  0  0  0  0  0  0  0
    5.4193  -14.0054    0.0000 O   0  0  0  0  0  0  0  0  0  0  0  0
  1  2  2  0
 14 15  2  0
  5  4  2  0
 15 16  1  0
  4  1  1  0
 16 17  2  0
  5 10  1  0
 17 18  1  0
 18 13  2  0
  6  7  1  0
 16 19  1  0
  7  8  1  0
 19 20  1  0
  8  9  1  0
 20 21  1  0
  9 10  1  0
 20 22  2  0
  5  6  1  0
 21 23  2  0
  8 11  1  0
 23 24  1  0
 24 25  2  0
 11 12  1  0
 25 26  1  0
  2  3  1  0
 26 27  2  0
 27 21  1  0
 12 13  1  0
  3  6  2  0
 13 14  1  0
 28 29  2  0
 28 30  1  0
 25 28  1  0
M  CHG  2  28   1  30  -1
M  END
>  <Classification>  (54) 
1

>  <pchembl>  (54) 
5.18

>  <InChI_steorem>  (54) 
InChI=1S/C24H23N3O3/c28-24(20-7-11-23(12-8-20)27(29)30)25-22-9-5-18(6-10-22)13-15-26-16-14-19-3-1-2-4-21(19)17-26/h1-12H,13-17H2,(H,25,28)

>  <source>  (54) 
ChEMBL25

>  <source_id>  (54) 
25

>  <optional_reference>  (54) 
10.1016/j.bmc.2008.07.034

>  <optional_origin>  (54) 
None

>  <target>  (54) 
BCRP

$$$$

     RDKit          2D

 31 34  0  0  0  0  0  0  0  0999 V2000
    7.1770   -3.9454    0.0000 C   0  0  0  0  0  0  0  0  0  0  0  0
    7.1759   -4.7727    0.0000 C   0  0  0  0  0  0  0  0  0  0  0  0
    7.8906   -5.1855    0.0000 C   0  0  0  0  0  0  0  0  0  0  0  0
    7.8888   -3.5326    0.0000 C   0  0  0  0  0  0  0  0  0  0  0  0
    8.6041   -3.9418    0.0000 C   0  0  0  0  0  0  0  0  0  0  0  0
    8.6075   -4.7747    0.0000 C   0  0  0  0  0  0  0  0  0  0  0  0
    9.3267   -5.1860    0.0000 C   0  0  0  0  0  0  0  0  0  0  0  0
   10.0470   -4.7688    0.0000 N   0  0  0  0  0  0  0  0  0  0  0  0
   10.0435   -3.9359    0.0000 C   0  0  0  0  0  0  0  0  0  0  0  0
    9.3198   -3.5200    0.0000 C   0  0  0  0  0  0  0  0  0  0  0  0
   10.7625   -5.1794    0.0000 C   0  0  0  0  0  0  0  0  0  0  0  0
   11.4757   -4.7649    0.0000 C   0  0  0  0  0  0  0  0  0  0  0  0
   12.1913   -5.1755    0.0000 C   0  0  0  0  0  0  0  0  0  0  0  0
   12.1899   -6.0005    0.0000 C   0  0  0  0  0  0  0  0  0  0  0  0
   12.9046   -6.4110    0.0000 C   0  0  0  0  0  0  0  0  0  0  0  0
   13.6188   -5.9965    0.0000 C   0  0  0  0  0  0  0  0  0  0  0  0
   13.6139   -5.1673    0.0000 C   0  0  0  0  0  0  0  0  0  0  0  0
   12.8987   -4.7606    0.0000 C   0  0  0  0  0  0  0  0  0  0  0  0
   14.3350   -6.4061    0.0000 N   0  0  0  0  0  0  0  0  0  0  0  0
   15.0476   -5.9907    0.0000 C   0  0  0  0  0  0  0  0  0  0  0  0
   15.7637   -6.4003    0.0000 C   0  0  0  0  0  0  0  0  0  0  0  0
   15.0443   -5.1658    0.0000 O   0  0  0  0  0  0  0  0  0  0  0  0
   15.7656   -7.2254    0.0000 C   0  0  0  0  0  0  0  0  0  0  0  0
   16.4808   -7.6348    0.0000 N   0  0  0  0  0  0  0  0  0  0  0  0
   16.4727   -5.9845    0.0000 C   0  0  0  0  0  0  0  0  0  0  0  0
   17.1886   -6.3903    0.0000 C   0  0  0  0  0  0  0  0  0  0  0  0
   17.1915   -7.2183    0.0000 C   0  0  0  0  0  0  0  0  0  0  0  0
    6.4625   -3.5331    0.0000 O   0  0  0  0  0  0  0  0  0  0  0  0
    6.4623   -2.7082    0.0000 C   0  0  0  0  0  0  0  0  0  0  0  0
    6.4611   -5.1846    0.0000 O   0  0  0  0  0  0  0  0  0  0  0  0
    5.7470   -4.7715    0.0000 C   0  0  0  0  0  0  0  0  0  0  0  0
 14 15  2  0
  5  4  1  0
 15 16  1  0
  4  1  2  0
 16 17  2  0
  5 10  1  0
 17 18  1  0
 18 13  2  0
  6  7  1  0
 16 19  1  0
  7  8  1  0
 19 20  1  0
  8  9  1  0
 20 21  1  0
  9 10  1  0
 20 22  2  0
  5  6  2  0
 21 23  2  0
  8 11  1  0
 23 24  1  0
 24 27  2  0
 26 25  2  0
 25 21  1  0
 11 12  1  0
  2  3  2  0
 26 27  1  0
 12 13  1  0
  1 28  1  0
  3  6  1  0
 28 29  1  0
 13 14  1  0
  2 30  1  0
  1  2  1  0
 30 31  1  0
M  END
>  <Classification>  (55) 
0

>  <pchembl>  (55) 
4.35

>  <InChI_steorem>  (55) 
InChI=1S/C25H27N3O3/c1-30-23-14-19-10-13-28(17-21(19)15-24(23)31-2)12-9-18-5-7-22(8-6-18)27-25(29)20-4-3-11-26-16-20/h3-8,11,14-16H,9-10,12-13,17H2,1-2H3,(H,27,29)

>  <source>  (55) 
ChEMBL25

>  <source_id>  (55) 
25

>  <optional_reference>  (55) 
10.1016/j.bmc.2008.07.034

>  <optional_origin>  (55) 
None

>  <target>  (55) 
BCRP

$$$$

     RDKit          2D

 31 35  0  0  0  0  0  0  0  0999 V2000
   -5.6963  -16.4720    0.0000 C   0  0  0  0  0  0  0  0  0  0  0  0
   -5.6974  -17.2991    0.0000 C   0  0  0  0  0  0  0  0  0  0  0  0
   -4.9827  -17.7119    0.0000 C   0  0  0  0  0  0  0  0  0  0  0  0
   -4.9845  -16.0592    0.0000 C   0  0  0  0  0  0  0  0  0  0  0  0
   -4.2692  -16.4683    0.0000 C   0  0  0  0  0  0  0  0  0  0  0  0
   -4.2658  -17.3012    0.0000 C   0  0  0  0  0  0  0  0  0  0  0  0
   -3.5467  -17.7124    0.0000 C   0  0  0  0  0  0  0  0  0  0  0  0
   -2.8265  -17.2953    0.0000 N   0  0  0  0  0  0  0  0  0  0  0  0
   -2.8300  -16.4624    0.0000 C   0  0  0  0  0  0  0  0  0  0  0  0
   -3.5536  -16.0465    0.0000 C   0  0  0  0  0  0  0  0  0  0  0  0
   -2.1110  -17.7058    0.0000 C   0  0  0  0  0  0  0  0  0  0  0  0
   -1.3978  -17.2914    0.0000 C   0  0  0  0  0  0  0  0  0  0  0  0
   -0.6824  -17.7019    0.0000 C   0  0  0  0  0  0  0  0  0  0  0  0
   -0.6838  -18.5269    0.0000 C   0  0  0  0  0  0  0  0  0  0  0  0
    0.0309  -18.9372    0.0000 C   0  0  0  0  0  0  0  0  0  0  0  0
    0.7451  -18.5228    0.0000 C   0  0  0  0  0  0  0  0  0  0  0  0
    0.7402  -17.6937    0.0000 C   0  0  0  0  0  0  0  0  0  0  0  0
    0.0250  -17.2870    0.0000 C   0  0  0  0  0  0  0  0  0  0  0  0
    1.4611  -18.9323    0.0000 N   0  0  0  0  0  0  0  0  0  0  0  0
    2.1737  -18.5170    0.0000 C   0  0  0  0  0  0  0  0  0  0  0  0
    2.8898  -18.9265    0.0000 C   0  0  0  0  0  0  0  0  0  0  0  0
    2.1704  -17.6921    0.0000 O   0  0  0  0  0  0  0  0  0  0  0  0
    2.8917  -19.7516    0.0000 C   0  0  0  0  0  0  0  0  0  0  0  0
    3.6068  -20.1611    0.0000 N   0  0  0  0  0  0  0  0  0  0  0  0
    3.5987  -18.5109    0.0000 C   0  0  0  0  0  0  0  0  0  0  0  0
    4.3145  -18.9166    0.0000 C   0  0  0  0  0  0  0  0  0  0  0  0
    4.3174  -19.7446    0.0000 C   0  0  0  0  0  0  0  0  0  0  0  0
    5.0348  -20.1542    0.0000 C   0  0  0  0  0  0  0  0  0  0  0  0
    5.7497  -19.7370    0.0000 C   0  0  0  0  0  0  0  0  0  0  0  0
    5.7427  -18.9059    0.0000 C   0  0  0  0  0  0  0  0  0  0  0  0
    5.0248  -18.5000    0.0000 C   0  0  0  0  0  0  0  0  0  0  0  0
 14 15  2  0
  5  4  1  0
 15 16  1  0
  4  1  2  0
 16 17  2  0
  5 10  1  0
 17 18  1  0
 18 13  2  0
  6  7  1  0
 16 19  1  0
  7  8  1  0
 19 20  1  0
  8  9  1  0
 20 21  1  0
  9 10  1  0
 20 22  2  0
  5  6  2  0
 21 23  2  0
  8 11  1  0
 23 24  1  0
 24 27  2  0
 26 25  2  0
 25 21  1  0
 11 12  1  0
  2  3  2  0
 26 27  1  0
 12 13  1  0
 27 28  1  0
  3  6  1  0
 28 29  2  0
 13 14  1  0
 29 30  1  0
  1  2  1  0
 30 31  2  0
 31 26  1  0
M  END
>  <Classification>  (56) 
1

>  <pchembl>  (56) 
5.3

>  <InChI_steorem>  (56) 
InChI=1S/C27H25N3O/c31-27(24-17-22-6-3-4-8-26(22)28-18-24)29-25-11-9-20(10-12-25)13-15-30-16-14-21-5-1-2-7-23(21)19-30/h1-12,17-18H,13-16,19H2,(H,29,31)

>  <source>  (56) 
ChEMBL25

>  <source_id>  (56) 
25

>  <optional_reference>  (56) 
10.1016/j.bmc.2008.07.034

>  <optional_origin>  (56) 
None

>  <target>  (56) 
BCRP

$$$$

     RDKit          2D

 32 35  0  0  0  0  0  0  0  0999 V2000
    5.7398   -7.3536    0.0000 C   0  0  0  0  0  0  0  0  0  0  0  0
    5.7387   -8.1810    0.0000 C   0  0  0  0  0  0  0  0  0  0  0  0
    6.4535   -8.5938    0.0000 C   0  0  0  0  0  0  0  0  0  0  0  0
    6.4517   -6.9409    0.0000 C   0  0  0  0  0  0  0  0  0  0  0  0
    7.1670   -7.3500    0.0000 C   0  0  0  0  0  0  0  0  0  0  0  0
    7.1704   -8.1831    0.0000 C   0  0  0  0  0  0  0  0  0  0  0  0
    7.8896   -8.5943    0.0000 C   0  0  0  0  0  0  0  0  0  0  0  0
    8.6099   -8.1772    0.0000 N   0  0  0  0  0  0  0  0  0  0  0  0
    8.6064   -7.3441    0.0000 C   0  0  0  0  0  0  0  0  0  0  0  0
    7.8827   -6.9282    0.0000 C   0  0  0  0  0  0  0  0  0  0  0  0
    9.3255   -8.5876    0.0000 C   0  0  0  0  0  0  0  0  0  0  0  0
   10.0387   -8.1733    0.0000 C   0  0  0  0  0  0  0  0  0  0  0  0
   10.7543   -8.5837    0.0000 C   0  0  0  0  0  0  0  0  0  0  0  0
   10.7529   -9.4088    0.0000 C   0  0  0  0  0  0  0  0  0  0  0  0
   11.4676   -9.8193    0.0000 C   0  0  0  0  0  0  0  0  0  0  0  0
   12.1819   -9.4048    0.0000 C   0  0  0  0  0  0  0  0  0  0  0  0
   12.1770   -8.5755    0.0000 C   0  0  0  0  0  0  0  0  0  0  0  0
   11.4617   -8.1689    0.0000 C   0  0  0  0  0  0  0  0  0  0  0  0
   12.8981   -9.8144    0.0000 N   0  0  0  0  0  0  0  0  0  0  0  0
   13.6107   -9.3990    0.0000 C   0  0  0  0  0  0  0  0  0  0  0  0
   14.3269   -9.8086    0.0000 C   0  0  0  0  0  0  0  0  0  0  0  0
   13.6074   -8.5740    0.0000 O   0  0  0  0  0  0  0  0  0  0  0  0
   14.3288  -10.6337    0.0000 C   0  0  0  0  0  0  0  0  0  0  0  0
   15.0440  -11.0432    0.0000 C   0  0  0  0  0  0  0  0  0  0  0  0
   15.0359   -9.3928    0.0000 C   0  0  0  0  0  0  0  0  0  0  0  0
   15.7518   -9.7986    0.0000 C   0  0  0  0  0  0  0  0  0  0  0  0
   15.7547  -10.6266    0.0000 C   0  0  0  0  0  0  0  0  0  0  0  0
    5.0254   -6.9413    0.0000 O   0  0  0  0  0  0  0  0  0  0  0  0
    5.0252   -6.1164    0.0000 C   0  0  0  0  0  0  0  0  0  0  0  0
    5.0240   -8.5928    0.0000 O   0  0  0  0  0  0  0  0  0  0  0  0
    4.3098   -8.1799    0.0000 C   0  0  0  0  0  0  0  0  0  0  0  0
   16.4638   -9.3820    0.0000 Br  0  0  0  0  0  0  0  0  0  0  0  0
  5  4  1  0
 15 16  2  0
  4  1  2  0
 16 17  1  0
  5 10  1  0
 17 18  2  0
 18 13  1  0
  6  7  1  0
 16 19  1  0
  7  8  1  0
 19 20  1  0
  8  9  1  0
 20 21  1  0
  9 10  1  0
 20 22  2  0
  5  6  2  0
 21 23  2  0
  8 11  1  0
 23 24  1  0
 24 27  2  0
 26 25  2  0
 25 21  1  0
 11 12  1  0
  2  3  2  0
 26 27  1  0
 12 13  1  0
  1 28  1  0
  3  6  1  0
 28 29  1  0
 13 14  2  0
  2 30  1  0
  1  2  1  0
 30 31  1  0
 14 15  1  0
 26 32  1  0
M  END
>  <Classification>  (57) 
0

>  <pchembl>  (57) 
4.64

>  <InChI_steorem>  (57) 
InChI=1S/C26H27BrN2O3/c1-31-24-15-19-11-13-29(17-21(19)16-25(24)32-2)12-10-18-6-8-23(9-7-18)28-26(30)20-4-3-5-22(27)14-20/h3-9,14-16H,10-13,17H2,1-2H3,(H,28,30)

>  <source>  (57) 
ChEMBL25

>  <source_id>  (57) 
25

>  <optional_reference>  (57) 
10.1016/j.bmc.2008.07.034

>  <optional_origin>  (57) 
None

>  <target>  (57) 
BCRP

$$$$

     RDKit          2D

 32 35  0  0  0  0  0  0  0  0999 V2000
   -6.3561   -8.8530    0.0000 C   0  0  0  0  0  0  0  0  0  0  0  0
   -6.3549   -9.6803    0.0000 C   0  0  0  0  0  0  0  0  0  0  0  0
   -5.6371  -10.0932    0.0000 C   0  0  0  0  0  0  0  0  0  0  0  0
   -5.6389   -8.4404    0.0000 C   0  0  0  0  0  0  0  0  0  0  0  0
   -4.9236   -8.8494    0.0000 C   0  0  0  0  0  0  0  0  0  0  0  0
   -4.9202   -9.6824    0.0000 C   0  0  0  0  0  0  0  0  0  0  0  0
   -4.2011  -10.0937    0.0000 C   0  0  0  0  0  0  0  0  0  0  0  0
   -3.4808   -9.6765    0.0000 N   0  0  0  0  0  0  0  0  0  0  0  0
   -3.4842   -8.8435    0.0000 C   0  0  0  0  0  0  0  0  0  0  0  0
   -4.2079   -8.4277    0.0000 C   0  0  0  0  0  0  0  0  0  0  0  0
   -2.7653  -10.0870    0.0000 C   0  0  0  0  0  0  0  0  0  0  0  0
   -2.0520   -9.6726    0.0000 C   0  0  0  0  0  0  0  0  0  0  0  0
   -1.3365  -10.0831    0.0000 C   0  0  0  0  0  0  0  0  0  0  0  0
   -1.3378  -10.9081    0.0000 C   0  0  0  0  0  0  0  0  0  0  0  0
   -0.6232  -11.3185    0.0000 C   0  0  0  0  0  0  0  0  0  0  0  0
    0.0911  -10.9041    0.0000 C   0  0  0  0  0  0  0  0  0  0  0  0
    0.0861  -10.0749    0.0000 C   0  0  0  0  0  0  0  0  0  0  0  0
   -0.6291   -9.6682    0.0000 C   0  0  0  0  0  0  0  0  0  0  0  0
    0.8071  -11.3136    0.0000 N   0  0  0  0  0  0  0  0  0  0  0  0
    1.5198  -10.8983    0.0000 C   0  0  0  0  0  0  0  0  0  0  0  0
    2.2358  -11.3078    0.0000 C   0  0  0  0  0  0  0  0  0  0  0  0
    1.5164  -10.0734    0.0000 O   0  0  0  0  0  0  0  0  0  0  0  0
    2.2378  -12.1329    0.0000 C   0  0  0  0  0  0  0  0  0  0  0  0
    2.9530  -12.5424    0.0000 C   0  0  0  0  0  0  0  0  0  0  0  0
    2.9449  -10.8921    0.0000 C   0  0  0  0  0  0  0  0  0  0  0  0
    3.6607  -11.2978    0.0000 C   0  0  0  0  0  0  0  0  0  0  0  0
    3.6637  -12.1258    0.0000 C   0  0  0  0  0  0  0  0  0  0  0  0
   -7.0664   -8.4408    0.0000 O   0  0  0  0  0  0  0  0  0  0  0  0
   -7.0662   -7.6159    0.0000 C   0  0  0  0  0  0  0  0  0  0  0  0
   -7.0734  -10.0922    0.0000 O   0  0  0  0  0  0  0  0  0  0  0  0
   -7.7841   -9.6792    0.0000 C   0  0  0  0  0  0  0  0  0  0  0  0
    4.3801  -12.5347    0.0000 Br  0  0  0  0  0  0  0  0  0  0  0  0
  5  4  1  0
 15 16  2  0
  4  1  2  0
 16 17  1  0
  5 10  1  0
 17 18  2  0
 18 13  1  0
  6  7  1  0
 16 19  1  0
  7  8  1  0
 19 20  1  0
  8  9  1  0
 20 21  1  0
  9 10  1  0
 20 22  2  0
  5  6  2  0
 21 23  2  0
  8 11  1  0
 23 24  1  0
 24 27  2  0
 26 25  2  0
 25 21  1  0
 11 12  1  0
  2  3  2  0
 26 27  1  0
 12 13  1  0
  1 28  1  0
  3  6  1  0
 28 29  1  0
 13 14  2  0
  2 30  1  0
  1  2  1  0
 30 31  1  0
 14 15  1  0
 27 32  1  0
M  END
>  <Classification>  (58) 
0

>  <pchembl>  (58) 
4.94

>  <InChI_steorem>  (58) 
InChI=1S/C26H27BrN2O3/c1-31-24-15-20-12-14-29(17-21(20)16-25(24)32-2)13-11-18-3-9-23(10-4-18)28-26(30)19-5-7-22(27)8-6-19/h3-10,15-16H,11-14,17H2,1-2H3,(H,28,30)

>  <source>  (58) 
ChEMBL25

>  <source_id>  (58) 
25

>  <optional_reference>  (58) 
10.1016/j.bmc.2008.07.034

>  <optional_origin>  (58) 
None

>  <target>  (58) 
BCRP

$$$$

     RDKit          2D

 32 35  0  0  0  0  0  0  0  0999 V2000
   -6.4144   -5.2910    0.0000 C   0  0  0  0  0  0  0  0  0  0  0  0
   -6.4133   -6.1182    0.0000 C   0  0  0  0  0  0  0  0  0  0  0  0
   -5.6954   -6.5311    0.0000 C   0  0  0  0  0  0  0  0  0  0  0  0
   -5.6972   -4.8783    0.0000 C   0  0  0  0  0  0  0  0  0  0  0  0
   -4.9819   -5.2874    0.0000 C   0  0  0  0  0  0  0  0  0  0  0  0
   -4.9785   -6.1203    0.0000 C   0  0  0  0  0  0  0  0  0  0  0  0
   -4.2594   -6.5316    0.0000 C   0  0  0  0  0  0  0  0  0  0  0  0
   -3.5391   -6.1145    0.0000 N   0  0  0  0  0  0  0  0  0  0  0  0
   -3.5426   -5.2815    0.0000 C   0  0  0  0  0  0  0  0  0  0  0  0
   -4.2663   -4.8656    0.0000 C   0  0  0  0  0  0  0  0  0  0  0  0
   -2.8236   -6.5249    0.0000 C   0  0  0  0  0  0  0  0  0  0  0  0
   -2.1103   -6.1106    0.0000 C   0  0  0  0  0  0  0  0  0  0  0  0
   -1.3948   -6.5210    0.0000 C   0  0  0  0  0  0  0  0  0  0  0  0
   -1.3962   -7.3460    0.0000 C   0  0  0  0  0  0  0  0  0  0  0  0
   -0.6815   -7.7564    0.0000 C   0  0  0  0  0  0  0  0  0  0  0  0
    0.0327   -7.3420    0.0000 C   0  0  0  0  0  0  0  0  0  0  0  0
    0.0278   -6.5128    0.0000 C   0  0  0  0  0  0  0  0  0  0  0  0
   -0.6874   -6.1062    0.0000 C   0  0  0  0  0  0  0  0  0  0  0  0
    0.7488   -7.7515    0.0000 N   0  0  0  0  0  0  0  0  0  0  0  0
    1.4614   -7.3362    0.0000 C   0  0  0  0  0  0  0  0  0  0  0  0
    2.1775   -7.7457    0.0000 C   0  0  0  0  0  0  0  0  0  0  0  0
    1.4581   -6.5113    0.0000 O   0  0  0  0  0  0  0  0  0  0  0  0
    2.1794   -8.5708    0.0000 C   0  0  0  0  0  0  0  0  0  0  0  0
    2.8946   -8.9803    0.0000 C   0  0  0  0  0  0  0  0  0  0  0  0
    2.8865   -7.3300    0.0000 C   0  0  0  0  0  0  0  0  0  0  0  0
    3.6024   -7.7358    0.0000 C   0  0  0  0  0  0  0  0  0  0  0  0
    3.6053   -8.5637    0.0000 C   0  0  0  0  0  0  0  0  0  0  0  0
   -7.1248   -4.8787    0.0000 O   0  0  0  0  0  0  0  0  0  0  0  0
   -7.1246   -4.0538    0.0000 C   0  0  0  0  0  0  0  0  0  0  0  0
   -7.1317   -6.5301    0.0000 O   0  0  0  0  0  0  0  0  0  0  0  0
   -7.8425   -6.1171    0.0000 C   0  0  0  0  0  0  0  0  0  0  0  0
    2.8805   -6.5052    0.0000 Br  0  0  0  0  0  0  0  0  0  0  0  0
  5  4  1  0
 15 16  2  0
  4  1  2  0
 16 17  1  0
  5 10  1  0
 17 18  2  0
 18 13  1  0
  6  7  1  0
 16 19  1  0
  7  8  1  0
 19 20  1  0
  8  9  1  0
 20 21  1  0
  9 10  1  0
 20 22  2  0
  5  6  2  0
 21 23  2  0
  8 11  1  0
 23 24  1  0
 24 27  2  0
 26 25  2  0
 25 21  1  0
 11 12  1  0
  2  3  2  0
 26 27  1  0
 12 13  1  0
  1 28  1  0
  3  6  1  0
 28 29  1  0
 13 14  2  0
  2 30  1  0
  1  2  1  0
 30 31  1  0
 14 15  1  0
 25 32  1  0
M  END
>  <Classification>  (59) 
0

>  <pchembl>  (59) 
4.66

>  <InChI_steorem>  (59) 
InChI=1S/C26H27BrN2O3/c1-31-24-15-19-12-14-29(17-20(19)16-25(24)32-2)13-11-18-7-9-21(10-8-18)28-26(30)22-5-3-4-6-23(22)27/h3-10,15-16H,11-14,17H2,1-2H3,(H,28,30)

>  <source>  (59) 
ChEMBL25

>  <source_id>  (59) 
25

>  <optional_reference>  (59) 
10.1016/j.bmc.2008.07.034

>  <optional_origin>  (59) 
None

>  <target>  (59) 
BCRP

$$$$

     RDKit          2D

 35 38  0  0  0  0  0  0  0  0999 V2000
    6.0819  -10.8208    0.0000 C   0  0  0  0  0  0  0  0  0  0  0  0
    6.0807  -11.6482    0.0000 C   0  0  0  0  0  0  0  0  0  0  0  0
    6.7956  -12.0610    0.0000 C   0  0  0  0  0  0  0  0  0  0  0  0
    6.7938  -10.4080    0.0000 C   0  0  0  0  0  0  0  0  0  0  0  0
    7.5091  -10.8172    0.0000 C   0  0  0  0  0  0  0  0  0  0  0  0
    7.5126  -11.6502    0.0000 C   0  0  0  0  0  0  0  0  0  0  0  0
    8.2317  -12.0615    0.0000 C   0  0  0  0  0  0  0  0  0  0  0  0
    8.9521  -11.6443    0.0000 N   0  0  0  0  0  0  0  0  0  0  0  0
    8.9487  -10.8113    0.0000 C   0  0  0  0  0  0  0  0  0  0  0  0
    8.2249  -10.3954    0.0000 C   0  0  0  0  0  0  0  0  0  0  0  0
    9.6677  -12.0549    0.0000 C   0  0  0  0  0  0  0  0  0  0  0  0
   10.3811  -11.6404    0.0000 C   0  0  0  0  0  0  0  0  0  0  0  0
   11.0967  -12.0510    0.0000 C   0  0  0  0  0  0  0  0  0  0  0  0
   11.0953  -12.8761    0.0000 C   0  0  0  0  0  0  0  0  0  0  0  0
   11.8101  -13.2866    0.0000 C   0  0  0  0  0  0  0  0  0  0  0  0
   12.5244  -12.8721    0.0000 C   0  0  0  0  0  0  0  0  0  0  0  0
   12.5195  -12.0428    0.0000 C   0  0  0  0  0  0  0  0  0  0  0  0
   11.8042  -11.6361    0.0000 C   0  0  0  0  0  0  0  0  0  0  0  0
   13.2405  -13.2817    0.0000 N   0  0  0  0  0  0  0  0  0  0  0  0
   13.9533  -12.8663    0.0000 C   0  0  0  0  0  0  0  0  0  0  0  0
   14.6694  -13.2759    0.0000 C   0  0  0  0  0  0  0  0  0  0  0  0
   13.9500  -12.0413    0.0000 O   0  0  0  0  0  0  0  0  0  0  0  0
   14.6714  -14.1011    0.0000 C   0  0  0  0  0  0  0  0  0  0  0  0
   15.3867  -14.5106    0.0000 C   0  0  0  0  0  0  0  0  0  0  0  0
   15.3786  -12.8601    0.0000 C   0  0  0  0  0  0  0  0  0  0  0  0
   16.0945  -13.2659    0.0000 C   0  0  0  0  0  0  0  0  0  0  0  0
   16.0974  -14.0940    0.0000 C   0  0  0  0  0  0  0  0  0  0  0  0
    5.3673  -10.4085    0.0000 O   0  0  0  0  0  0  0  0  0  0  0  0
    5.3671   -9.5835    0.0000 C   0  0  0  0  0  0  0  0  0  0  0  0
    5.3659  -12.0601    0.0000 O   0  0  0  0  0  0  0  0  0  0  0  0
    4.6518  -11.6470    0.0000 C   0  0  0  0  0  0  0  0  0  0  0  0
   16.8066  -12.8493    0.0000 O   0  0  0  0  0  0  0  0  0  0  0  0
   17.5234  -13.2577    0.0000 C   0  0  0  0  0  0  0  0  0  0  0  0
   16.8140  -14.5029    0.0000 O   0  0  0  0  0  0  0  0  0  0  0  0
   16.8181  -15.3279    0.0000 C   0  0  0  0  0  0  0  0  0  0  0  0
 16 17  1  0
  5 10  1  0
 17 18  2  0
 18 13  1  0
  6  7  1  0
 16 19  1  0
  7  8  1  0
 19 20  1  0
  8  9  1  0
 20 21  1  0
  9 10  1  0
 20 22  2  0
  5  6  1  0
 21 23  2  0
  8 11  1  0
 23 24  1  0
 24 27  2  0
 26 25  2  0
 25 21  1  0
 11 12  1  0
  2  3  1  0
 26 27  1  0
 12 13  1  0
  1 28  1  0
  3  6  2  0
 28 29  1  0
 13 14  2  0
  2 30  1  0
  1  2  2  0
 30 31  1  0
 14 15  1  0
 26 32  1  0
  5  4  2  0
 32 33  1  0
 15 16  2  0
 27 34  1  0
  4  1  1  0
 34 35  1  0
M  END
>  <Classification>  (60) 
0

>  <pchembl>  (60) 
4.32

>  <InChI_steorem>  (60) 
InChI=1S/C28H32N2O5/c1-32-24-10-7-21(16-25(24)33-2)28(31)29-23-8-5-19(6-9-23)11-13-30-14-12-20-15-26(34-3)27(35-4)17-22(20)18-30/h5-10,15-17H,11-14,18H2,1-4H3,(H,29,31)

>  <source>  (60) 
ChEMBL25

>  <source_id>  (60) 
25

>  <optional_reference>  (60) 
10.1016/j.bmc.2008.07.034

>  <optional_origin>  (60) 
None

>  <target>  (60) 
BCRP

$$$$

     RDKit          2D

 35 39  0  0  0  0  0  0  0  0999 V2000
   -3.6056  -20.5375    0.0000 C   0  0  0  0  0  0  0  0  0  0  0  0
   -3.6068  -21.3648    0.0000 C   0  0  0  0  0  0  0  0  0  0  0  0
   -2.8919  -21.7777    0.0000 C   0  0  0  0  0  0  0  0  0  0  0  0
   -2.8937  -20.1247    0.0000 C   0  0  0  0  0  0  0  0  0  0  0  0
   -2.1784  -20.5338    0.0000 C   0  0  0  0  0  0  0  0  0  0  0  0
   -2.1749  -21.3669    0.0000 C   0  0  0  0  0  0  0  0  0  0  0  0
   -1.4558  -21.7782    0.0000 C   0  0  0  0  0  0  0  0  0  0  0  0
   -0.7354  -21.3610    0.0000 N   0  0  0  0  0  0  0  0  0  0  0  0
   -0.7388  -20.5279    0.0000 C   0  0  0  0  0  0  0  0  0  0  0  0
   -1.4626  -20.1120    0.0000 C   0  0  0  0  0  0  0  0  0  0  0  0
   -0.0198  -21.7716    0.0000 C   0  0  0  0  0  0  0  0  0  0  0  0
    0.6936  -21.3571    0.0000 C   0  0  0  0  0  0  0  0  0  0  0  0
    1.4092  -21.7677    0.0000 C   0  0  0  0  0  0  0  0  0  0  0  0
    1.4078  -22.5928    0.0000 C   0  0  0  0  0  0  0  0  0  0  0  0
    2.1226  -23.0032    0.0000 C   0  0  0  0  0  0  0  0  0  0  0  0
    2.8369  -22.5887    0.0000 C   0  0  0  0  0  0  0  0  0  0  0  0
    2.8320  -21.7595    0.0000 C   0  0  0  0  0  0  0  0  0  0  0  0
    2.1167  -21.3527    0.0000 C   0  0  0  0  0  0  0  0  0  0  0  0
    3.5530  -22.9983    0.0000 N   0  0  0  0  0  0  0  0  0  0  0  0
    4.2658  -22.5829    0.0000 C   0  0  0  0  0  0  0  0  0  0  0  0
    4.9819  -22.9925    0.0000 C   0  0  0  0  0  0  0  0  0  0  0  0
    4.2625  -21.7579    0.0000 O   0  0  0  0  0  0  0  0  0  0  0  0
   -4.3202  -20.1251    0.0000 O   0  0  0  0  0  0  0  0  0  0  0  0
   -4.3204  -19.3001    0.0000 C   0  0  0  0  0  0  0  0  0  0  0  0
   -4.3216  -21.7768    0.0000 O   0  0  0  0  0  0  0  0  0  0  0  0
   -5.0357  -21.3637    0.0000 C   0  0  0  0  0  0  0  0  0  0  0  0
    4.9839  -23.8177    0.0000 C   0  0  0  0  0  0  0  0  0  0  0  0
    5.6992  -24.2273    0.0000 C   0  0  0  0  0  0  0  0  0  0  0  0
    6.4130  -23.8118    0.0000 N   0  0  0  0  0  0  0  0  0  0  0  0
    5.6911  -22.5768    0.0000 C   0  0  0  0  0  0  0  0  0  0  0  0
    6.4054  -22.9831    0.0000 C   0  0  0  0  0  0  0  0  0  0  0  0
    7.1124  -22.5677    0.0000 C   0  0  0  0  0  0  0  0  0  0  0  0
    7.1062  -21.7461    0.0000 C   0  0  0  0  0  0  0  0  0  0  0  0
    6.3871  -21.3418    0.0000 C   0  0  0  0  0  0  0  0  0  0  0  0
    5.6832  -21.7595    0.0000 C   0  0  0  0  0  0  0  0  0  0  0  0
 16 17  1  0
  5 10  1  0
 17 18  2  0
 18 13  1  0
  6  7  1  0
 16 19  1  0
  7  8  1  0
 19 20  1  0
  8  9  1  0
 20 21  1  0
  9 10  1  0
 20 22  2  0
  5  6  1  0
  1 23  1  0
  8 11  1  0
 23 24  1  0
  2 25  1  0
 11 12  1  0
 25 26  1  0
  2  3  1  0
 21 27  2  0
 12 13  1  0
 27 28  1  0
  3  6  2  0
 28 29  2  0
 29 31  1  0
 30 21  1  0
 13 14  2  0
  1  2  2  0
 30 31  2  0
 14 15  1  0
 31 32  1  0
  5  4  2  0
 32 33  2  0
 15 16  2  0
 33 34  1  0
  4  1  1  0
 34 35  2  0
 35 30  1  0
M  END
>  <Classification>  (61) 
0

>  <pchembl>  (61) 
4.44

>  <InChI_steorem>  (61) 
InChI=1S/C29H29N3O3/c1-34-27-17-21-13-16-32(19-22(21)18-28(27)35-2)15-12-20-7-9-23(10-8-20)31-29(33)25-11-14-30-26-6-4-3-5-24(25)26/h3-11,14,17-18H,12-13,15-16,19H2,1-2H3,(H,31,33)

>  <source>  (61) 
ChEMBL25

>  <source_id>  (61) 
25

>  <optional_reference>  (61) 
10.1016/j.bmc.2008.07.034

>  <optional_origin>  (61) 
None

>  <target>  (61) 
BCRP

$$$$

     RDKit          2D

 35 39  0  0  0  0  0  0  0  0999 V2000
   -4.0379    1.6371    0.0000 C   0  0  0  0  0  0  0  0  0  0  0  0
   -4.0391    0.8100    0.0000 C   0  0  0  0  0  0  0  0  0  0  0  0
   -3.3245    0.3972    0.0000 C   0  0  0  0  0  0  0  0  0  0  0  0
   -3.3263    2.0498    0.0000 C   0  0  0  0  0  0  0  0  0  0  0  0
   -2.6111    1.6408    0.0000 C   0  0  0  0  0  0  0  0  0  0  0  0
   -2.6077    0.8079    0.0000 C   0  0  0  0  0  0  0  0  0  0  0  0
   -1.8886    0.3967    0.0000 C   0  0  0  0  0  0  0  0  0  0  0  0
   -1.1684    0.8138    0.0000 N   0  0  0  0  0  0  0  0  0  0  0  0
   -1.1718    1.6467    0.0000 C   0  0  0  0  0  0  0  0  0  0  0  0
   -1.8954    2.0625    0.0000 C   0  0  0  0  0  0  0  0  0  0  0  0
   -0.4530    0.4033    0.0000 C   0  0  0  0  0  0  0  0  0  0  0  0
    0.2601    0.8177    0.0000 C   0  0  0  0  0  0  0  0  0  0  0  0
    0.9756    0.4072    0.0000 C   0  0  0  0  0  0  0  0  0  0  0  0
    0.9743   -0.4177    0.0000 C   0  0  0  0  0  0  0  0  0  0  0  0
    1.6888   -0.8280    0.0000 C   0  0  0  0  0  0  0  0  0  0  0  0
    2.4030   -0.4136    0.0000 C   0  0  0  0  0  0  0  0  0  0  0  0
    2.3980    0.4154    0.0000 C   0  0  0  0  0  0  0  0  0  0  0  0
    1.6829    0.8221    0.0000 C   0  0  0  0  0  0  0  0  0  0  0  0
    3.1189   -0.8231    0.0000 N   0  0  0  0  0  0  0  0  0  0  0  0
    3.8316   -0.4078    0.0000 C   0  0  0  0  0  0  0  0  0  0  0  0
    4.5475   -0.8173    0.0000 C   0  0  0  0  0  0  0  0  0  0  0  0
    3.8282    0.4170    0.0000 O   0  0  0  0  0  0  0  0  0  0  0  0
    4.5495   -1.6423    0.0000 C   0  0  0  0  0  0  0  0  0  0  0  0
    5.2646   -2.0518    0.0000 N   0  0  0  0  0  0  0  0  0  0  0  0
    5.2565   -0.4017    0.0000 N   0  0  0  0  0  0  0  0  0  0  0  0
    5.9721   -0.8074    0.0000 C   0  0  0  0  0  0  0  0  0  0  0  0
    5.9751   -1.6353    0.0000 C   0  0  0  0  0  0  0  0  0  0  0  0
    6.6925   -2.0449    0.0000 C   0  0  0  0  0  0  0  0  0  0  0  0
    7.4073   -1.6277    0.0000 C   0  0  0  0  0  0  0  0  0  0  0  0
    7.4003   -0.7967    0.0000 C   0  0  0  0  0  0  0  0  0  0  0  0
    6.6825   -0.3908    0.0000 C   0  0  0  0  0  0  0  0  0  0  0  0
   -4.7523    2.0494    0.0000 O   0  0  0  0  0  0  0  0  0  0  0  0
   -4.7525    2.8742    0.0000 C   0  0  0  0  0  0  0  0  0  0  0  0
   -4.7537    0.3981    0.0000 O   0  0  0  0  0  0  0  0  0  0  0  0
   -5.4677    0.8111    0.0000 C   0  0  0  0  0  0  0  0  0  0  0  0
 16 17  1  0
  5 10  1  0
 17 18  2  0
 18 13  1  0
  6  7  1  0
 16 19  1  0
  7  8  1  0
 19 20  1  0
  8  9  1  0
 20 21  1  0
  9 10  1  0
 20 22  2  0
  5  6  1  0
 21 23  2  0
  8 11  1  0
 23 24  1  0
 24 27  2  0
 26 25  2  0
 25 21  1  0
 11 12  1  0
  2  3  1  0
 26 27  1  0
 12 13  1  0
 27 28  1  0
  3  6  2  0
 28 29  2  0
 13 14  2  0
 29 30  1  0
  1  2  2  0
 30 31  2  0
 31 26  1  0
 14 15  1  0
  1 32  1  0
  5  4  2  0
 32 33  1  0
 15 16  2  0
  2 34  1  0
  4  1  1  0
 34 35  1  0
M  END
>  <Classification>  (62) 
1

>  <pchembl>  (62) 
5.22

>  <InChI_steorem>  (62) 
InChI=1S/C28H28N4O3/c1-34-26-15-20-12-14-32(18-21(20)16-27(26)35-2)13-11-19-7-9-22(10-8-19)30-28(33)25-17-29-23-5-3-4-6-24(23)31-25/h3-10,15-17H,11-14,18H2,1-2H3,(H,30,33)

>  <source>  (62) 
ChEMBL25

>  <source_id>  (62) 
25

>  <optional_reference>  (62) 
10.1016/j.bmc.2008.07.034

>  <optional_origin>  (62) 
None

>  <target>  (62) 
BCRP

$$$$

     RDKit          2D

 35 39  0  0  0  0  0  0  0  0999 V2000
    6.0611    1.8209    0.0000 C   0  0  0  0  0  0  0  0  0  0  0  0
    6.0599    0.9935    0.0000 C   0  0  0  0  0  0  0  0  0  0  0  0
    6.7747    0.5806    0.0000 C   0  0  0  0  0  0  0  0  0  0  0  0
    6.7729    2.2336    0.0000 C   0  0  0  0  0  0  0  0  0  0  0  0
    7.4883    1.8245    0.0000 C   0  0  0  0  0  0  0  0  0  0  0  0
    7.4917    0.9914    0.0000 C   0  0  0  0  0  0  0  0  0  0  0  0
    8.2109    0.5801    0.0000 C   0  0  0  0  0  0  0  0  0  0  0  0
    8.9313    0.9973    0.0000 N   0  0  0  0  0  0  0  0  0  0  0  0
    8.9279    1.8304    0.0000 C   0  0  0  0  0  0  0  0  0  0  0  0
    8.2041    2.2463    0.0000 C   0  0  0  0  0  0  0  0  0  0  0  0
    9.6469    0.5868    0.0000 C   0  0  0  0  0  0  0  0  0  0  0  0
   10.3602    1.0012    0.0000 C   0  0  0  0  0  0  0  0  0  0  0  0
   11.0758    0.5907    0.0000 C   0  0  0  0  0  0  0  0  0  0  0  0
   11.0745   -0.2344    0.0000 C   0  0  0  0  0  0  0  0  0  0  0  0
   11.7892   -0.6449    0.0000 C   0  0  0  0  0  0  0  0  0  0  0  0
   12.5036   -0.2304    0.0000 C   0  0  0  0  0  0  0  0  0  0  0  0
   12.4986    0.5989    0.0000 C   0  0  0  0  0  0  0  0  0  0  0  0
   11.7833    1.0056    0.0000 C   0  0  0  0  0  0  0  0  0  0  0  0
   13.2197   -0.6400    0.0000 N   0  0  0  0  0  0  0  0  0  0  0  0
   13.9325   -0.2246    0.0000 C   0  0  0  0  0  0  0  0  0  0  0  0
   14.6486   -0.6342    0.0000 C   0  0  0  0  0  0  0  0  0  0  0  0
   13.9291    0.6004    0.0000 O   0  0  0  0  0  0  0  0  0  0  0  0
    5.3465    2.2332    0.0000 O   0  0  0  0  0  0  0  0  0  0  0  0
    5.3463    3.0582    0.0000 C   0  0  0  0  0  0  0  0  0  0  0  0
    5.3451    0.5816    0.0000 O   0  0  0  0  0  0  0  0  0  0  0  0
    4.6310    0.9946    0.0000 C   0  0  0  0  0  0  0  0  0  0  0  0
   14.6506   -1.4594    0.0000 C   0  0  0  0  0  0  0  0  0  0  0  0
   15.3659   -1.8689    0.0000 C   0  0  0  0  0  0  0  0  0  0  0  0
   16.0796   -1.4535    0.0000 C   0  0  0  0  0  0  0  0  0  0  0  0
   15.3578   -0.2184    0.0000 C   0  0  0  0  0  0  0  0  0  0  0  0
   16.0721   -0.6248    0.0000 C   0  0  0  0  0  0  0  0  0  0  0  0
   16.7790   -0.2094    0.0000 C   0  0  0  0  0  0  0  0  0  0  0  0
   16.7728    0.6122    0.0000 C   0  0  0  0  0  0  0  0  0  0  0  0
   16.0538    1.0166    0.0000 C   0  0  0  0  0  0  0  0  0  0  0  0
   15.3498    0.5989    0.0000 C   0  0  0  0  0  0  0  0  0  0  0  0
 16 17  1  0
  5 10  1  0
 17 18  2  0
 18 13  1  0
  6  7  1  0
 16 19  1  0
  7  8  1  0
 19 20  1  0
  8  9  1  0
 20 21  1  0
  9 10  1  0
 20 22  2  0
  5  6  1  0
  1 23  1  0
  8 11  1  0
 23 24  1  0
  2 25  1  0
 11 12  1  0
 25 26  1  0
  2  3  1  0
 21 27  2  0
 12 13  1  0
 27 28  1  0
  3  6  2  0
 28 29  2  0
 29 31  1  0
 30 21  1  0
 13 14  2  0
  1  2  2  0
 30 31  2  0
 14 15  1  0
 31 32  1  0
  5  4  2  0
 32 33  2  0
 15 16  2  0
 33 34  1  0
  4  1  1  0
 34 35  2  0
 35 30  1  0
M  END
>  <Classification>  (63) 
0

>  <pchembl>  (63) 
4.89

>  <InChI_steorem>  (63) 
InChI=1S/C30H30N2O3/c1-34-28-18-23-15-17-32(20-24(23)19-29(28)35-2)16-14-21-10-12-25(13-11-21)31-30(33)27-9-5-7-22-6-3-4-8-26(22)27/h3-13,18-19H,14-17,20H2,1-2H3,(H,31,33)

>  <source>  (63) 
ChEMBL25

>  <source_id>  (63) 
25

>  <optional_reference>  (63) 
10.1016/j.bmc.2008.07.034

>  <optional_origin>  (63) 
None

>  <target>  (63) 
BCRP

$$$$

     RDKit          2D

 35 39  0  0  0  0  0  0  0  0999 V2000
   -6.3182   -1.5788    0.0000 C   0  0  0  0  0  0  0  0  0  0  0  0
   -6.3170   -2.4061    0.0000 C   0  0  0  0  0  0  0  0  0  0  0  0
   -5.5993   -2.8189    0.0000 C   0  0  0  0  0  0  0  0  0  0  0  0
   -5.6011   -1.1662    0.0000 C   0  0  0  0  0  0  0  0  0  0  0  0
   -4.8858   -1.5752    0.0000 C   0  0  0  0  0  0  0  0  0  0  0  0
   -4.8824   -2.4082    0.0000 C   0  0  0  0  0  0  0  0  0  0  0  0
   -4.1633   -2.8194    0.0000 C   0  0  0  0  0  0  0  0  0  0  0  0
   -3.4431   -2.4023    0.0000 N   0  0  0  0  0  0  0  0  0  0  0  0
   -3.4465   -1.5693    0.0000 C   0  0  0  0  0  0  0  0  0  0  0  0
   -4.1701   -1.1535    0.0000 C   0  0  0  0  0  0  0  0  0  0  0  0
   -2.7276   -2.8127    0.0000 C   0  0  0  0  0  0  0  0  0  0  0  0
   -2.0144   -2.3984    0.0000 C   0  0  0  0  0  0  0  0  0  0  0  0
   -1.2990   -2.8088    0.0000 C   0  0  0  0  0  0  0  0  0  0  0  0
   -1.3003   -3.6337    0.0000 C   0  0  0  0  0  0  0  0  0  0  0  0
   -0.5857   -4.0442    0.0000 C   0  0  0  0  0  0  0  0  0  0  0  0
    0.1286   -3.6297    0.0000 C   0  0  0  0  0  0  0  0  0  0  0  0
    0.1236   -2.8006    0.0000 C   0  0  0  0  0  0  0  0  0  0  0  0
   -0.5916   -2.3940    0.0000 C   0  0  0  0  0  0  0  0  0  0  0  0
    0.8445   -4.0393    0.0000 N   0  0  0  0  0  0  0  0  0  0  0  0
    1.5572   -3.6239    0.0000 C   0  0  0  0  0  0  0  0  0  0  0  0
    2.2732   -4.0335    0.0000 C   0  0  0  0  0  0  0  0  0  0  0  0
    1.5538   -2.7991    0.0000 O   0  0  0  0  0  0  0  0  0  0  0  0
    2.2752   -4.8585    0.0000 C   0  0  0  0  0  0  0  0  0  0  0  0
    2.9904   -5.2679    0.0000 C   0  0  0  0  0  0  0  0  0  0  0  0
    2.9823   -3.6177    0.0000 C   0  0  0  0  0  0  0  0  0  0  0  0
    3.6979   -4.0235    0.0000 C   0  0  0  0  0  0  0  0  0  0  0  0
    3.7009   -4.8514    0.0000 C   0  0  0  0  0  0  0  0  0  0  0  0
    4.4183   -5.2610    0.0000 C   0  0  0  0  0  0  0  0  0  0  0  0
    5.1332   -4.8439    0.0000 C   0  0  0  0  0  0  0  0  0  0  0  0
    5.1262   -4.0128    0.0000 C   0  0  0  0  0  0  0  0  0  0  0  0
    4.4083   -3.6069    0.0000 C   0  0  0  0  0  0  0  0  0  0  0  0
   -7.0285   -1.1666    0.0000 O   0  0  0  0  0  0  0  0  0  0  0  0
   -7.0283   -0.3417    0.0000 C   0  0  0  0  0  0  0  0  0  0  0  0
   -7.0355   -2.8179    0.0000 O   0  0  0  0  0  0  0  0  0  0  0  0
   -7.7462   -2.4050    0.0000 C   0  0  0  0  0  0  0  0  0  0  0  0
 16 17  1  0
  5 10  1  0
 17 18  2  0
 18 13  1  0
  6  7  1  0
 16 19  1  0
  7  8  1  0
 19 20  1  0
  8  9  1  0
 20 21  1  0
  9 10  1  0
 20 22  2  0
  5  6  1  0
 21 23  2  0
  8 11  1  0
 23 24  1  0
 24 27  2  0
 26 25  2  0
 25 21  1  0
 11 12  1  0
  2  3  1  0
 26 27  1  0
 12 13  1  0
 27 28  1  0
  3  6  2  0
 28 29  2  0
 13 14  2  0
 29 30  1  0
  1  2  2  0
 30 31  2  0
 31 26  1  0
 14 15  1  0
  1 32  1  0
  5  4  2  0
 32 33  1  0
 15 16  2  0
  2 34  1  0
  4  1  1  0
 34 35  1  0
M  END
>  <Classification>  (64) 
1

>  <pchembl>  (64) 
5.14

>  <InChI_steorem>  (64) 
InChI=1S/C30H30N2O3/c1-34-28-18-24-14-16-32(20-26(24)19-29(28)35-2)15-13-21-7-11-27(12-8-21)31-30(33)25-10-9-22-5-3-4-6-23(22)17-25/h3-12,17-19H,13-16,20H2,1-2H3,(H,31,33)

>  <source>  (64) 
ChEMBL25

>  <source_id>  (64) 
25

>  <optional_reference>  (64) 
10.1016/j.bmc.2008.07.034

>  <optional_origin>  (64) 
None

>  <target>  (64) 
BCRP

$$$$

     RDKit          2D

 35 39  0  0  0  0  0  0  0  0999 V2000
    7.4477  -16.2146    0.0000 C   0  0  0  0  0  0  0  0  0  0  0  0
    7.4465  -17.0419    0.0000 C   0  0  0  0  0  0  0  0  0  0  0  0
    8.1612  -17.4548    0.0000 C   0  0  0  0  0  0  0  0  0  0  0  0
    8.1594  -15.8020    0.0000 C   0  0  0  0  0  0  0  0  0  0  0  0
    8.8747  -16.2110    0.0000 C   0  0  0  0  0  0  0  0  0  0  0  0
    8.8781  -17.0440    0.0000 C   0  0  0  0  0  0  0  0  0  0  0  0
    9.5972  -17.4553    0.0000 C   0  0  0  0  0  0  0  0  0  0  0  0
   10.3175  -17.0381    0.0000 N   0  0  0  0  0  0  0  0  0  0  0  0
   10.3141  -16.2051    0.0000 C   0  0  0  0  0  0  0  0  0  0  0  0
    9.5904  -15.7893    0.0000 C   0  0  0  0  0  0  0  0  0  0  0  0
    6.7332  -15.8024    0.0000 O   0  0  0  0  0  0  0  0  0  0  0  0
    6.7330  -14.9775    0.0000 C   0  0  0  0  0  0  0  0  0  0  0  0
    6.7318  -17.4538    0.0000 O   0  0  0  0  0  0  0  0  0  0  0  0
    6.7344  -18.2756    0.0000 C   0  0  0  0  0  0  0  0  0  0  0  0
   11.0330  -17.4486    0.0000 C   0  0  0  0  0  0  0  0  0  0  0  0
   11.7463  -17.0342    0.0000 C   0  0  0  0  0  0  0  0  0  0  0  0
   12.4618  -17.4447    0.0000 C   0  0  0  0  0  0  0  0  0  0  0  0
   12.4605  -18.2697    0.0000 C   0  0  0  0  0  0  0  0  0  0  0  0
   13.1751  -18.6801    0.0000 C   0  0  0  0  0  0  0  0  0  0  0  0
   13.8894  -18.2657    0.0000 C   0  0  0  0  0  0  0  0  0  0  0  0
   13.8844  -17.4365    0.0000 C   0  0  0  0  0  0  0  0  0  0  0  0
   13.1692  -17.0298    0.0000 C   0  0  0  0  0  0  0  0  0  0  0  0
   14.6054  -18.6752    0.0000 N   0  0  0  0  0  0  0  0  0  0  0  0
   15.3181  -18.2599    0.0000 C   0  0  0  0  0  0  0  0  0  0  0  0
   16.0341  -18.6694    0.0000 C   0  0  0  0  0  0  0  0  0  0  0  0
   15.3147  -17.4350    0.0000 O   0  0  0  0  0  0  0  0  0  0  0  0
   16.0361  -19.4945    0.0000 C   0  0  0  0  0  0  0  0  0  0  0  0
   16.7513  -19.9040    0.0000 N   0  0  0  0  0  0  0  0  0  0  0  0
   16.7432  -18.2537    0.0000 C   0  0  0  0  0  0  0  0  0  0  0  0
   17.4590  -18.6594    0.0000 C   0  0  0  0  0  0  0  0  0  0  0  0
   17.4620  -19.4874    0.0000 C   0  0  0  0  0  0  0  0  0  0  0  0
   18.1794  -19.8971    0.0000 C   0  0  0  0  0  0  0  0  0  0  0  0
   18.8943  -19.4799    0.0000 C   0  0  0  0  0  0  0  0  0  0  0  0
   18.8873  -18.6487    0.0000 C   0  0  0  0  0  0  0  0  0  0  0  0
   18.1694  -18.2429    0.0000 C   0  0  0  0  0  0  0  0  0  0  0  0
 16 17  1  0
  5 10  1  0
 17 18  2  0
  6  7  1  0
 18 19  1  0
  7  8  1  0
 19 20  2  0
  8  9  1  0
 20 21  1  0
  9 10  1  0
 21 22  2  0
 22 17  1  0
  5  6  1  0
 20 23  1  0
  1 11  1  0
 23 24  1  0
 24 25  1  0
 11 12  1  0
 24 26  2  0
  2  3  1  0
 25 27  2  0
  2 13  1  0
 27 28  1  0
 28 31  2  0
  3  6  2  0
 30 29  2  0
 29 25  1  0
 14 13  1  0
  1  2  2  0
 30 31  1  0
  8 15  1  0
 31 32  1  0
  5  4  2  0
 32 33  2  0
 15 16  1  0
 33 34  1  0
  4  1  1  0
 34 35  2  0
 35 30  1  0
M  END
>  <Classification>  (65) 
0

>  <pchembl>  (65) 
4.62

>  <InChI_steorem>  (65) 
InChI=1S/C29H29N3O3/c1-34-27-16-21-12-14-32(19-24(21)17-28(27)35-2)13-11-20-7-9-25(10-8-20)31-29(33)23-15-22-5-3-4-6-26(22)30-18-23/h3-10,15-18H,11-14,19H2,1-2H3,(H,31,33)

>  <source>  (65) 
ChEMBL25

>  <source_id>  (65) 
25

>  <optional_reference>  (65) 
10.1016/j.bmc.2008.07.034

>  <optional_origin>  (65) 
None

>  <target>  (65) 
BCRP

$$$$

     RDKit          2D

 35 39  0  0  0  0  0  0  0  0999 V2000
    9.0861  -22.6916    0.0000 C   0  0  0  0  0  0  0  0  0  0  0  0
    9.0849  -23.5190    0.0000 C   0  0  0  0  0  0  0  0  0  0  0  0
    9.7997  -23.9319    0.0000 C   0  0  0  0  0  0  0  0  0  0  0  0
    9.7979  -22.2789    0.0000 C   0  0  0  0  0  0  0  0  0  0  0  0
   10.5133  -22.6880    0.0000 C   0  0  0  0  0  0  0  0  0  0  0  0
   10.5167  -23.5211    0.0000 C   0  0  0  0  0  0  0  0  0  0  0  0
   11.2359  -23.9324    0.0000 C   0  0  0  0  0  0  0  0  0  0  0  0
   11.9563  -23.5152    0.0000 N   0  0  0  0  0  0  0  0  0  0  0  0
   11.9529  -22.6821    0.0000 C   0  0  0  0  0  0  0  0  0  0  0  0
   11.2291  -22.2662    0.0000 C   0  0  0  0  0  0  0  0  0  0  0  0
   12.6719  -23.9257    0.0000 C   0  0  0  0  0  0  0  0  0  0  0  0
   13.3852  -23.5113    0.0000 C   0  0  0  0  0  0  0  0  0  0  0  0
   14.1008  -23.9218    0.0000 C   0  0  0  0  0  0  0  0  0  0  0  0
   14.0995  -24.7469    0.0000 C   0  0  0  0  0  0  0  0  0  0  0  0
   14.8142  -25.1574    0.0000 C   0  0  0  0  0  0  0  0  0  0  0  0
   15.5286  -24.7429    0.0000 C   0  0  0  0  0  0  0  0  0  0  0  0
   15.5236  -23.9136    0.0000 C   0  0  0  0  0  0  0  0  0  0  0  0
   14.8083  -23.5069    0.0000 C   0  0  0  0  0  0  0  0  0  0  0  0
   16.2447  -25.1525    0.0000 N   0  0  0  0  0  0  0  0  0  0  0  0
   16.9575  -24.7371    0.0000 C   0  0  0  0  0  0  0  0  0  0  0  0
   17.6736  -25.1467    0.0000 C   0  0  0  0  0  0  0  0  0  0  0  0
   16.9541  -23.9121    0.0000 O   0  0  0  0  0  0  0  0  0  0  0  0
   17.6756  -25.9719    0.0000 C   0  0  0  0  0  0  0  0  0  0  0  0
   18.3909  -26.3814    0.0000 C   0  0  0  0  0  0  0  0  0  0  0  0
   18.3828  -24.7309    0.0000 C   0  0  0  0  0  0  0  0  0  0  0  0
   19.0986  -25.1367    0.0000 C   0  0  0  0  0  0  0  0  0  0  0  0
   19.1016  -25.9648    0.0000 C   0  0  0  0  0  0  0  0  0  0  0  0
   19.8191  -26.3745    0.0000 N   0  0  0  0  0  0  0  0  0  0  0  0
   20.5341  -25.9573    0.0000 C   0  0  0  0  0  0  0  0  0  0  0  0
   20.5271  -25.1260    0.0000 C   0  0  0  0  0  0  0  0  0  0  0  0
   19.8091  -24.7201    0.0000 C   0  0  0  0  0  0  0  0  0  0  0  0
    8.3715  -22.2793    0.0000 O   0  0  0  0  0  0  0  0  0  0  0  0
    8.3713  -21.4543    0.0000 C   0  0  0  0  0  0  0  0  0  0  0  0
    8.3701  -23.9309    0.0000 O   0  0  0  0  0  0  0  0  0  0  0  0
    7.6560  -23.5179    0.0000 C   0  0  0  0  0  0  0  0  0  0  0  0
 16 17  1  0
  5 10  1  0
 17 18  2  0
 18 13  1  0
  6  7  1  0
 16 19  1  0
  7  8  1  0
 19 20  1  0
  8  9  1  0
 20 21  1  0
  9 10  1  0
 20 22  2  0
  5  6  1  0
 21 23  2  0
  8 11  1  0
 23 24  1  0
 24 27  2  0
 26 25  2  0
 25 21  1  0
 11 12  1  0
  2  3  1  0
 26 27  1  0
 12 13  1  0
 27 28  1  0
  3  6  2  0
 28 29  2  0
 13 14  2  0
 29 30  1  0
  1  2  2  0
 30 31  2  0
 31 26  1  0
 14 15  1  0
  1 32  1  0
  5  4  2  0
 32 33  1  0
 15 16  2  0
  2 34  1  0
  4  1  1  0
 34 35  1  0
M  END
>  <Classification>  (66) 
0

>  <pchembl>  (66) 
4.84

>  <InChI_steorem>  (66) 
InChI=1S/C29H29N3O3/c1-34-27-17-21-12-15-32(19-24(21)18-28(27)35-2)14-11-20-5-8-25(9-6-20)31-29(33)23-7-10-26-22(16-23)4-3-13-30-26/h3-10,13,16-18H,11-12,14-15,19H2,1-2H3,(H,31,33)

>  <source>  (66) 
ChEMBL25

>  <source_id>  (66) 
25

>  <optional_reference>  (66) 
10.1016/j.bmc.2008.07.034

>  <optional_origin>  (66) 
None

>  <target>  (66) 
BCRP

$$$$

     RDKit          2D

 38 41  0  0  0  0  0  0  0  0999 V2000
   -5.5926  -12.7613    0.0000 C   0  0  0  0  0  0  0  0  0  0  0  0
   -5.5938  -13.5886    0.0000 C   0  0  0  0  0  0  0  0  0  0  0  0
   -4.8790  -14.0014    0.0000 C   0  0  0  0  0  0  0  0  0  0  0  0
   -4.8808  -12.3486    0.0000 C   0  0  0  0  0  0  0  0  0  0  0  0
   -4.1655  -12.7576    0.0000 C   0  0  0  0  0  0  0  0  0  0  0  0
   -4.1620  -13.5907    0.0000 C   0  0  0  0  0  0  0  0  0  0  0  0
   -3.4430  -14.0019    0.0000 C   0  0  0  0  0  0  0  0  0  0  0  0
   -2.7227  -13.5848    0.0000 N   0  0  0  0  0  0  0  0  0  0  0  0
   -2.7261  -12.7517    0.0000 C   0  0  0  0  0  0  0  0  0  0  0  0
   -3.4498  -12.3359    0.0000 C   0  0  0  0  0  0  0  0  0  0  0  0
   -2.0071  -13.9953    0.0000 C   0  0  0  0  0  0  0  0  0  0  0  0
   -1.2938  -13.5809    0.0000 C   0  0  0  0  0  0  0  0  0  0  0  0
   -0.5782  -13.9914    0.0000 C   0  0  0  0  0  0  0  0  0  0  0  0
   -0.5796  -14.8164    0.0000 C   0  0  0  0  0  0  0  0  0  0  0  0
    0.1351  -15.2268    0.0000 C   0  0  0  0  0  0  0  0  0  0  0  0
    0.8493  -14.8123    0.0000 C   0  0  0  0  0  0  0  0  0  0  0  0
    0.8444  -13.9832    0.0000 C   0  0  0  0  0  0  0  0  0  0  0  0
    0.1292  -13.5765    0.0000 C   0  0  0  0  0  0  0  0  0  0  0  0
    1.5654  -15.2219    0.0000 N   0  0  0  0  0  0  0  0  0  0  0  0
    2.2781  -14.8065    0.0000 C   0  0  0  0  0  0  0  0  0  0  0  0
    2.9941  -15.2161    0.0000 C   0  0  0  0  0  0  0  0  0  0  0  0
    2.2748  -13.9816    0.0000 O   0  0  0  0  0  0  0  0  0  0  0  0
    2.9961  -16.0412    0.0000 C   0  0  0  0  0  0  0  0  0  0  0  0
    3.7114  -16.4508    0.0000 C   0  0  0  0  0  0  0  0  0  0  0  0
    3.7033  -14.8004    0.0000 C   0  0  0  0  0  0  0  0  0  0  0  0
    4.4191  -15.2062    0.0000 C   0  0  0  0  0  0  0  0  0  0  0  0
    4.4220  -16.0342    0.0000 C   0  0  0  0  0  0  0  0  0  0  0  0
   -6.3084  -12.3490    0.0000 O   0  0  0  0  0  0  0  0  0  0  0  0
   -6.3082  -11.5240    0.0000 C   0  0  0  0  0  0  0  0  0  0  0  0
   -6.3153  -14.0005    0.0000 O   0  0  0  0  0  0  0  0  0  0  0  0
   -7.0262  -13.5875    0.0000 C   0  0  0  0  0  0  0  0  0  0  0  0
    5.1311  -14.7896    0.0000 O   0  0  0  0  0  0  0  0  0  0  0  0
    5.8479  -15.1980    0.0000 C   0  0  0  0  0  0  0  0  0  0  0  0
    5.1385  -16.4430    0.0000 O   0  0  0  0  0  0  0  0  0  0  0  0
    5.1426  -17.2679    0.0000 C   0  0  0  0  0  0  0  0  0  0  0  0
    2.2795  -16.4603    0.0000 N   0  0  0  0  0  0  0  0  0  0  0  0
    2.2819  -17.2852    0.0000 O   0  0  0  0  0  0  0  0  0  0  0  0
    1.5639  -16.0499    0.0000 O   0  0  0  0  0  0  0  0  0  0  0  0
 18 13  1  0
  6  7  1  0
 16 19  1  0
  7  8  1  0
 19 20  1  0
  8  9  1  0
 20 21  1  0
  9 10  1  0
 20 22  2  0
  5  6  1  0
 21 23  2  0
  8 11  1  0
 23 24  1  0
 24 27  2  0
 26 25  2  0
 25 21  1  0
 11 12  1  0
  2  3  1  0
 26 27  1  0
 12 13  1  0
  1 28  1  0
  3  6  2  0
 28 29  1  0
 13 14  2  0
  2 30  1  0
  1  2  2  0
 30 31  1  0
 14 15  1  0
 26 32  1  0
  5  4  2  0
 32 33  1  0
 15 16  2  0
 27 34  1  0
  4  1  1  0
 34 35  1  0
 16 17  1  0
  5 10  1  0
 17 18  2  0
 36 37  2  0
 36 38  1  0
 23 36  1  0
M  CHG  2  36   1  38  -1
M  END
>  <Classification>  (67) 
0

>  <pchembl>  (67) 
4.19

>  <InChI_steorem>  (67) 
InChI=1S/C28H31N3O7/c1-35-24-13-19-10-12-30(17-20(19)14-25(24)36-2)11-9-18-5-7-21(8-6-18)29-28(32)22-15-26(37-3)27(38-4)16-23(22)31(33)34/h5-8,13-16H,9-12,17H2,1-4H3,(H,29,32)

>  <source>  (67) 
ChEMBL25

>  <source_id>  (67) 
25

>  <optional_reference>  (67) 
10.1016/j.bmc.2008.07.034

>  <optional_origin>  (67) 
None

>  <target>  (67) 
BCRP

$$$$

     RDKit          2D

 29 33  0  0  0  0  0  0  0  0999 V2000
   14.4736  -24.6291    0.0000 C   0  0  0  0  0  0  0  0  0  0  0  0
   14.4724  -25.4565    0.0000 C   0  0  0  0  0  0  0  0  0  0  0  0
   15.1872  -25.8694    0.0000 C   0  0  0  0  0  0  0  0  0  0  0  0
   15.1854  -24.2164    0.0000 C   0  0  0  0  0  0  0  0  0  0  0  0
   15.9050  -24.6255    0.0000 C   0  0  0  0  0  0  0  0  0  0  0  0
   15.9059  -25.4527    0.0000 C   0  0  0  0  0  0  0  0  0  0  0  0
   16.6193  -25.8638    0.0000 N   0  0  0  0  0  0  0  0  0  0  0  0
   16.6136  -24.2110    0.0000 C   0  0  0  0  0  0  0  0  0  0  0  0
   17.3317  -24.6146    0.0000 C   0  0  0  0  0  0  0  0  0  0  0  0
   17.3392  -25.4458    0.0000 C   0  0  0  0  0  0  0  0  0  0  0  0
   18.1154  -24.3543    0.0000 C   0  0  0  0  0  0  0  0  0  0  0  0
   18.6094  -25.0166    0.0000 N   0  0  0  0  0  0  0  0  0  0  0  0
   18.1279  -25.6899    0.0000 C   0  0  0  0  0  0  0  0  0  0  0  0
   19.4274  -25.0939    0.0000 C   0  0  0  0  0  0  0  0  0  0  0  0
   19.7702  -25.8389    0.0000 C   0  0  0  0  0  0  0  0  0  0  0  0
   19.2945  -26.5118    0.0000 C   0  0  0  0  0  0  0  0  0  0  0  0
   19.6336  -27.2558    0.0000 C   0  0  0  0  0  0  0  0  0  0  0  0
   20.4535  -27.3368    0.0000 C   0  0  0  0  0  0  0  0  0  0  0  0
   20.9292  -26.6638    0.0000 O   0  0  0  0  0  0  0  0  0  0  0  0
   20.5891  -25.9141    0.0000 C   0  0  0  0  0  0  0  0  0  0  0  0
   19.9018  -24.4189    0.0000 O   0  0  0  0  0  0  0  0  0  0  0  0
   20.7938  -28.0859    0.0000 O   0  0  0  0  0  0  0  0  0  0  0  0
   20.0417  -27.9667    0.0000 O   0  0  0  0  0  0  0  0  0  0  0  0
   18.8095  -27.2149    0.0000 C   0  0  0  0  0  0  0  0  0  0  0  0
   18.4335  -26.4811    0.0000 C   0  0  0  0  0  0  0  0  0  0  0  0
   18.3615  -27.9077    0.0000 C   0  0  0  0  0  0  0  0  0  0  0  0
   16.6065  -23.3861    0.0000 C   0  0  0  0  0  0  0  0  0  0  0  0
   17.3174  -22.9674    0.0000 C   0  0  0  0  0  0  0  0  0  0  0  0
   13.7590  -24.2168    0.0000 O   0  0  0  0  0  0  0  0  0  0  0  0
 13 25  2  0
 25 16  1  0
  3  6  2  0
 15 14  1  0
 14 12  1  0
 15 16  2  0
  6  7  1  0
  7 10  2  0
  1  2  2  0
  9  8  2  0
  8  5  1  0
  9 10  1  0
 15 20  1  0
 16 17  1  0
 17 18  1  0
 18 19  1  0
 19 20  1  0
  5  4  2  0
 14 21  2  0
  4  1  1  0
 18 22  2  0
 17 23  1  0
 10 13  1  0
 17 24  1  0
 12 11  1  0
 11  9  1  0
 24 26  1  0
  2  3  1  0
  8 27  1  0
  5  6  1  0
 27 28  1  0
 12 13  1  0
  1 29  1  0
M  END
>  <Classification>  (68) 
1

>  <pchembl>  (68) 
6.75

>  <InChI_steorem>  (68) 
InChI=1S/C22H20N2O5/c1-3-12-13-7-11(25)5-6-17(13)23-19-14(12)9-24-18(19)8-16-15(20(24)26)10-29-21(27)22(16,28)4-2/h5-8,25,28H,3-4,9-10H2,1-2H3

>  <source>  (68) 
ChEMBL25

>  <source_id>  (68) 
25

>  <optional_reference>  (68) 
10.1158/0008-5472.can-03-3344

>  <optional_origin>  (68) 
None

>  <target>  (68) 
BCRP

$$$$

     RDKit          2D

 19 20  0  0  0  0  0  0  0  0999 V2000
   11.1527  -20.3500    0.0000 C   0  0  0  0  0  0  0  0  0  0  0  0
   11.1516  -21.1773    0.0000 C   0  0  0  0  0  0  0  0  0  0  0  0
   11.8664  -21.5902    0.0000 C   0  0  0  0  0  0  0  0  0  0  0  0
   12.5828  -21.1769    0.0000 C   0  0  0  0  0  0  0  0  0  0  0  0
   12.5800  -20.3463    0.0000 C   0  0  0  0  0  0  0  0  0  0  0  0
   11.8646  -19.9372    0.0000 C   0  0  0  0  0  0  0  0  0  0  0  0
   13.2929  -19.9311    0.0000 C   0  0  0  0  0  0  0  0  0  0  0  0
   14.0089  -20.3409    0.0000 C   0  0  0  0  0  0  0  0  0  0  0  0
   14.7218  -19.9258    0.0000 C   0  0  0  0  0  0  0  0  0  0  0  0
   15.4378  -20.3356    0.0000 C   0  0  0  0  0  0  0  0  0  0  0  0
   15.4378  -21.1594    0.0000 C   0  0  0  0  0  0  0  0  0  0  0  0
   16.1530  -21.5691    0.0000 C   0  0  0  0  0  0  0  0  0  0  0  0
   16.8669  -21.1539    0.0000 C   0  0  0  0  0  0  0  0  0  0  0  0
   16.8611  -20.3246    0.0000 C   0  0  0  0  0  0  0  0  0  0  0  0
   16.1454  -19.9187    0.0000 C   0  0  0  0  0  0  0  0  0  0  0  0
   13.2898  -19.1061    0.0000 O   0  0  0  0  0  0  0  0  0  0  0  0
   17.5835  -21.5628    0.0000 Cl  0  0  0  0  0  0  0  0  0  0  0  0
   10.4368  -21.5893    0.0000 O   0  0  0  0  0  0  0  0  0  0  0  0
   11.8621  -19.1122    0.0000 O   0  0  0  0  0  0  0  0  0  0  0  0
  4  5  2  0
  9 10  1  0
  2  3  2  0
 10 11  2  0
  5  6  1  0
 11 12  1  0
  6  1  2  0
 12 13  2  0
  1  2  1  0
 13 14  1  0
  5  7  1  0
 14 15  2  0
 15 10  1  0
  3  4  1  0
  7 16  2  0
  7  8  1  0
 13 17  1  0
  2 18  1  0
  8  9  2  3
  6 19  1  0
M  END
>  <Classification>  (69) 
1

>  <pchembl>  (69) 
5.22

>  <InChI_steorem>  (69) 
InChI=1S/C15H11ClO3/c16-11-4-1-10(2-5-11)3-8-14(18)13-7-6-12(17)9-15(13)19/h1-9,17,19H

>  <source>  (69) 
ChEMBL25

>  <source_id>  (69) 
25

>  <optional_reference>  (69) 
10.1016/j.bmc.2011.10.074

>  <optional_origin>  (69) 
None

>  <target>  (69) 
BCRP

$$$$

     RDKit          2D

 21 22  0  0  0  0  0  0  0  0999 V2000
    8.1444  -22.2958    0.0000 C   0  0  0  0  0  0  0  0  0  0  0  0
    8.1432  -23.1232    0.0000 C   0  0  0  0  0  0  0  0  0  0  0  0
    8.8581  -23.5360    0.0000 C   0  0  0  0  0  0  0  0  0  0  0  0
    9.5745  -23.1227    0.0000 C   0  0  0  0  0  0  0  0  0  0  0  0
    9.5716  -22.2922    0.0000 C   0  0  0  0  0  0  0  0  0  0  0  0
    8.8563  -21.8830    0.0000 C   0  0  0  0  0  0  0  0  0  0  0  0
    7.4298  -21.8835    0.0000 O   0  0  0  0  0  0  0  0  0  0  0  0
    7.4296  -21.0585    0.0000 C   0  0  0  0  0  0  0  0  0  0  0  0
    8.8579  -24.3610    0.0000 O   0  0  0  0  0  0  0  0  0  0  0  0
   10.2896  -23.5341    0.0000 C   0  0  0  0  0  0  0  0  0  0  0  0
   10.2909  -24.3591    0.0000 O   0  0  0  0  0  0  0  0  0  0  0  0
   11.0034  -23.1204    0.0000 C   0  0  0  0  0  0  0  0  0  0  0  0
   11.0021  -22.2954    0.0000 C   0  0  0  0  0  0  0  0  0  0  0  0
   11.7160  -21.8818    0.0000 C   0  0  0  0  0  0  0  0  0  0  0  0
   12.4287  -22.2942    0.0000 C   0  0  0  0  0  0  0  0  0  0  0  0
   13.1420  -21.8813    0.0000 C   0  0  0  0  0  0  0  0  0  0  0  0
   13.1412  -21.0554    0.0000 C   0  0  0  0  0  0  0  0  0  0  0  0
   12.4210  -20.6442    0.0000 C   0  0  0  0  0  0  0  0  0  0  0  0
   11.7106  -21.0595    0.0000 C   0  0  0  0  0  0  0  0  0  0  0  0
   13.8544  -20.6408    0.0000 O   0  0  0  0  0  0  0  0  0  0  0  0
   14.5701  -21.0513    0.0000 C   0  0  0  0  0  0  0  0  0  0  0  0
  2  3  2  0
 10 11  2  0
  5  6  1  0
 10 12  1  0
  6  1  2  0
 12 13  2  3
  1  2  1  0
 13 14  1  0
  1  7  1  0
 14 15  2  0
  3  4  1  0
 15 16  1  0
  7  8  1  0
 16 17  2  0
 17 18  1  0
  3  9  1  0
 18 19  2  0
 19 14  1  0
  4  5  2  0
 17 20  1  0
  4 10  1  0
 20 21  1  0
M  END
>  <Classification>  (70) 
1

>  <pchembl>  (70) 
5.38

>  <InChI_steorem>  (70) 
InChI=1S/C17H16O4/c1-20-13-6-3-12(4-7-13)5-10-16(18)15-9-8-14(21-2)11-17(15)19/h3-11,19H,1-2H3

>  <source>  (70) 
ChEMBL25

>  <source_id>  (70) 
25

>  <optional_reference>  (70) 
10.1016/j.bmc.2011.10.074

>  <optional_origin>  (70) 
None

>  <target>  (70) 
BCRP

$$$$

     RDKit          2D

 27 29  0  0  0  0  0  0  0  0999 V2000
   15.4742  -21.3145    0.0000 C   0  0  0  0  0  0  0  0  0  0  0  0
   15.4730  -22.1413    0.0000 C   0  0  0  0  0  0  0  0  0  0  0  0
   16.1876  -22.5540    0.0000 C   0  0  0  0  0  0  0  0  0  0  0  0
   16.1858  -20.9019    0.0000 C   0  0  0  0  0  0  0  0  0  0  0  0
   16.9007  -21.3108    0.0000 C   0  0  0  0  0  0  0  0  0  0  0  0
   16.9042  -22.1434    0.0000 C   0  0  0  0  0  0  0  0  0  0  0  0
   17.6230  -22.5545    0.0000 C   0  0  0  0  0  0  0  0  0  0  0  0
   18.3430  -22.1375    0.0000 C   0  0  0  0  0  0  0  0  0  0  0  0
   18.3396  -21.3049    0.0000 C   0  0  0  0  0  0  0  0  0  0  0  0
   17.6162  -20.8892    0.0000 O   0  0  0  0  0  0  0  0  0  0  0  0
   17.6253  -23.3791    0.0000 O   0  0  0  0  0  0  0  0  0  0  0  0
   19.0525  -20.8904    0.0000 C   0  0  0  0  0  0  0  0  0  0  0  0
   19.7671  -21.3026    0.0000 C   0  0  0  0  0  0  0  0  0  0  0  0
   20.4795  -20.8888    0.0000 C   0  0  0  0  0  0  0  0  0  0  0  0
   20.4774  -20.0633    0.0000 C   0  0  0  0  0  0  0  0  0  0  0  0
   19.7569  -19.6534    0.0000 C   0  0  0  0  0  0  0  0  0  0  0  0
   19.0476  -20.0695    0.0000 C   0  0  0  0  0  0  0  0  0  0  0  0
   21.1896  -19.6478    0.0000 O   0  0  0  0  0  0  0  0  0  0  0  0
   21.9056  -20.0569    0.0000 C   0  0  0  0  0  0  0  0  0  0  0  0
   16.1833  -20.0773    0.0000 O   0  0  0  0  0  0  0  0  0  0  0  0
   16.8961  -19.6629    0.0000 C   0  0  0  0  0  0  0  0  0  0  0  0
   14.7600  -20.9023    0.0000 O   0  0  0  0  0  0  0  0  0  0  0  0
   14.7598  -20.0777    0.0000 C   0  0  0  0  0  0  0  0  0  0  0  0
   14.7586  -22.5531    0.0000 O   0  0  0  0  0  0  0  0  0  0  0  0
   14.0449  -22.1402    0.0000 C   0  0  0  0  0  0  0  0  0  0  0  0
   16.1861  -23.3786    0.0000 O   0  0  0  0  0  0  0  0  0  0  0  0
   15.4712  -23.7896    0.0000 C   0  0  0  0  0  0  0  0  0  0  0  0
 12 13  2  0
  3  6  2  0
 13 14  1  0
  1  2  2  0
 14 15  2  0
  5  4  2  0
 15 16  1  0
  4  1  1  0
 16 17  2  0
 17 12  1  0
  5 10  1  0
 15 18  1  0
  6  7  1  0
 18 19  1  0
  7  8  1  0
  4 20  1  0
  8  9  2  0
 20 21  1  0
  9 10  1  0
  1 22  1  0
  5  6  1  0
 22 23  1  0
  7 11  2  0
  2 24  1  0
 24 25  1  0
  9 12  1  0
  3 26  1  0
  2  3  1  0
 26 27  1  0
M  END
>  <Classification>  (71) 
0

>  <pchembl>  (71) 
4.72

>  <InChI_steorem>  (71) 
InChI=1S/C20H20O7/c1-22-12-8-6-11(7-9-12)14-10-13(21)15-16(23-2)18(24-3)20(26-5)19(25-4)17(15)27-14/h6-10H,1-5H3

>  <source>  (71) 
ChEMBL25

>  <source_id>  (71) 
25

>  <optional_reference>  (71) 
10.1016/j.bmc.2010.12.043

>  <optional_origin>  (71) 
None

>  <target>  (71) 
BCRP

$$$$

     RDKit          2D

 25 27  0  0  0  0  0  0  0  0999 V2000
   -3.0844  -10.5689    0.0000 C   0  0  0  0  0  0  0  0  0  0  0  0
   -2.3612  -10.1581    0.0000 C   0  0  0  0  0  0  0  0  0  0  0  0
   -3.7917  -10.1581    0.0000 C   0  0  0  0  0  0  0  0  0  0  0  0
   -3.7917   -9.3318    0.0000 C   0  0  0  0  0  0  0  0  0  0  0  0
   -2.3612   -9.3318    0.0000 O   0  0  0  0  0  0  0  0  0  0  0  0
   -3.0844   -8.9165    0.0000 C   0  0  0  0  0  0  0  0  0  0  0  0
   -4.5104   -8.9203    0.0000 C   0  0  0  0  0  0  0  0  0  0  0  0
   -1.6463  -10.5689    0.0000 C   0  0  0  0  0  0  0  0  0  0  0  0
   -3.0882   -8.0866    0.0000 C   0  0  0  0  0  0  0  0  0  0  0  0
   -4.5179   -8.1016    0.0000 C   0  0  0  0  0  0  0  0  0  0  0  0
   -0.9314  -10.1573    0.0000 C   0  0  0  0  0  0  0  0  0  0  0  0
   -0.2166  -10.5766    0.0000 C   0  0  0  0  0  0  0  0  0  0  0  0
   -4.5066  -10.5689    0.0000 O   0  0  0  0  0  0  0  0  0  0  0  0
   -3.8030   -7.6793    0.0000 C   0  0  0  0  0  0  0  0  0  0  0  0
   -0.2203  -11.3991    0.0000 C   0  0  0  0  0  0  0  0  0  0  0  0
   -1.6463  -11.3991    0.0000 C   0  0  0  0  0  0  0  0  0  0  0  0
   -3.0844  -11.3952    0.0000 O   0  0  0  0  0  0  0  0  0  0  0  0
   -0.9352  -11.8061    0.0000 C   0  0  0  0  0  0  0  0  0  0  0  0
   -5.2177   -9.3387    0.0000 O   0  0  0  0  0  0  0  0  0  0  0  0
    0.4983  -10.1649    0.0000 O   0  0  0  0  0  0  0  0  0  0  0  0
    0.4908  -11.8099    0.0000 O   0  0  0  0  0  0  0  0  0  0  0  0
   -3.8107   -6.8530    0.0000 O   0  0  0  0  0  0  0  0  0  0  0  0
   -3.7993  -11.8025    0.0000 C   0  0  0  0  0  0  0  0  0  0  0  0
    1.2133  -10.5841    0.0000 C   0  0  0  0  0  0  0  0  0  0  0  0
   -3.0949   -6.4386    0.0000 C   0  0  0  0  0  0  0  0  0  0  0  0
  2  1  2  0
  3  1  1  0
  4  3  1  0
  5  2  1  0
  6  4  2  0
  7  4  1  0
  8  2  1  0
  9  6  1  0
 10  7  2  0
 11  8  2  0
 12 11  1  0
 13  3  2  0
 14  9  2  0
 15 18  1  0
 16  8  1  0
 17  1  1  0
 18 16  2  0
 19  7  1  0
 20 12  1  0
 21 15  1  0
 22 14  1  0
 23 17  1  0
 24 20  1  0
 25 22  1  0
  5  6  1  0
 14 10  1  0
 15 12  2  0
M  END
>  <Classification>  (72) 
0

>  <pchembl>  (72) 
4.76

>  <InChI_steorem>  (72) 
InChI=1S/C18H16O7/c1-22-10-7-12(20)15-14(8-10)25-17(18(24-3)16(15)21)9-4-5-11(19)13(6-9)23-2/h4-8,19-20H,1-3H3

>  <source>  (72) 
ChEMBL25

>  <source_id>  (72) 
25

>  <optional_reference>  (72) 
10.1021/np100797y

>  <optional_origin>  (72) 
None

>  <target>  (72) 
BCRP

$$$$

     RDKit          2D

 25 28  0  0  0  0  0  0  0  0999 V2000
    4.0107   -4.1200    0.0000 C   0  0  0  0  0  0  0  0  0  0  0  0
    4.0096   -4.9438    0.0000 C   0  0  0  0  0  0  0  0  0  0  0  0
    4.7214   -5.3550    0.0000 C   0  0  0  0  0  0  0  0  0  0  0  0
    4.7196   -3.7090    0.0000 C   0  0  0  0  0  0  0  0  0  0  0  0
    5.4319   -4.1163    0.0000 C   0  0  0  0  0  0  0  0  0  0  0  0
    5.4353   -4.9459    0.0000 C   0  0  0  0  0  0  0  0  0  0  0  0
    6.1515   -5.3555    0.0000 C   0  0  0  0  0  0  0  0  0  0  0  0
    6.1446   -3.6963    0.0000 O   0  0  0  0  0  0  0  0  0  0  0  0
    6.8654   -4.1104    0.0000 C   0  0  0  0  0  0  0  0  0  0  0  0
    6.8710   -4.9416    0.0000 C   0  0  0  0  0  0  0  0  0  0  0  0
    8.3018   -4.1007    0.0000 O   0  0  0  0  0  0  0  0  0  0  0  0
    7.5784   -3.6877    0.0000 C   0  0  0  0  0  0  0  0  0  0  0  0
    6.1525   -6.1770    0.0000 O   0  0  0  0  0  0  0  0  0  0  0  0
    8.3073   -4.9319    0.0000 C   0  0  0  0  0  0  0  0  0  0  0  0
    7.5912   -5.3450    0.0000 C   0  0  0  0  0  0  0  0  0  0  0  0
    7.5919   -6.1699    0.0000 C   0  0  0  0  0  0  0  0  0  0  0  0
    8.3079   -6.5827    0.0000 C   0  0  0  0  0  0  0  0  0  0  0  0
    9.0249   -6.1645    0.0000 C   0  0  0  0  0  0  0  0  0  0  0  0
    9.0207   -5.3410    0.0000 C   0  0  0  0  0  0  0  0  0  0  0  0
    7.5717   -2.8662    0.0000 O   0  0  0  0  0  0  0  0  0  0  0  0
    3.2992   -3.7094    0.0000 O   0  0  0  0  0  0  0  0  0  0  0  0
    4.7199   -6.1765    0.0000 O   0  0  0  0  0  0  0  0  0  0  0  0
    9.7305   -4.9274    0.0000 O   0  0  0  0  0  0  0  0  0  0  0  0
    3.2990   -2.8878    0.0000 C   0  0  0  0  0  0  0  0  0  0  0  0
    6.8569   -2.4614    0.0000 C   0  0  0  0  0  0  0  0  0  0  0  0
 10 15  1  0
 14 11  1  0
 11 12  1  0
  2  3  1  0
  7 13  2  0
  3  6  2  0
  1  2  2  0
 14 15  2  0
  5  8  1  0
 15 16  1  0
  6  7  1  0
 16 17  2  0
  7 10  1  0
 17 18  1  0
  9  8  1  0
 18 19  2  0
 19 14  1  0
  9 10  2  0
 12 20  1  0
  5  4  2  0
  1 21  1  0
  4  1  1  0
  3 22  1  0
  5  6  1  0
 19 23  1  0
 21 24  1  0
  9 12  1  0
 20 25  1  0
M  END
>  <Classification>  (73) 
1

>  <pchembl>  (73) 
6.16

>  <InChI_steorem>  (73) 
InChI=1S/C18H14O7/c1-22-8-6-11(20)14-12(7-8)24-17-13(15(14)21)9-4-3-5-10(19)16(9)25-18(17)23-2/h3-7,18-20H,1-2H3

>  <source>  (73) 
ChEMBL25

>  <source_id>  (73) 
25

>  <optional_reference>  (73) 
10.1021/jm061450q

>  <optional_origin>  (73) 
None

>  <target>  (73) 
BCRP

$$$$

     RDKit          2D

 26 29  0  0  0  0  0  0  0  0999 V2000
   -3.9476   -4.3321    0.0000 C   0  0  0  0  0  0  0  0  0  0  0  0
   -3.9488   -5.1560    0.0000 C   0  0  0  0  0  0  0  0  0  0  0  0
   -3.2370   -5.5673    0.0000 C   0  0  0  0  0  0  0  0  0  0  0  0
   -3.2388   -3.9210    0.0000 C   0  0  0  0  0  0  0  0  0  0  0  0
   -2.5263   -4.3285    0.0000 C   0  0  0  0  0  0  0  0  0  0  0  0
   -2.5229   -5.1581    0.0000 C   0  0  0  0  0  0  0  0  0  0  0  0
   -1.8067   -5.5678    0.0000 C   0  0  0  0  0  0  0  0  0  0  0  0
   -1.8134   -3.9084    0.0000 O   0  0  0  0  0  0  0  0  0  0  0  0
   -1.0926   -4.3226    0.0000 C   0  0  0  0  0  0  0  0  0  0  0  0
   -1.0869   -5.1539    0.0000 C   0  0  0  0  0  0  0  0  0  0  0  0
    0.3439   -4.3128    0.0000 O   0  0  0  0  0  0  0  0  0  0  0  0
   -0.3795   -3.8998    0.0000 C   0  0  0  0  0  0  0  0  0  0  0  0
   -1.8057   -6.3894    0.0000 O   0  0  0  0  0  0  0  0  0  0  0  0
    0.3496   -5.1441    0.0000 C   0  0  0  0  0  0  0  0  0  0  0  0
   -0.3668   -5.5573    0.0000 C   0  0  0  0  0  0  0  0  0  0  0  0
   -0.3661   -6.3823    0.0000 C   0  0  0  0  0  0  0  0  0  0  0  0
    0.3501   -6.7951    0.0000 C   0  0  0  0  0  0  0  0  0  0  0  0
    1.0671   -6.3769    0.0000 C   0  0  0  0  0  0  0  0  0  0  0  0
    1.0629   -5.5533    0.0000 C   0  0  0  0  0  0  0  0  0  0  0  0
   -0.3863   -3.0782    0.0000 O   0  0  0  0  0  0  0  0  0  0  0  0
   -4.6593   -3.9214    0.0000 O   0  0  0  0  0  0  0  0  0  0  0  0
   -4.6607   -5.5664    0.0000 C   0  0  0  0  0  0  0  0  0  0  0  0
   -3.2384   -6.3889    0.0000 O   0  0  0  0  0  0  0  0  0  0  0  0
    1.7728   -5.1396    0.0000 O   0  0  0  0  0  0  0  0  0  0  0  0
   -4.6595   -3.0998    0.0000 C   0  0  0  0  0  0  0  0  0  0  0  0
   -1.1012   -2.6733    0.0000 C   0  0  0  0  0  0  0  0  0  0  0  0
 14 11  1  0
 11 12  1  0
  2  3  1  0
  7 13  2  0
  3  6  2  0
  1  2  2  0
 14 15  2  0
  5  8  1  0
 15 16  1  0
  6  7  1  0
 16 17  2  0
  7 10  1  0
 17 18  1  0
  9  8  1  0
 18 19  2  0
 19 14  1  0
  9 10  2  0
 12 20  1  0
  5  4  2  0
  1 21  1  0
  4  1  1  0
  2 22  1  0
  5  6  1  0
  3 23  1  0
 19 24  1  0
  9 12  1  0
 21 25  1  0
 10 15  1  0
 20 26  1  0
M  END
>  <Classification>  (74) 
1

>  <pchembl>  (74) 
5.6

>  <InChI_steorem>  (74) 
InChI=1S/C19H16O7/c1-8-11(23-2)7-12-14(15(8)21)16(22)13-9-5-4-6-10(20)17(9)26-19(24-3)18(13)25-12/h4-7,19-21H,1-3H3

>  <source>  (74) 
ChEMBL25

>  <source_id>  (74) 
25

>  <optional_reference>  (74) 
10.1021/jm061450q

>  <optional_origin>  (74) 
None

>  <target>  (74) 
BCRP

$$$$

     RDKit          2D

 19 21  0  0  0  0  0  0  0  0999 V2000
    8.4684  -21.4765    0.0000 C   0  0  0  0  0  0  0  0  0  0  0  0
    8.4673  -22.3029    0.0000 C   0  0  0  0  0  0  0  0  0  0  0  0
    9.1813  -22.7153    0.0000 C   0  0  0  0  0  0  0  0  0  0  0  0
    9.1795  -21.0641    0.0000 C   0  0  0  0  0  0  0  0  0  0  0  0
    9.8942  -21.4728    0.0000 C   0  0  0  0  0  0  0  0  0  0  0  0
    9.8930  -22.3050    0.0000 C   0  0  0  0  0  0  0  0  0  0  0  0
   10.6091  -22.7198    0.0000 C   0  0  0  0  0  0  0  0  0  0  0  0
   11.3309  -22.3071    0.0000 C   0  0  0  0  0  0  0  0  0  0  0  0
   11.3321  -21.4749    0.0000 C   0  0  0  0  0  0  0  0  0  0  0  0
   10.6115  -21.0554    0.0000 O   0  0  0  0  0  0  0  0  0  0  0  0
   10.6067  -23.5439    0.0000 O   0  0  0  0  0  0  0  0  0  0  0  0
   12.0451  -21.0671    0.0000 C   0  0  0  0  0  0  0  0  0  0  0  0
   12.7580  -21.4827    0.0000 C   0  0  0  0  0  0  0  0  0  0  0  0
   13.4722  -21.0731    0.0000 C   0  0  0  0  0  0  0  0  0  0  0  0
   13.4747  -20.2481    0.0000 C   0  0  0  0  0  0  0  0  0  0  0  0
   12.7570  -19.8345    0.0000 C   0  0  0  0  0  0  0  0  0  0  0  0
   12.0352  -20.2301    0.0000 C   0  0  0  0  0  0  0  0  0  0  0  0
    7.7533  -22.7144    0.0000 O   0  0  0  0  0  0  0  0  0  0  0  0
    7.0399  -22.3018    0.0000 C   0  0  0  0  0  0  0  0  0  0  0  0
  7  8  1  0
  8  9  1  0
  9 10  1  0
  5  6  1  0
  7 11  2  0
  2  3  1  0
 12 13  2  0
  3  6  2  0
 13 14  1  0
  1  2  2  0
 14 15  2  0
  5  4  2  0
 15 16  1  0
 16 17  2  0
 17 12  1  0
  9 12  1  0
  4  1  1  0
  5 10  1  0
  2 18  1  0
  6  7  1  0
 18 19  1  0
M  END
>  <Classification>  (75) 
0

>  <pchembl>  (75) 
4.72

>  <InChI_steorem>  (75) 
InChI=1S/C16H14O3/c1-18-12-7-8-15-13(9-12)14(17)10-16(19-15)11-5-3-2-4-6-11/h2-9,16H,10H2,1H3

>  <source>  (75) 
ChEMBL25

>  <source_id>  (75) 
25

>  <optional_reference>  (75) 
10.1016/j.bmc.2010.12.043

>  <optional_origin>  (75) 
None

>  <target>  (75) 
BCRP

$$$$

     RDKit          2D

 20 22  0  0  0  0  0  0  0  0999 V2000
   -1.7362   -8.8799    0.0000 C   0  0  0  0  0  0  0  0  0  0  0  0
   -1.7375   -9.7085    0.0000 C   0  0  0  0  0  0  0  0  0  0  0  0
   -1.0236  -10.1219    0.0000 C   0  0  0  0  0  0  0  0  0  0  0  0
   -1.0256   -8.4666    0.0000 C   0  0  0  0  0  0  0  0  0  0  0  0
   -0.3066   -8.8758    0.0000 C   0  0  0  0  0  0  0  0  0  0  0  0
   -0.3055   -9.7043    0.0000 C   0  0  0  0  0  0  0  0  0  0  0  0
    0.4113  -10.1158    0.0000 C   0  0  0  0  0  0  0  0  0  0  0  0
    1.1243   -9.7013    0.0000 C   0  0  0  0  0  0  0  0  0  0  0  0
   -2.4534  -10.1205    0.0000 O   0  0  0  0  0  0  0  0  0  0  0  0
   -1.0296   -7.6405    0.0000 O   0  0  0  0  0  0  0  0  0  0  0  0
   -1.7468   -7.2308    0.0000 C   0  0  0  0  0  0  0  0  0  0  0  0
    0.4051   -8.4607    0.0000 C   0  0  0  0  0  0  0  0  0  0  0  0
    1.1214   -8.8657    0.0000 C   0  0  0  0  0  0  0  0  0  0  0  0
    1.8264   -8.4501    0.0000 C   0  0  0  0  0  0  0  0  0  0  0  0
    1.8214   -7.6278    0.0000 C   0  0  0  0  0  0  0  0  0  0  0  0
    1.1050   -7.2229    0.0000 C   0  0  0  0  0  0  0  0  0  0  0  0
    0.3937   -7.6401    0.0000 O   0  0  0  0  0  0  0  0  0  0  0  0
    1.0984   -6.3968    0.0000 C   0  0  0  0  0  0  0  0  0  0  0  0
    2.5450   -8.8578    0.0000 O   0  0  0  0  0  0  0  0  0  0  0  0
    1.8410  -10.1121    0.0000 O   0  0  0  0  0  0  0  0  0  0  0  0
  2  9  1  0
  4  1  2  0
  4 10  1  0
 10 11  1  0
 12 13  2  0
  2  3  2  0
  5  6  2  0
  3  6  1  0
  6  7  1  0
  7  8  2  0
 12  5  1  0
 12 17  1  0
 13 14  1  0
 14 15  1  0
 15 16  2  0
 16 17  1  0
 13  8  1  0
 16 18  1  0
  1  2  1  0
 14 19  2  0
  5  4  1  0
  8 20  1  0
M  END
>  <Classification>  (76) 
0

>  <pchembl>  (76) 
4.89

>  <InChI_steorem>  (76) 
InChI=1S/C15H12O5/c1-7-3-10(17)14-11(18)5-8-4-9(16)6-12(19-2)13(8)15(14)20-7/h3-6,16,18H,1-2H3

>  <source>  (76) 
ChEMBL25

>  <source_id>  (76) 
25

>  <optional_reference>  (76) 
10.1016/j.bmcl.2010.05.057

>  <optional_origin>  (76) 
None

>  <target>  (76) 
BCRP

$$$$

     RDKit          2D

 24 26  0  0  0  0  0  0  0  0999 V2000
   10.7944  -13.3125    0.0000 C   0  0  0  0  0  0  0  0  0  0  0  0
   10.7932  -14.1398    0.0000 C   0  0  0  0  0  0  0  0  0  0  0  0
   11.5081  -14.5527    0.0000 C   0  0  0  0  0  0  0  0  0  0  0  0
   11.5063  -12.8997    0.0000 C   0  0  0  0  0  0  0  0  0  0  0  0
   12.2216  -13.3088    0.0000 C   0  0  0  0  0  0  0  0  0  0  0  0
   12.2205  -14.1373    0.0000 C   0  0  0  0  0  0  0  0  0  0  0  0
   12.9334  -14.5503    0.0000 C   0  0  0  0  0  0  0  0  0  0  0  0
   13.6521  -14.1393    0.0000 C   0  0  0  0  0  0  0  0  0  0  0  0
   13.6533  -13.3108    0.0000 C   0  0  0  0  0  0  0  0  0  0  0  0
   12.9358  -12.8933    0.0000 O   0  0  0  0  0  0  0  0  0  0  0  0
   12.9311  -15.3753    0.0000 O   0  0  0  0  0  0  0  0  0  0  0  0
   14.3669  -12.9030    0.0000 C   0  0  0  0  0  0  0  0  0  0  0  0
   15.0806  -13.3190    0.0000 C   0  0  0  0  0  0  0  0  0  0  0  0
   15.0796  -11.6690    0.0000 C   0  0  0  0  0  0  0  0  0  0  0  0
   14.3675  -12.0814    0.0000 C   0  0  0  0  0  0  0  0  0  0  0  0
   15.7981  -12.0830    0.0000 C   0  0  0  0  0  0  0  0  0  0  0  0
   15.7962  -12.9046    0.0000 C   0  0  0  0  0  0  0  0  0  0  0  0
   14.3654  -14.5538    0.0000 O   0  0  0  0  0  0  0  0  0  0  0  0
   10.0798  -12.9001    0.0000 O   0  0  0  0  0  0  0  0  0  0  0  0
   16.5128  -11.6711    0.0000 O   0  0  0  0  0  0  0  0  0  0  0  0
   10.0796  -12.0751    0.0000 C   0  0  0  0  0  0  0  0  0  0  0  0
   16.5134  -10.8461    0.0000 C   0  0  0  0  0  0  0  0  0  0  0  0
   16.5105  -13.3174    0.0000 O   0  0  0  0  0  0  0  0  0  0  0  0
   16.5102  -14.1424    0.0000 C   0  0  0  0  0  0  0  0  0  0  0  0
  2  3  1  0
 12 13  2  0
 13 17  1  0
  3  6  2  0
 16 14  1  0
  1  2  2  0
 14 15  2  0
 15 12  1  0
  9 12  1  0
 16 17  2  0
  5  4  2  0
  4  1  1  0
  5 10  1  0
  8 18  1  0
  6  7  1  0
  1 19  1  0
  7  8  1  0
 16 20  1  0
  8  9  2  0
 19 21  1  0
  9 10  1  0
 20 22  1  0
  5  6  1  0
 17 23  1  0
  7 11  2  0
 23 24  1  0
M  END
>  <Classification>  (77) 
1

>  <pchembl>  (77) 
5.75

>  <InChI_steorem>  (77) 
InChI=1S/C18H16O6/c1-21-11-5-6-12-14(9-11)24-18(17(20)16(12)19)10-4-7-13(22-2)15(8-10)23-3/h4-9,20H,1-3H3

>  <source>  (77) 
ChEMBL25

>  <source_id>  (77) 
25

>  <optional_reference>  (77) 
10.1016/j.ejmech.2013.06.035

>  <optional_origin>  (77) 
None

>  <target>  (77) 
BCRP

$$$$

     RDKit          2D

 25 27  0  0  0  0  0  0  0  0999 V2000
    0.1366  -24.2659    0.0000 C   0  0  0  0  0  0  0  0  0  0  0  0
    0.8575  -23.8542    0.0000 C   0  0  0  0  0  0  0  0  0  0  0  0
    0.8544  -23.0221    0.0000 C   0  0  0  0  0  0  0  0  0  0  0  0
    0.1346  -22.6104    0.0000 C   0  0  0  0  0  0  0  0  0  0  0  0
   -0.5779  -23.8547    0.0000 C   0  0  0  0  0  0  0  0  0  0  0  0
   -0.5737  -23.0305    0.0000 C   0  0  0  0  0  0  0  0  0  0  0  0
   -1.2820  -22.6148    0.0000 O   0  0  0  0  0  0  0  0  0  0  0  0
   -1.9992  -23.0233    0.0000 C   0  0  0  0  0  0  0  0  0  0  0  0
   -2.0034  -23.8474    0.0000 C   0  0  0  0  0  0  0  0  0  0  0  0
   -1.2905  -24.2631    0.0000 C   0  0  0  0  0  0  0  0  0  0  0  0
   -1.2935  -25.0893    0.0000 O   0  0  0  0  0  0  0  0  0  0  0  0
   -2.7219  -24.2538    0.0000 O   0  0  0  0  0  0  0  0  0  0  0  0
   -3.4355  -23.8387    0.0000 C   0  0  0  0  0  0  0  0  0  0  0  0
    1.5638  -22.6032    0.0000 O   0  0  0  0  0  0  0  0  0  0  0  0
    2.2819  -23.0149    0.0000 C   0  0  0  0  0  0  0  0  0  0  0  0
    1.5694  -24.2643    0.0000 O   0  0  0  0  0  0  0  0  0  0  0  0
    1.5701  -25.0904    0.0000 C   0  0  0  0  0  0  0  0  0  0  0  0
    0.1353  -25.0920    0.0000 O   0  0  0  0  0  0  0  0  0  0  0  0
   -2.7125  -22.6033    0.0000 C   0  0  0  0  0  0  0  0  0  0  0  0
   -2.7056  -21.7776    0.0000 C   0  0  0  0  0  0  0  0  0  0  0  0
   -3.4182  -21.3623    0.0000 C   0  0  0  0  0  0  0  0  0  0  0  0
   -4.1334  -21.7685    0.0000 C   0  0  0  0  0  0  0  0  0  0  0  0
   -4.1361  -22.5988    0.0000 C   0  0  0  0  0  0  0  0  0  0  0  0
   -3.4275  -23.0149    0.0000 C   0  0  0  0  0  0  0  0  0  0  0  0
   -4.8472  -21.3540    0.0000 O   0  0  0  0  0  0  0  0  0  0  0  0
  9 12  1  0
  5  1  2  0
 12 13  1  0
  2  3  2  0
  3 14  1  0
 14 15  1  0
  3  4  1  0
  2 16  1  0
  4  6  2  0
 16 17  1  0
  5 10  1  0
  1 18  1  0
  6  7  1  0
  8 19  1  0
  7  8  1  0
 19 20  2  0
  8  9  2  0
 20 21  1  0
  9 10  1  0
 21 22  2  0
  5  6  1  0
 22 23  1  0
 10 11  2  0
 23 24  2  0
 24 19  1  0
  1  2  1  0
 22 25  1  0
M  END
>  <Classification>  (78) 
1

>  <pchembl>  (78) 
5.92

>  <InChI_steorem>  (78) 
InChI=1S/C18H16O7/c1-22-12-8-11-13(14(20)17(12)23-2)15(21)18(24-3)16(25-11)9-4-6-10(19)7-5-9/h4-8,19-20H,1-3H3

>  <source>  (78) 
ChEMBL25

>  <source_id>  (78) 
25

>  <optional_reference>  (78) 
10.1016/j.bmc.2010.12.043

>  <optional_origin>  (78) 
None

>  <target>  (78) 
BCRP

$$$$

     RDKit          2D

 27 29  0  0  0  0  0  0  0  0999 V2000
    4.1902  -10.2833    0.0000 C   0  0  0  0  0  0  0  0  0  0  0  0
    4.1891  -11.1107    0.0000 C   0  0  0  0  0  0  0  0  0  0  0  0
    4.9039  -11.5235    0.0000 C   0  0  0  0  0  0  0  0  0  0  0  0
    4.9021   -9.8705    0.0000 C   0  0  0  0  0  0  0  0  0  0  0  0
    5.6175  -10.2797    0.0000 C   0  0  0  0  0  0  0  0  0  0  0  0
    5.6163  -11.1127    0.0000 C   0  0  0  0  0  0  0  0  0  0  0  0
    6.3332  -11.5280    0.0000 C   0  0  0  0  0  0  0  0  0  0  0  0
    7.0558  -11.1148    0.0000 C   0  0  0  0  0  0  0  0  0  0  0  0
    7.0570  -10.2817    0.0000 C   0  0  0  0  0  0  0  0  0  0  0  0
    6.3356   -9.8619    0.0000 O   0  0  0  0  0  0  0  0  0  0  0  0
    6.3308  -12.3530    0.0000 O   0  0  0  0  0  0  0  0  0  0  0  0
    7.7708   -9.8736    0.0000 C   0  0  0  0  0  0  0  0  0  0  0  0
    8.4845  -10.2895    0.0000 C   0  0  0  0  0  0  0  0  0  0  0  0
    9.1995   -9.8795    0.0000 C   0  0  0  0  0  0  0  0  0  0  0  0
    9.2020   -9.0536    0.0000 C   0  0  0  0  0  0  0  0  0  0  0  0
    8.4835   -8.6395    0.0000 C   0  0  0  0  0  0  0  0  0  0  0  0
    7.7715   -9.0520    0.0000 C   0  0  0  0  0  0  0  0  0  0  0  0
    4.9036  -12.3485    0.0000 O   0  0  0  0  0  0  0  0  0  0  0  0
    3.4743  -11.5226    0.0000 O   0  0  0  0  0  0  0  0  0  0  0  0
    3.4757   -9.8710    0.0000 O   0  0  0  0  0  0  0  0  0  0  0  0
    3.4755   -9.0460    0.0000 C   0  0  0  0  0  0  0  0  0  0  0  0
    3.4736  -12.3476    0.0000 C   0  0  0  0  0  0  0  0  0  0  0  0
    9.9169   -8.6419    0.0000 O   0  0  0  0  0  0  0  0  0  0  0  0
   10.6309   -9.0552    0.0000 C   0  0  0  0  0  0  0  0  0  0  0  0
    9.9128  -10.2941    0.0000 O   0  0  0  0  0  0  0  0  0  0  0  0
    9.9104  -11.1191    0.0000 C   0  0  0  0  0  0  0  0  0  0  0  0
    5.6179  -12.7613    0.0000 C   0  0  0  0  0  0  0  0  0  0  0  0
  3  6  2  0
 13 14  2  0
  1  2  2  0
 14 15  1  0
  5  4  2  0
 15 16  2  0
  4  1  1  0
 16 17  1  0
 17 12  2  0
  9 12  1  0
  5 10  1  0
  3 18  1  0
  6  7  1  0
  2 19  1  0
  7  8  1  0
  1 20  1  0
  8  9  2  0
 20 21  1  0
  9 10  1  0
 19 22  1  0
  5  6  1  0
 15 23  1  0
  7 11  2  0
 23 24  1  0
 14 25  1  0
  2  3  1  0
 25 26  1  0
 12 13  1  0
 18 27  1  0
M  END
>  <Classification>  (79) 
1

>  <pchembl>  (79) 
5.05

>  <InChI_steorem>  (79) 
InChI=1S/C20H20O7/c1-22-13-7-6-11(8-15(13)23-2)14-9-12(21)18-16(27-14)10-17(24-3)19(25-4)20(18)26-5/h6-10H,1-5H3

>  <source>  (79) 
ChEMBL25

>  <source_id>  (79) 
25

>  <optional_reference>  (79) 
10.1016/j.bmc.2010.12.043

>  <optional_origin>  (79) 
None

>  <target>  (79) 
BCRP

$$$$

     RDKit          2D

 27 29  0  0  0  0  0  0  0  0999 V2000
    4.8569  -24.4083    0.0000 C   0  0  0  0  0  0  0  0  0  0  0  0
    4.8557  -25.2357    0.0000 C   0  0  0  0  0  0  0  0  0  0  0  0
    5.5706  -25.6485    0.0000 C   0  0  0  0  0  0  0  0  0  0  0  0
    5.5688  -23.9955    0.0000 C   0  0  0  0  0  0  0  0  0  0  0  0
    6.2841  -24.4047    0.0000 C   0  0  0  0  0  0  0  0  0  0  0  0
    6.2830  -25.2331    0.0000 C   0  0  0  0  0  0  0  0  0  0  0  0
    6.9959  -25.6461    0.0000 C   0  0  0  0  0  0  0  0  0  0  0  0
    7.7146  -25.2352    0.0000 C   0  0  0  0  0  0  0  0  0  0  0  0
    7.7158  -24.4067    0.0000 C   0  0  0  0  0  0  0  0  0  0  0  0
    6.9983  -23.9891    0.0000 O   0  0  0  0  0  0  0  0  0  0  0  0
    6.9936  -26.4711    0.0000 O   0  0  0  0  0  0  0  0  0  0  0  0
    8.4294  -23.9989    0.0000 C   0  0  0  0  0  0  0  0  0  0  0  0
    9.1431  -24.4148    0.0000 C   0  0  0  0  0  0  0  0  0  0  0  0
    9.1421  -22.7648    0.0000 C   0  0  0  0  0  0  0  0  0  0  0  0
    8.4300  -23.1773    0.0000 C   0  0  0  0  0  0  0  0  0  0  0  0
    9.8606  -23.1789    0.0000 C   0  0  0  0  0  0  0  0  0  0  0  0
    9.8587  -24.0004    0.0000 C   0  0  0  0  0  0  0  0  0  0  0  0
    8.4279  -25.6497    0.0000 O   0  0  0  0  0  0  0  0  0  0  0  0
    5.5722  -26.4735    0.0000 O   0  0  0  0  0  0  0  0  0  0  0  0
   10.5753  -22.7669    0.0000 O   0  0  0  0  0  0  0  0  0  0  0  0
    4.1423  -23.9960    0.0000 O   0  0  0  0  0  0  0  0  0  0  0  0
    8.4256  -26.4747    0.0000 C   0  0  0  0  0  0  0  0  0  0  0  0
   10.5730  -24.4132    0.0000 O   0  0  0  0  0  0  0  0  0  0  0  0
   11.2895  -23.1799    0.0000 C   0  0  0  0  0  0  0  0  0  0  0  0
    6.2876  -26.8846    0.0000 C   0  0  0  0  0  0  0  0  0  0  0  0
    4.1421  -23.1710    0.0000 C   0  0  0  0  0  0  0  0  0  0  0  0
   11.2877  -24.0010    0.0000 C   0  0  0  0  0  0  0  0  0  0  0  0
 13 17  2  0
  3  6  2  0
 16 14  2  0
  1  2  2  0
 14 15  1  0
 15 12  2  0
  9 12  1  0
 16 17  1  0
  5  4  2  0
  4  1  1  0
  5 10  1  0
  8 18  1  0
  6  7  1  0
  3 19  1  0
  7  8  1  0
 16 20  1  0
  8  9  2  0
  1 21  1  0
  9 10  1  0
 18 22  1  0
  5  6  1  0
 17 23  1  0
  7 11  2  0
 20 24  1  0
 19 25  1  0
  2  3  1  0
 21 26  1  0
 12 13  1  0
 23 27  1  0
M  END
>  <Classification>  (80) 
1

>  <pchembl>  (80) 
5.73

>  <InChI_steorem>  (80) 
InChI=1S/C20H20O7/c1-22-12-9-15(25-4)17-16(10-12)27-19(20(26-5)18(17)21)11-6-7-13(23-2)14(8-11)24-3/h6-10H,1-5H3

>  <source>  (80) 
ChEMBL25

>  <source_id>  (80) 
25

>  <optional_reference>  (80) 
10.1016/j.ejmech.2013.06.035

>  <optional_origin>  (80) 
None

>  <target>  (80) 
BCRP

$$$$

     RDKit          2D

 29 31  0  0  0  0  0  0  0  0999 V2000
    8.5417   -2.2000    0.0000 C   0  0  0  0  0  0  0  0  0  0  0  0
    8.5405   -3.0275    0.0000 C   0  0  0  0  0  0  0  0  0  0  0  0
    9.2534   -3.4405    0.0000 C   0  0  0  0  0  0  0  0  0  0  0  0
    9.2514   -1.7872    0.0000 C   0  0  0  0  0  0  0  0  0  0  0  0
    9.9696   -2.1959    0.0000 C   0  0  0  0  0  0  0  0  0  0  0  0
    9.9687   -3.0250    0.0000 C   0  0  0  0  0  0  0  0  0  0  0  0
   10.6823   -3.4379    0.0000 C   0  0  0  0  0  0  0  0  0  0  0  0
   11.4013   -3.0265    0.0000 C   0  0  0  0  0  0  0  0  0  0  0  0
   11.4023   -2.1975    0.0000 C   0  0  0  0  0  0  0  0  0  0  0  0
   10.6841   -1.7799    0.0000 O   0  0  0  0  0  0  0  0  0  0  0  0
   10.6803   -4.2629    0.0000 O   0  0  0  0  0  0  0  0  0  0  0  0
   12.1176   -1.7865    0.0000 C   0  0  0  0  0  0  0  0  0  0  0  0
   12.8283   -2.2012    0.0000 C   0  0  0  0  0  0  0  0  0  0  0  0
   13.5431   -1.7908    0.0000 C   0  0  0  0  0  0  0  0  0  0  0  0
   13.5453   -0.9649    0.0000 C   0  0  0  0  0  0  0  0  0  0  0  0
   12.8266   -0.5511    0.0000 C   0  0  0  0  0  0  0  0  0  0  0  0
   12.1147   -0.9638    0.0000 C   0  0  0  0  0  0  0  0  0  0  0  0
   12.8254    0.2739    0.0000 O   0  0  0  0  0  0  0  0  0  0  0  0
   13.5393    0.6874    0.0000 C   0  0  0  0  0  0  0  0  0  0  0  0
   14.2600   -0.5530    0.0000 O   0  0  0  0  0  0  0  0  0  0  0  0
   14.9742   -0.9660    0.0000 C   0  0  0  0  0  0  0  0  0  0  0  0
    9.2540   -4.2655    0.0000 O   0  0  0  0  0  0  0  0  0  0  0  0
    8.5397   -4.6784    0.0000 C   0  0  0  0  0  0  0  0  0  0  0  0
    7.8254   -3.4390    0.0000 O   0  0  0  0  0  0  0  0  0  0  0  0
    7.1115   -3.0255    0.0000 C   0  0  0  0  0  0  0  0  0  0  0  0
    7.8269   -1.7880    0.0000 O   0  0  0  0  0  0  0  0  0  0  0  0
    7.8263   -0.9630    0.0000 C   0  0  0  0  0  0  0  0  0  0  0  0
    9.2476   -0.9622    0.0000 O   0  0  0  0  0  0  0  0  0  0  0  0
    9.9602   -0.5464    0.0000 C   0  0  0  0  0  0  0  0  0  0  0  0
 13 14  2  0
  1  2  2  0
 14 15  1  0
  5  4  2  0
 15 16  2  0
  4  1  1  0
 16 17  1  0
 17 12  2  0
  5 10  1  0
 16 18  1  0
  6  7  1  0
 18 19  1  0
  7  8  1  0
 15 20  1  0
  8  9  2  0
 20 21  1  0
  9 10  1  0
  3 22  1  0
  5  6  1  0
 22 23  1  0
  7 11  2  0
  2 24  1  0
 24 25  1  0
  9 12  1  0
  1 26  1  0
  2  3  1  0
 26 27  1  0
 12 13  1  0
  4 28  1  0
  3  6  2  0
 28 29  1  0
M  END
>  <Classification>  (81) 
1

>  <pchembl>  (81) 
5.31

>  <InChI_steorem>  (81) 
InChI=1S/C21H22O8/c1-23-13-8-7-11(9-15(13)24-2)14-10-12(22)16-17(25-3)19(26-4)21(28-6)20(27-5)18(16)29-14/h7-10H,1-6H3

>  <source>  (81) 
ChEMBL25

>  <source_id>  (81) 
25

>  <optional_reference>  (81) 
10.1016/j.bmc.2010.12.043

>  <optional_origin>  (81) 
None

>  <target>  (81) 
BCRP

$$$$

     RDKit          2D

 31 33  0  0  0  0  0  0  0  0999 V2000
   10.0726   -6.0683    0.0000 C   0  0  0  0  0  0  0  0  0  0  0  0
   10.0713   -6.8959    0.0000 C   0  0  0  0  0  0  0  0  0  0  0  0
   10.7843   -7.3088    0.0000 C   0  0  0  0  0  0  0  0  0  0  0  0
   10.7823   -5.6555    0.0000 C   0  0  0  0  0  0  0  0  0  0  0  0
   11.5005   -6.0643    0.0000 C   0  0  0  0  0  0  0  0  0  0  0  0
   11.5041   -6.8979    0.0000 C   0  0  0  0  0  0  0  0  0  0  0  0
   12.2240   -7.3093    0.0000 C   0  0  0  0  0  0  0  0  0  0  0  0
   12.9447   -6.8915    0.0000 C   0  0  0  0  0  0  0  0  0  0  0  0
   12.9409   -6.0579    0.0000 C   0  0  0  0  0  0  0  0  0  0  0  0
   12.2166   -5.6420    0.0000 O   0  0  0  0  0  0  0  0  0  0  0  0
   13.6525   -5.6440    0.0000 C   0  0  0  0  0  0  0  0  0  0  0  0
   14.3686   -6.0557    0.0000 C   0  0  0  0  0  0  0  0  0  0  0  0
   15.0812   -5.6415    0.0000 C   0  0  0  0  0  0  0  0  0  0  0  0
   15.0788   -4.8156    0.0000 C   0  0  0  0  0  0  0  0  0  0  0  0
   14.3579   -4.4057    0.0000 C   0  0  0  0  0  0  0  0  0  0  0  0
   13.6483   -4.8224    0.0000 C   0  0  0  0  0  0  0  0  0  0  0  0
   15.7914   -4.3998    0.0000 O   0  0  0  0  0  0  0  0  0  0  0  0
   13.6604   -7.3018    0.0000 O   0  0  0  0  0  0  0  0  0  0  0  0
   12.2265   -8.1343    0.0000 O   0  0  0  0  0  0  0  0  0  0  0  0
   10.7816   -8.1338    0.0000 O   0  0  0  0  0  0  0  0  0  0  0  0
    9.3578   -5.6564    0.0000 O   0  0  0  0  0  0  0  0  0  0  0  0
    9.3563   -7.3074    0.0000 C   0  0  0  0  0  0  0  0  0  0  0  0
    9.3550   -8.1324    0.0000 C   0  0  0  0  0  0  0  0  0  0  0  0
    8.6399   -8.5438    0.0000 C   0  0  0  0  0  0  0  0  0  0  0  0
    8.6388   -9.3688    0.0000 C   0  0  0  0  0  0  0  0  0  0  0  0
    7.9261   -8.1303    0.0000 C   0  0  0  0  0  0  0  0  0  0  0  0
    7.9237   -9.7803    0.0000 C   0  0  0  0  0  0  0  0  0  0  0  0
    7.9225  -10.6053    0.0000 C   0  0  0  0  0  0  0  0  0  0  0  0
    7.2075  -11.0167    0.0000 C   0  0  0  0  0  0  0  0  0  0  0  0
    7.2063  -11.8417    0.0000 C   0  0  0  0  0  0  0  0  0  0  0  0
    6.4936  -10.6032    0.0000 C   0  0  0  0  0  0  0  0  0  0  0  0
  5  4  1  0
 15 16  2  0
 16 11  1  0
  9 11  1  0
  4  1  2  0
 14 17  1  0
  5 10  1  0
  8 18  1  0
  6  7  1  0
  7 19  2  0
  7  8  1  0
  3 20  1  0
  8  9  2  0
  1 21  1  0
  9 10  1  0
  2 22  1  0
  5  6  2  0
 22 23  1  0
 23 24  2  3
 11 12  2  0
 24 25  1  0
  2  3  2  0
 24 26  1  0
 12 13  1  0
 25 27  1  0
  3  6  1  0
 27 28  1  0
 13 14  2  0
 28 29  2  3
  1  2  1  0
 29 30  1  0
 14 15  1  0
 29 31  1  0
M  END
>  <Classification>  (82) 
1

>  <pchembl>  (82) 
5.24

>  <InChI_steorem>  (82) 
InChI=1S/C25H26O6/c1-14(2)5-4-6-15(3)7-12-18-19(27)13-20-21(22(18)28)23(29)24(30)25(31-20)16-8-10-17(26)11-9-16/h5,7-11,13,26-28,30H,4,6,12H2,1-3H3

>  <source>  (82) 
ChEMBL25

>  <source_id>  (82) 
25

>  <optional_reference>  (82) 
10.1021/np100797y

>  <optional_origin>  (82) 
None

>  <target>  (82) 
BCRP

$$$$

     RDKit          2D

 19 20  0  0  0  0  0  0  0  0999 V2000
   15.2194  -20.6062    0.0000 C   0  0  0  0  0  0  0  0  0  0  0  0
   15.2181  -21.4338    0.0000 C   0  0  0  0  0  0  0  0  0  0  0  0
   15.9311  -21.8467    0.0000 C   0  0  0  0  0  0  0  0  0  0  0  0
   16.6504  -21.4333    0.0000 C   0  0  0  0  0  0  0  0  0  0  0  0
   16.6472  -20.6023    0.0000 C   0  0  0  0  0  0  0  0  0  0  0  0
   15.9291  -20.1934    0.0000 C   0  0  0  0  0  0  0  0  0  0  0  0
   17.3596  -20.1861    0.0000 O   0  0  0  0  0  0  0  0  0  0  0  0
   14.5045  -20.1943    0.0000 O   0  0  0  0  0  0  0  0  0  0  0  0
   14.5039  -19.3693    0.0000 C   0  0  0  0  0  0  0  0  0  0  0  0
   17.3652  -21.8451    0.0000 C   0  0  0  0  0  0  0  0  0  0  0  0
   17.3659  -22.6701    0.0000 O   0  0  0  0  0  0  0  0  0  0  0  0
   18.0792  -21.4320    0.0000 C   0  0  0  0  0  0  0  0  0  0  0  0
   18.0786  -20.6070    0.0000 C   0  0  0  0  0  0  0  0  0  0  0  0
   18.7926  -20.1938    0.0000 C   0  0  0  0  0  0  0  0  0  0  0  0
   19.5063  -20.6096    0.0000 C   0  0  0  0  0  0  0  0  0  0  0  0
   20.2199  -20.1971    0.0000 C   0  0  0  0  0  0  0  0  0  0  0  0
   20.2196  -19.3713    0.0000 C   0  0  0  0  0  0  0  0  0  0  0  0
   19.4997  -18.9597    0.0000 C   0  0  0  0  0  0  0  0  0  0  0  0
   18.7890  -19.3745    0.0000 C   0  0  0  0  0  0  0  0  0  0  0  0
  4  5  2  0
  4 10  1  0
  2  3  2  0
 10 11  2  0
  5  6  1  0
 10 12  1  0
  6  1  2  0
 12 13  2  3
  1  2  1  0
 13 14  1  0
  5  7  1  0
 14 15  2  0
  3  4  1  0
 15 16  1  0
  1  8  1  0
 16 17  2  0
 17 18  1  0
  8  9  1  0
 18 19  2  0
 19 14  1  0
M  END
>  <Classification>  (83) 
0

>  <pchembl>  (83) 
4.51

>  <InChI_steorem>  (83) 
InChI=1S/C16H14O3/c1-19-13-8-9-14(16(18)11-13)15(17)10-7-12-5-3-2-4-6-12/h2-11,18H,1H3

>  <source>  (83) 
ChEMBL25

>  <source_id>  (83) 
25

>  <optional_reference>  (83) 
10.1016/j.bmc.2011.10.074

>  <optional_origin>  (83) 
None

>  <target>  (83) 
BCRP

$$$$

     RDKit          2D

 25 27  0  0  0  0  0  0  0  0999 V2000
   -3.3245  -20.9410    0.0000 C   0  0  0  0  0  0  0  0  0  0  0  0
   -3.3257  -21.7685    0.0000 C   0  0  0  0  0  0  0  0  0  0  0  0
   -2.6128  -22.1815    0.0000 C   0  0  0  0  0  0  0  0  0  0  0  0
   -2.6148  -20.5282    0.0000 C   0  0  0  0  0  0  0  0  0  0  0  0
   -1.8966  -20.9369    0.0000 C   0  0  0  0  0  0  0  0  0  0  0  0
   -1.8975  -21.7706    0.0000 C   0  0  0  0  0  0  0  0  0  0  0  0
   -1.1800  -22.1859    0.0000 C   0  0  0  0  0  0  0  0  0  0  0  0
   -0.4570  -21.7722    0.0000 C   0  0  0  0  0  0  0  0  0  0  0  0
   -0.4561  -20.9386    0.0000 C   0  0  0  0  0  0  0  0  0  0  0  0
   -1.1782  -20.5186    0.0000 O   0  0  0  0  0  0  0  0  0  0  0  0
   -1.1820  -23.0109    0.0000 O   0  0  0  0  0  0  0  0  0  0  0  0
   -2.6142  -23.0065    0.0000 O   0  0  0  0  0  0  0  0  0  0  0  0
   -4.0393  -20.5291    0.0000 O   0  0  0  0  0  0  0  0  0  0  0  0
    0.2593  -20.5275    0.0000 C   0  0  0  0  0  0  0  0  0  0  0  0
    0.9683  -20.9449    0.0000 C   0  0  0  0  0  0  0  0  0  0  0  0
    1.6832  -20.5346    0.0000 C   0  0  0  0  0  0  0  0  0  0  0  0
    1.6854  -19.7087    0.0000 C   0  0  0  0  0  0  0  0  0  0  0  0
    0.9668  -19.2949    0.0000 C   0  0  0  0  0  0  0  0  0  0  0  0
    0.2549  -19.7075    0.0000 C   0  0  0  0  0  0  0  0  0  0  0  0
    2.4002  -19.2967    0.0000 O   0  0  0  0  0  0  0  0  0  0  0  0
   -2.6186  -19.7032    0.0000 C   0  0  0  0  0  0  0  0  0  0  0  0
   -3.3349  -19.2940    0.0000 C   0  0  0  0  0  0  0  0  0  0  0  0
   -3.3389  -18.4690    0.0000 C   0  0  0  0  0  0  0  0  0  0  0  0
   -4.0552  -18.0599    0.0000 C   0  0  0  0  0  0  0  0  0  0  0  0
   -2.6263  -18.0532    0.0000 C   0  0  0  0  0  0  0  0  0  0  0  0
  3 12  1  0
  2  3  1  0
  1 13  1  0
  3  6  2  0
  9 14  1  0
  1  2  2  0
 14 15  2  0
  5  4  2  0
 15 16  1  0
  4  1  1  0
 16 17  2  0
  5 10  1  0
 17 18  1  0
  6  7  1  0
 18 19  2  0
 19 14  1  0
  7  8  1  0
 17 20  1  0
  8  9  1  0
  4 21  1  0
  9 10  1  0
 21 22  1  0
  5  6  1  0
 22 23  2  3
  7 11  2  0
 23 24  1  0
 23 25  1  0
M  END
>  <Classification>  (84) 
1

>  <pchembl>  (84) 
5.51

>  <InChI_steorem>  (84) 
InChI=1S/C20H20O5/c1-11(2)3-8-14-15(22)9-16(23)19-17(24)10-18(25-20(14)19)12-4-6-13(21)7-5-12/h3-7,9,18,21-23H,8,10H2,1-2H3

>  <source>  (84) 
ChEMBL25

>  <source_id>  (84) 
25

>  <optional_reference>  (84) 
10.1021/np100797y

>  <optional_origin>  (84) 
None

>  <target>  (84) 
BCRP

$$$$

     RDKit          2D

 31 34  0  0  0  0  0  0  0  0999 V2000
   -9.6182  -13.3817    0.0000 C   0  0  0  0  0  0  0  0  0  0  0  0
   -9.6170  -14.2090    0.0000 C   0  0  0  0  0  0  0  0  0  0  0  0
   -8.9070  -14.6217    0.0000 C   0  0  0  0  0  0  0  0  0  0  0  0
   -8.9052  -12.9689    0.0000 C   0  0  0  0  0  0  0  0  0  0  0  0
   -8.1873  -13.3781    0.0000 C   0  0  0  0  0  0  0  0  0  0  0  0
   -8.1824  -14.2110    0.0000 C   0  0  0  0  0  0  0  0  0  0  0  0
   -7.4683  -14.6222    0.0000 C   0  0  0  0  0  0  0  0  0  0  0  0
   -6.7472  -14.2051    0.0000 N   0  0  0  0  0  0  0  0  0  0  0  0
   -6.7521  -13.3722    0.0000 C   0  0  0  0  0  0  0  0  0  0  0  0
   -7.4782  -12.9563    0.0000 C   0  0  0  0  0  0  0  0  0  0  0  0
   -6.0295  -14.6156    0.0000 C   0  0  0  0  0  0  0  0  0  0  0  0
   -5.3141  -14.2012    0.0000 C   0  0  0  0  0  0  0  0  0  0  0  0
   -4.5986  -14.6117    0.0000 C   0  0  0  0  0  0  0  0  0  0  0  0
   -4.5999  -15.4367    0.0000 C   0  0  0  0  0  0  0  0  0  0  0  0
   -3.8853  -15.8472    0.0000 C   0  0  0  0  0  0  0  0  0  0  0  0
   -3.1710  -15.4327    0.0000 C   0  0  0  0  0  0  0  0  0  0  0  0
   -3.1760  -14.6035    0.0000 C   0  0  0  0  0  0  0  0  0  0  0  0
   -3.8912  -14.1969    0.0000 C   0  0  0  0  0  0  0  0  0  0  0  0
   -2.4550  -15.8423    0.0000 N   0  0  0  0  0  0  0  0  0  0  0  0
   -1.7423  -15.4269    0.0000 C   0  0  0  0  0  0  0  0  0  0  0  0
   -1.7457  -14.6020    0.0000 O   0  0  0  0  0  0  0  0  0  0  0  0
  -10.3285  -12.9694    0.0000 O   0  0  0  0  0  0  0  0  0  0  0  0
  -10.3283  -12.1445    0.0000 C   0  0  0  0  0  0  0  0  0  0  0  0
  -10.3355  -14.6208    0.0000 O   0  0  0  0  0  0  0  0  0  0  0  0
  -10.3348  -15.4457    0.0000 C   0  0  0  0  0  0  0  0  0  0  0  0
   -1.0263  -15.8365    0.0000 C   0  0  0  0  0  0  0  0  0  0  0  0
   -1.0243  -16.6616    0.0000 C   0  0  0  0  0  0  0  0  0  0  0  0
   -0.3091  -17.0710    0.0000 C   0  0  0  0  0  0  0  0  0  0  0  0
    0.4046  -16.6557    0.0000 C   0  0  0  0  0  0  0  0  0  0  0  0
    0.3986  -15.8265    0.0000 C   0  0  0  0  0  0  0  0  0  0  0  0
   -0.3172  -15.4207    0.0000 C   0  0  0  0  0  0  0  0  0  0  0  0
 14 15  2  0
  5  4  1  0
 15 16  1  0
  4  1  2  0
 16 17  2  0
  5 10  1  0
 17 18  1  0
 18 13  2  0
  6  7  1  0
 16 19  1  0
  7  8  1  0
 19 20  1  0
  8  9  1  0
 20 21  2  0
  9 10  1  0
  1 22  1  0
  5  6  2  0
 22 23  1  0
  8 11  1  0
  2 24  1  0
 24 25  1  0
 11 12  1  0
 20 26  1  0
  2  3  2  0
 26 27  2  0
 12 13  1  0
 27 28  1  0
  3  6  1  0
 28 29  2  0
 13 14  1  0
 29 30  1  0
  1  2  1  0
 30 31  2  0
 31 26  1  0
M  END
>  <Classification>  (85) 
0

>  <pchembl>  (85) 
4.61

>  <InChI_steorem>  (85) 
InChI=1S/C26H28N2O3/c1-30-24-16-21-13-15-28(18-22(21)17-25(24)31-2)14-12-19-8-10-23(11-9-19)27-26(29)20-6-4-3-5-7-20/h3-11,16-17H,12-15,18H2,1-2H3,(H,27,29)

>  <source>  (85) 
ChEMBL25

>  <source_id>  (85) 
25

>  <optional_reference>  (85) 
10.1016/j.bmc.2008.07.034

>  <optional_origin>  (85) 
None

>  <target>  (85) 
BCRP

$$$$

     RDKit          2D

 34 38  0  0  0  0  0  0  0  0999 V2000
   11.3902   -4.5083    0.0000 C   0  0  0  0  0  0  0  0  0  0  0  0
   11.3891   -5.3357    0.0000 C   0  0  0  0  0  0  0  0  0  0  0  0
   12.1039   -5.7485    0.0000 C   0  0  0  0  0  0  0  0  0  0  0  0
   12.1021   -4.0955    0.0000 C   0  0  0  0  0  0  0  0  0  0  0  0
   12.8175   -4.5047    0.0000 C   0  0  0  0  0  0  0  0  0  0  0  0
   12.8209   -5.3377    0.0000 C   0  0  0  0  0  0  0  0  0  0  0  0
   13.5401   -5.7490    0.0000 C   0  0  0  0  0  0  0  0  0  0  0  0
   14.2605   -5.3318    0.0000 N   0  0  0  0  0  0  0  0  0  0  0  0
   14.2570   -4.4988    0.0000 C   0  0  0  0  0  0  0  0  0  0  0  0
   13.5332   -4.0829    0.0000 C   0  0  0  0  0  0  0  0  0  0  0  0
   14.9761   -5.7424    0.0000 C   0  0  0  0  0  0  0  0  0  0  0  0
   15.6894   -5.3279    0.0000 C   0  0  0  0  0  0  0  0  0  0  0  0
   16.4050   -5.7385    0.0000 C   0  0  0  0  0  0  0  0  0  0  0  0
   16.4036   -6.5636    0.0000 C   0  0  0  0  0  0  0  0  0  0  0  0
   17.1184   -6.9741    0.0000 C   0  0  0  0  0  0  0  0  0  0  0  0
   17.8327   -6.5596    0.0000 C   0  0  0  0  0  0  0  0  0  0  0  0
   17.8278   -5.7303    0.0000 C   0  0  0  0  0  0  0  0  0  0  0  0
   17.1125   -5.3236    0.0000 C   0  0  0  0  0  0  0  0  0  0  0  0
   18.5489   -6.9692    0.0000 N   0  0  0  0  0  0  0  0  0  0  0  0
   19.2616   -6.5538    0.0000 C   0  0  0  0  0  0  0  0  0  0  0  0
   19.2583   -5.7288    0.0000 O   0  0  0  0  0  0  0  0  0  0  0  0
   10.6757   -4.0960    0.0000 O   0  0  0  0  0  0  0  0  0  0  0  0
   10.6755   -3.2710    0.0000 C   0  0  0  0  0  0  0  0  0  0  0  0
   10.6743   -5.7476    0.0000 O   0  0  0  0  0  0  0  0  0  0  0  0
   10.6736   -6.5726    0.0000 C   0  0  0  0  0  0  0  0  0  0  0  0
   19.9778   -6.9634    0.0000 C   0  0  0  0  0  0  0  0  0  0  0  0
   20.0680   -7.7803    0.0000 O   0  0  0  0  0  0  0  0  0  0  0  0
   20.7307   -6.6216    0.0000 O   0  0  0  0  0  0  0  0  0  0  0  0
   21.2853   -7.2324    0.0000 C   0  0  0  0  0  0  0  0  0  0  0  0
   20.8730   -7.9466    0.0000 C   0  0  0  0  0  0  0  0  0  0  0  0
   21.2854   -8.6586    0.0000 C   0  0  0  0  0  0  0  0  0  0  0  0
   22.1099   -8.6576    0.0000 C   0  0  0  0  0  0  0  0  0  0  0  0
   22.5202   -7.9386    0.0000 C   0  0  0  0  0  0  0  0  0  0  0  0
   22.1054   -7.2295    0.0000 C   0  0  0  0  0  0  0  0  0  0  0  0
  4  1  2  0
 16 17  1  0
  5 10  1  0
 17 18  2  0
 18 13  1  0
  6  7  1  0
 16 19  1  0
  7  8  1  0
 19 20  1  0
  8  9  1  0
 20 21  2  0
  9 10  1  0
  1 22  1  0
  5  6  2  0
 22 23  1  0
  8 11  1  0
  2 24  1  0
 24 25  1  0
 11 12  1  0
 20 26  1  0
 26 27  1  0
  2  3  2  0
 12 13  1  0
 27 30  1  0
 29 28  1  0
 28 26  1  0
  3  6  1  0
 13 14  2  0
 29 30  2  0
  1  2  1  0
 30 31  1  0
 14 15  1  0
 31 32  2  0
  5  4  1  0
 32 33  1  0
 15 16  2  0
 33 34  2  0
 34 29  1  0
M  END
>  <Classification>  (86) 
0

>  <pchembl>  (86) 
4.82

>  <InChI_steorem>  (86) 
InChI=1S/C27H28N2O5/c1-31-24-15-19-12-14-29(17-20(19)16-25(24)32-2)13-11-18-7-9-21(10-8-18)28-26(30)27-33-22-5-3-4-6-23(22)34-27/h3-10,15-16,27H,11-14,17H2,1-2H3,(H,28,30)

>  <source>  (86) 
ChEMBL25

>  <source_id>  (86) 
25

>  <optional_reference>  (86) 
10.1016/j.bmc.2008.07.034

>  <optional_origin>  (86) 
None

>  <target>  (86) 
BCRP

$$$$

     RDKit          2D

 35 39  0  0  0  0  0  0  0  0999 V2000
    0.3194  -19.2190    0.0000 C   0  0  0  0  0  0  0  0  0  0  0  0
    0.3182  -20.0464    0.0000 C   0  0  0  0  0  0  0  0  0  0  0  0
    1.0330  -20.4591    0.0000 C   0  0  0  0  0  0  0  0  0  0  0  0
    1.0312  -18.8063    0.0000 C   0  0  0  0  0  0  0  0  0  0  0  0
    1.7464  -19.2154    0.0000 C   0  0  0  0  0  0  0  0  0  0  0  0
    1.7499  -20.0484    0.0000 C   0  0  0  0  0  0  0  0  0  0  0  0
    2.4690  -20.4596    0.0000 C   0  0  0  0  0  0  0  0  0  0  0  0
    3.1893  -20.0425    0.0000 N   0  0  0  0  0  0  0  0  0  0  0  0
    3.1859  -19.2095    0.0000 C   0  0  0  0  0  0  0  0  0  0  0  0
    2.4622  -18.7937    0.0000 C   0  0  0  0  0  0  0  0  0  0  0  0
    3.9048  -20.4530    0.0000 C   0  0  0  0  0  0  0  0  0  0  0  0
    4.6182  -20.0386    0.0000 C   0  0  0  0  0  0  0  0  0  0  0  0
    5.3337  -20.4491    0.0000 C   0  0  0  0  0  0  0  0  0  0  0  0
    5.3323  -21.2741    0.0000 C   0  0  0  0  0  0  0  0  0  0  0  0
    6.0470  -21.6846    0.0000 C   0  0  0  0  0  0  0  0  0  0  0  0
    6.7613  -21.2701    0.0000 C   0  0  0  0  0  0  0  0  0  0  0  0
    6.7564  -20.4409    0.0000 C   0  0  0  0  0  0  0  0  0  0  0  0
    6.0411  -20.0343    0.0000 C   0  0  0  0  0  0  0  0  0  0  0  0
    7.4773  -21.6797    0.0000 N   0  0  0  0  0  0  0  0  0  0  0  0
    8.1900  -21.2644    0.0000 C   0  0  0  0  0  0  0  0  0  0  0  0
    8.1867  -20.4394    0.0000 O   0  0  0  0  0  0  0  0  0  0  0  0
   -0.3952  -18.8068    0.0000 O   0  0  0  0  0  0  0  0  0  0  0  0
   -0.3954  -17.9819    0.0000 C   0  0  0  0  0  0  0  0  0  0  0  0
   -0.3966  -20.4582    0.0000 O   0  0  0  0  0  0  0  0  0  0  0  0
   -0.3972  -21.2831    0.0000 C   0  0  0  0  0  0  0  0  0  0  0  0
    8.9062  -21.6739    0.0000 C   0  0  0  0  0  0  0  0  0  0  0  0
    8.9081  -22.4990    0.0000 N   0  0  0  0  0  0  0  0  0  0  0  0
    9.6233  -22.9085    0.0000 C   0  0  0  0  0  0  0  0  0  0  0  0
    9.6152  -21.2582    0.0000 C   0  0  0  0  0  0  0  0  0  0  0  0
   10.3311  -21.6639    0.0000 C   0  0  0  0  0  0  0  0  0  0  0  0
   10.3340  -22.4919    0.0000 C   0  0  0  0  0  0  0  0  0  0  0  0
   11.0514  -22.9016    0.0000 C   0  0  0  0  0  0  0  0  0  0  0  0
   11.7663  -22.4843    0.0000 C   0  0  0  0  0  0  0  0  0  0  0  0
   11.7593  -21.6532    0.0000 C   0  0  0  0  0  0  0  0  0  0  0  0
   11.0414  -21.2473    0.0000 C   0  0  0  0  0  0  0  0  0  0  0  0
 16 17  1  0
  5 10  1  0
 17 18  2  0
 18 13  1  0
  6  7  1  0
 16 19  1  0
  7  8  1  0
 19 20  1  0
  8  9  1  0
 20 21  2  0
  9 10  1  0
  1 22  1  0
  5  6  1  0
 22 23  1  0
  8 11  1  0
  2 24  1  0
 24 25  1  0
 11 12  1  0
 20 26  1  0
  2  3  1  0
 26 27  2  0
 12 13  1  0
 27 28  1  0
 28 31  2  0
  3  6  2  0
 30 29  2  0
 29 26  1  0
 13 14  2  0
  1  2  2  0
 30 31  1  0
 14 15  1  0
 31 32  1  0
  5  4  2  0
 32 33  2  0
 15 16  2  0
 33 34  1  0
  4  1  1  0
 34 35  2  0
 35 30  1  0
M  END
>  <Classification>  (87) 
1

>  <pchembl>  (87) 
5.22

>  <InChI_steorem>  (87) 
InChI=1S/C29H29N3O3/c1-34-27-16-22-12-14-32(19-24(22)17-28(27)35-2)13-11-20-7-9-25(10-8-20)31-29(33)26-15-21-5-3-4-6-23(21)18-30-26/h3-10,15-18H,11-14,19H2,1-2H3,(H,31,33)

>  <source>  (87) 
ChEMBL25

>  <source_id>  (87) 
25

>  <optional_reference>  (87) 
10.1016/j.bmc.2008.07.034

>  <optional_origin>  (87) 
None

>  <target>  (87) 
BCRP

$$$$

     RDKit          2D

 40 44  0  0  0  0  0  0  0  0999 V2000
  -10.8444    2.2167    0.0000 C   0  0  0  0  0  0  0  0  0  0  0  0
  -10.8432    1.3893    0.0000 C   0  0  0  0  0  0  0  0  0  0  0  0
  -10.1331    0.9765    0.0000 C   0  0  0  0  0  0  0  0  0  0  0  0
  -10.1313    2.6295    0.0000 C   0  0  0  0  0  0  0  0  0  0  0  0
   -9.4133    2.2203    0.0000 C   0  0  0  0  0  0  0  0  0  0  0  0
   -9.4084    1.3873    0.0000 C   0  0  0  0  0  0  0  0  0  0  0  0
   -8.6942    0.9760    0.0000 C   0  0  0  0  0  0  0  0  0  0  0  0
   -7.9730    1.3932    0.0000 N   0  0  0  0  0  0  0  0  0  0  0  0
   -7.9779    2.2262    0.0000 C   0  0  0  0  0  0  0  0  0  0  0  0
   -8.7041    2.6421    0.0000 C   0  0  0  0  0  0  0  0  0  0  0  0
   -7.2552    0.9826    0.0000 C   0  0  0  0  0  0  0  0  0  0  0  0
   -6.5436    1.3971    0.0000 C   0  0  0  0  0  0  0  0  0  0  0  0
   -5.8242    0.9865    0.0000 C   0  0  0  0  0  0  0  0  0  0  0  0
   -5.8255    0.1614    0.0000 C   0  0  0  0  0  0  0  0  0  0  0  0
   -5.1108   -0.2491    0.0000 C   0  0  0  0  0  0  0  0  0  0  0  0
   -4.3964    0.1654    0.0000 C   0  0  0  0  0  0  0  0  0  0  0  0
   -4.4014    0.9947    0.0000 C   0  0  0  0  0  0  0  0  0  0  0  0
   -5.1167    1.4014    0.0000 C   0  0  0  0  0  0  0  0  0  0  0  0
   -3.6803   -0.2442    0.0000 N   0  0  0  0  0  0  0  0  0  0  0  0
   -2.9675    0.1712    0.0000 C   0  0  0  0  0  0  0  0  0  0  0  0
   -2.2514   -0.2384    0.0000 C   0  0  0  0  0  0  0  0  0  0  0  0
   -2.9709    0.9962    0.0000 O   0  0  0  0  0  0  0  0  0  0  0  0
   -2.2494   -1.0636    0.0000 C   0  0  0  0  0  0  0  0  0  0  0  0
   -1.5341   -1.4731    0.0000 C   0  0  0  0  0  0  0  0  0  0  0  0
   -0.8204   -1.0577    0.0000 C   0  0  0  0  0  0  0  0  0  0  0  0
   -0.8264   -0.2284    0.0000 C   0  0  0  0  0  0  0  0  0  0  0  0
   -1.5422    0.1774    0.0000 C   0  0  0  0  0  0  0  0  0  0  0  0
   -2.9627   -1.4782    0.0000 N   0  0  0  0  0  0  0  0  0  0  0  0
   -2.9602   -2.3032    0.0000 C   0  0  0  0  0  0  0  0  0  0  0  0
   -3.6734   -2.7178    0.0000 C   0  0  0  0  0  0  0  0  0  0  0  0
   -2.2445   -2.7136    0.0000 O   0  0  0  0  0  0  0  0  0  0  0  0
   -4.3869   -2.3038    0.0000 C   0  0  0  0  0  0  0  0  0  0  0  0
   -5.0996   -2.7177    0.0000 C   0  0  0  0  0  0  0  0  0  0  0  0
   -5.0976   -3.5436    0.0000 C   0  0  0  0  0  0  0  0  0  0  0  0
   -4.3769   -3.9538    0.0000 C   0  0  0  0  0  0  0  0  0  0  0  0
   -3.6671   -3.5375    0.0000 C   0  0  0  0  0  0  0  0  0  0  0  0
  -11.5548    2.6290    0.0000 O   0  0  0  0  0  0  0  0  0  0  0  0
  -11.5546    3.4540    0.0000 C   0  0  0  0  0  0  0  0  0  0  0  0
  -11.5618    0.9774    0.0000 O   0  0  0  0  0  0  0  0  0  0  0  0
  -11.5611    0.1524    0.0000 C   0  0  0  0  0  0  0  0  0  0  0  0
 16 19  1  0
  7  8  1  0
 19 20  1  0
  8  9  1  0
 20 21  1  0
  9 10  1  0
 20 22  2  0
  5  6  1  0
 21 23  1  0
  8 11  1  0
 23 24  2  0
 24 25  1  0
 11 12  1  0
 25 26  2  0
  2  3  1  0
 26 27  1  0
 27 21  2  0
 12 13  1  0
 23 28  1  0
  3  6  2  0
 28 29  1  0
 13 14  2  0
 29 30  1  0
  1  2  2  0
 29 31  2  0
 14 15  1  0
 30 32  2  0
  5  4  2  0
 32 33  1  0
 15 16  2  0
 33 34  2  0
  4  1  1  0
 34 35  1  0
 16 17  1  0
 35 36  2  0
 36 30  1  0
  5 10  1  0
  1 37  1  0
 17 18  2  0
 37 38  1  0
 18 13  1  0
  2 39  1  0
  6  7  1  0
 39 40  1  0
M  END
>  <Classification>  (88) 
1

>  <pchembl>  (88) 
5.4

>  <InChI_steorem>  (88) 
InChI=1S/C33H33N3O4/c1-39-30-20-25-17-19-36(22-26(25)21-31(30)40-2)18-16-23-12-14-27(15-13-23)34-33(38)28-10-6-7-11-29(28)35-32(37)24-8-4-3-5-9-24/h3-15,20-21H,16-19,22H2,1-2H3,(H,34,38)(H,35,37)

>  <source>  (88) 
ChEMBL25

>  <source_id>  (88) 
25

>  <optional_reference>  (88) 
10.1016/j.bmc.2008.07.034

>  <optional_origin>  (88) 
None

>  <target>  (88) 
BCRP

$$$$

     RDKit          2D

 40 45  0  0  0  0  0  0  0  0999 V2000
    8.2319    2.6125    0.0000 C   0  0  0  0  0  0  0  0  0  0  0  0
    8.2307    1.7852    0.0000 C   0  0  0  0  0  0  0  0  0  0  0  0
    8.9456    1.3723    0.0000 C   0  0  0  0  0  0  0  0  0  0  0  0
    8.9438    3.0253    0.0000 C   0  0  0  0  0  0  0  0  0  0  0  0
    9.6591    2.6162    0.0000 C   0  0  0  0  0  0  0  0  0  0  0  0
    9.6626    1.7831    0.0000 C   0  0  0  0  0  0  0  0  0  0  0  0
   10.3817    1.3718    0.0000 C   0  0  0  0  0  0  0  0  0  0  0  0
   11.1021    1.7890    0.0000 N   0  0  0  0  0  0  0  0  0  0  0  0
   11.0987    2.6221    0.0000 C   0  0  0  0  0  0  0  0  0  0  0  0
   10.3749    3.0380    0.0000 C   0  0  0  0  0  0  0  0  0  0  0  0
   11.8177    1.3784    0.0000 C   0  0  0  0  0  0  0  0  0  0  0  0
   12.5311    1.7929    0.0000 C   0  0  0  0  0  0  0  0  0  0  0  0
   13.2467    1.3823    0.0000 C   0  0  0  0  0  0  0  0  0  0  0  0
   13.2453    0.5572    0.0000 C   0  0  0  0  0  0  0  0  0  0  0  0
   13.9601    0.1468    0.0000 C   0  0  0  0  0  0  0  0  0  0  0  0
   14.6744    0.5613    0.0000 C   0  0  0  0  0  0  0  0  0  0  0  0
   14.6695    1.3905    0.0000 C   0  0  0  0  0  0  0  0  0  0  0  0
   13.9542    1.7973    0.0000 C   0  0  0  0  0  0  0  0  0  0  0  0
   15.3905    0.1517    0.0000 N   0  0  0  0  0  0  0  0  0  0  0  0
   16.1033    0.5671    0.0000 C   0  0  0  0  0  0  0  0  0  0  0  0
   16.8194    0.1575    0.0000 C   0  0  0  0  0  0  0  0  0  0  0  0
   16.1000    1.3921    0.0000 O   0  0  0  0  0  0  0  0  0  0  0  0
   16.8214   -0.6677    0.0000 C   0  0  0  0  0  0  0  0  0  0  0  0
   17.5367   -1.0773    0.0000 C   0  0  0  0  0  0  0  0  0  0  0  0
   18.2505   -0.6618    0.0000 C   0  0  0  0  0  0  0  0  0  0  0  0
   18.2445    0.1674    0.0000 C   0  0  0  0  0  0  0  0  0  0  0  0
   17.5286    0.5732    0.0000 C   0  0  0  0  0  0  0  0  0  0  0  0
   16.1082   -1.0824    0.0000 N   0  0  0  0  0  0  0  0  0  0  0  0
   16.1106   -1.9074    0.0000 C   0  0  0  0  0  0  0  0  0  0  0  0
   15.3974   -2.3220    0.0000 C   0  0  0  0  0  0  0  0  0  0  0  0
   16.8263   -2.3177    0.0000 O   0  0  0  0  0  0  0  0  0  0  0  0
   14.6839   -1.9079    0.0000 C   0  0  0  0  0  0  0  0  0  0  0  0
   14.6939   -3.5579    0.0000 N   0  0  0  0  0  0  0  0  0  0  0  0
   15.4037   -3.1416    0.0000 C   0  0  0  0  0  0  0  0  0  0  0  0
   13.9732   -3.1478    0.0000 C   0  0  0  0  0  0  0  0  0  0  0  0
   13.9741   -2.3247    0.0000 C   0  0  0  0  0  0  0  0  0  0  0  0
   13.2630   -1.9143    0.0000 C   0  0  0  0  0  0  0  0  0  0  0  0
   12.5504   -2.3256    0.0000 C   0  0  0  0  0  0  0  0  0  0  0  0
   12.5535   -3.1518    0.0000 C   0  0  0  0  0  0  0  0  0  0  0  0
   13.2652   -3.5586    0.0000 C   0  0  0  0  0  0  0  0  0  0  0  0
 16 19  1  0
  7  8  1  0
 19 20  1  0
  8  9  1  0
 20 21  1  0
  9 10  1  0
 20 22  2  0
  5  6  1  0
 21 23  1  0
  8 11  1  0
 23 24  2  0
 24 25  1  0
 11 12  1  0
 25 26  2  0
  2  3  1  0
 26 27  1  0
 27 21  2  0
 12 13  1  0
 23 28  1  0
  3  6  2  0
 28 29  1  0
 13 14  2  0
 29 30  1  0
  1  2  2  0
 29 31  2  0
 14 15  1  0
 30 32  2  0
 32 36  1  0
  5  4  2  0
 35 33  1  0
 15 16  2  0
 33 34  2  0
 34 30  1  0
  4  1  1  0
 16 17  1  0
 35 36  2  0
  5 10  1  0
 36 37  1  0
 17 18  2  0
 37 38  2  0
 18 13  1  0
 38 39  1  0
  6  7  1  0
 39 40  2  0
 40 35  1  0
M  END
>  <Classification>  (89) 
1

>  <pchembl>  (89) 
6.17

>  <InChI_steorem>  (89) 
InChI=1S/C34H30N4O2/c39-33(28-21-26-8-3-5-11-31(26)35-22-28)37-32-12-6-4-10-30(32)34(40)36-29-15-13-24(14-16-29)17-19-38-20-18-25-7-1-2-9-27(25)23-38/h1-16,21-22H,17-20,23H2,(H,36,40)(H,37,39)

>  <source>  (89) 
ChEMBL25

>  <source_id>  (89) 
25

>  <optional_reference>  (89) 
10.1016/j.bmc.2008.07.034

>  <optional_origin>  (89) 
None

>  <target>  (89) 
BCRP

$$$$

     RDKit          2D

 41 45  0  0  0  0  0  0  0  0999 V2000
  -10.7270   -4.7913    0.0000 C   0  0  0  0  0  0  0  0  0  0  0  0
  -10.7259   -5.6186    0.0000 C   0  0  0  0  0  0  0  0  0  0  0  0
  -10.0157   -6.0315    0.0000 C   0  0  0  0  0  0  0  0  0  0  0  0
  -10.0139   -4.3786    0.0000 C   0  0  0  0  0  0  0  0  0  0  0  0
   -9.2960   -4.7877    0.0000 C   0  0  0  0  0  0  0  0  0  0  0  0
   -9.2911   -5.6207    0.0000 C   0  0  0  0  0  0  0  0  0  0  0  0
   -8.5770   -6.0320    0.0000 C   0  0  0  0  0  0  0  0  0  0  0  0
   -7.8558   -5.6148    0.0000 N   0  0  0  0  0  0  0  0  0  0  0  0
   -7.8607   -4.7818    0.0000 C   0  0  0  0  0  0  0  0  0  0  0  0
   -8.5868   -4.3659    0.0000 C   0  0  0  0  0  0  0  0  0  0  0  0
   -7.1381   -6.0253    0.0000 C   0  0  0  0  0  0  0  0  0  0  0  0
   -6.4265   -5.6109    0.0000 C   0  0  0  0  0  0  0  0  0  0  0  0
   -5.7071   -6.0214    0.0000 C   0  0  0  0  0  0  0  0  0  0  0  0
   -5.7085   -6.8464    0.0000 C   0  0  0  0  0  0  0  0  0  0  0  0
   -4.9938   -7.2569    0.0000 C   0  0  0  0  0  0  0  0  0  0  0  0
   -4.2795   -6.8424    0.0000 C   0  0  0  0  0  0  0  0  0  0  0  0
   -4.2844   -6.0132    0.0000 C   0  0  0  0  0  0  0  0  0  0  0  0
   -4.9997   -5.6065    0.0000 C   0  0  0  0  0  0  0  0  0  0  0  0
   -3.5634   -7.2520    0.0000 N   0  0  0  0  0  0  0  0  0  0  0  0
   -2.8507   -6.8367    0.0000 C   0  0  0  0  0  0  0  0  0  0  0  0
   -2.1346   -7.2462    0.0000 C   0  0  0  0  0  0  0  0  0  0  0  0
   -2.8540   -6.0117    0.0000 O   0  0  0  0  0  0  0  0  0  0  0  0
   -2.1327   -8.0714    0.0000 C   0  0  0  0  0  0  0  0  0  0  0  0
   -1.4174   -8.4808    0.0000 C   0  0  0  0  0  0  0  0  0  0  0  0
   -0.7037   -8.0655    0.0000 C   0  0  0  0  0  0  0  0  0  0  0  0
   -0.7097   -7.2362    0.0000 C   0  0  0  0  0  0  0  0  0  0  0  0
   -1.4255   -6.8305    0.0000 C   0  0  0  0  0  0  0  0  0  0  0  0
   -2.8458   -8.4859    0.0000 N   0  0  0  0  0  0  0  0  0  0  0  0
   -2.8433   -9.3109    0.0000 C   0  0  0  0  0  0  0  0  0  0  0  0
   -3.5566   -9.7256    0.0000 C   0  0  0  0  0  0  0  0  0  0  0  0
   -2.1277   -9.7213    0.0000 O   0  0  0  0  0  0  0  0  0  0  0  0
  -11.4374   -4.3790    0.0000 O   0  0  0  0  0  0  0  0  0  0  0  0
  -11.4372   -3.5541    0.0000 C   0  0  0  0  0  0  0  0  0  0  0  0
  -11.4443   -6.0305    0.0000 O   0  0  0  0  0  0  0  0  0  0  0  0
  -11.4437   -6.8554    0.0000 C   0  0  0  0  0  0  0  0  0  0  0  0
   -4.2699   -9.3115    0.0000 C   0  0  0  0  0  0  0  0  0  0  0  0
   -4.9827   -9.7254    0.0000 C   0  0  0  0  0  0  0  0  0  0  0  0
   -4.9807  -10.5512    0.0000 C   0  0  0  0  0  0  0  0  0  0  0  0
   -4.2599  -10.9614    0.0000 C   0  0  0  0  0  0  0  0  0  0  0  0
   -3.5502  -10.5451    0.0000 C   0  0  0  0  0  0  0  0  0  0  0  0
   -5.6932  -10.9668    0.0000 C   0  0  0  0  0  0  0  0  0  0  0  0
  7  8  1  0
 19 20  1  0
  8  9  1  0
 20 21  1  0
  9 10  1  0
 20 22  2  0
  5  6  1  0
 21 23  1  0
  8 11  1  0
 23 24  2  0
 24 25  1  0
 11 12  1  0
 25 26  2  0
  2  3  1  0
 26 27  1  0
 27 21  2  0
 12 13  1  0
 23 28  1  0
  3  6  2  0
 28 29  1  0
 13 14  2  0
 29 30  1  0
  1  2  2  0
 29 31  2  0
 14 15  1  0
  1 32  1  0
  5  4  2  0
 32 33  1  0
 15 16  2  0
  2 34  1  0
  4  1  1  0
 34 35  1  0
 16 17  1  0
 30 36  2  0
  5 10  1  0
 36 37  1  0
 17 18  2  0
 37 38  2  0
 18 13  1  0
 38 39  1  0
  6  7  1  0
 39 40  2  0
 40 30  1  0
 16 19  1  0
 38 41  1  0
M  END
>  <Classification>  (90) 
1

>  <pchembl>  (90) 
5.41

>  <InChI_steorem>  (90) 
InChI=1S/C34H35N3O4/c1-23-8-12-25(13-9-23)33(38)36-30-7-5-4-6-29(30)34(39)35-28-14-10-24(11-15-28)16-18-37-19-17-26-20-31(40-2)32(41-3)21-27(26)22-37/h4-15,20-21H,16-19,22H2,1-3H3,(H,35,39)(H,36,38)

>  <source>  (90) 
ChEMBL25

>  <source_id>  (90) 
25

>  <optional_reference>  (90) 
10.1016/j.bmc.2008.07.034

>  <optional_origin>  (90) 
None

>  <target>  (90) 
BCRP

$$$$

     RDKit          2D

 44 49  0  0  0  0  0  0  0  0999 V2000
   -0.1056    2.2709    0.0000 C   0  0  0  0  0  0  0  0  0  0  0  0
   -0.1068    1.4435    0.0000 C   0  0  0  0  0  0  0  0  0  0  0  0
    0.6081    1.0306    0.0000 C   0  0  0  0  0  0  0  0  0  0  0  0
    0.6063    2.6836    0.0000 C   0  0  0  0  0  0  0  0  0  0  0  0
    1.3216    2.2745    0.0000 C   0  0  0  0  0  0  0  0  0  0  0  0
    1.3251    1.4414    0.0000 C   0  0  0  0  0  0  0  0  0  0  0  0
    2.0442    1.0301    0.0000 C   0  0  0  0  0  0  0  0  0  0  0  0
    2.7646    1.4473    0.0000 N   0  0  0  0  0  0  0  0  0  0  0  0
    2.7612    2.2804    0.0000 C   0  0  0  0  0  0  0  0  0  0  0  0
    2.0374    2.6963    0.0000 C   0  0  0  0  0  0  0  0  0  0  0  0
    3.4802    1.0368    0.0000 C   0  0  0  0  0  0  0  0  0  0  0  0
    4.1936    1.4512    0.0000 C   0  0  0  0  0  0  0  0  0  0  0  0
    4.9092    1.0407    0.0000 C   0  0  0  0  0  0  0  0  0  0  0  0
    4.9078    0.2156    0.0000 C   0  0  0  0  0  0  0  0  0  0  0  0
    5.6226   -0.1949    0.0000 C   0  0  0  0  0  0  0  0  0  0  0  0
    6.3369    0.2196    0.0000 C   0  0  0  0  0  0  0  0  0  0  0  0
    6.3320    1.0489    0.0000 C   0  0  0  0  0  0  0  0  0  0  0  0
    5.6167    1.4556    0.0000 C   0  0  0  0  0  0  0  0  0  0  0  0
    7.0530   -0.1900    0.0000 N   0  0  0  0  0  0  0  0  0  0  0  0
    7.7658    0.2254    0.0000 C   0  0  0  0  0  0  0  0  0  0  0  0
    8.4819   -0.1842    0.0000 C   0  0  0  0  0  0  0  0  0  0  0  0
    7.7625    1.0504    0.0000 O   0  0  0  0  0  0  0  0  0  0  0  0
    8.4839   -1.0094    0.0000 C   0  0  0  0  0  0  0  0  0  0  0  0
    9.1992   -1.4189    0.0000 C   0  0  0  0  0  0  0  0  0  0  0  0
    9.9130   -1.0035    0.0000 C   0  0  0  0  0  0  0  0  0  0  0  0
    9.9070   -0.1742    0.0000 C   0  0  0  0  0  0  0  0  0  0  0  0
    9.1911    0.2316    0.0000 C   0  0  0  0  0  0  0  0  0  0  0  0
    7.7707   -1.4240    0.0000 N   0  0  0  0  0  0  0  0  0  0  0  0
    7.7731   -2.2490    0.0000 C   0  0  0  0  0  0  0  0  0  0  0  0
    7.0599   -2.6637    0.0000 C   0  0  0  0  0  0  0  0  0  0  0  0
    8.4888   -2.6594    0.0000 O   0  0  0  0  0  0  0  0  0  0  0  0
   -0.8202    2.6832    0.0000 O   0  0  0  0  0  0  0  0  0  0  0  0
   -0.8204    3.5082    0.0000 C   0  0  0  0  0  0  0  0  0  0  0  0
   -0.8216    1.0316    0.0000 O   0  0  0  0  0  0  0  0  0  0  0  0
   -0.8222    0.2066    0.0000 C   0  0  0  0  0  0  0  0  0  0  0  0
    6.3464   -2.2496    0.0000 C   0  0  0  0  0  0  0  0  0  0  0  0
    6.3564   -3.8996    0.0000 N   0  0  0  0  0  0  0  0  0  0  0  0
    7.0662   -3.4833    0.0000 C   0  0  0  0  0  0  0  0  0  0  0  0
    5.6357   -3.4894    0.0000 C   0  0  0  0  0  0  0  0  0  0  0  0
    5.6366   -2.6664    0.0000 C   0  0  0  0  0  0  0  0  0  0  0  0
    4.9255   -2.2559    0.0000 C   0  0  0  0  0  0  0  0  0  0  0  0
    4.2129   -2.6673    0.0000 C   0  0  0  0  0  0  0  0  0  0  0  0
    4.2160   -3.4935    0.0000 C   0  0  0  0  0  0  0  0  0  0  0  0
    4.9277   -3.9002    0.0000 C   0  0  0  0  0  0  0  0  0  0  0  0
 20 21  1  0
  9 10  1  0
 20 22  2  0
  5  6  1  0
 21 23  1  0
  8 11  1  0
 23 24  2  0
 24 25  1  0
 11 12  1  0
 25 26  2  0
  2  3  1  0
 26 27  1  0
 27 21  2  0
 12 13  1  0
 23 28  1  0
  3  6  2  0
 28 29  1  0
 13 14  2  0
 29 30  1  0
  1  2  2  0
 29 31  2  0
 14 15  1  0
  1 32  1  0
  5  4  2  0
 32 33  1  0
 15 16  2  0
  2 34  1  0
  4  1  1  0
 34 35  1  0
 16 17  1  0
 30 36  2  0
 36 40  1  0
  5 10  1  0
 39 37  1  0
 17 18  2  0
 37 38  2  0
 38 30  1  0
 18 13  1  0
  6  7  1  0
 39 40  2  0
 16 19  1  0
 40 41  1  0
  7  8  1  0
 41 42  2  0
 19 20  1  0
 42 43  1  0
  8  9  1  0
 43 44  2  0
 44 39  1  0
M  END
>  <Classification>  (91) 
1

>  <pchembl>  (91) 
5.3

>  <InChI_steorem>  (91) 
InChI=1S/C36H34N4O4/c1-43-33-20-25-16-18-40(23-28(25)21-34(33)44-2)17-15-24-11-13-29(14-12-24)38-36(42)30-8-4-6-10-32(30)39-35(41)27-19-26-7-3-5-9-31(26)37-22-27/h3-14,19-22H,15-18,23H2,1-2H3,(H,38,42)(H,39,41)

>  <source>  (91) 
ChEMBL25

>  <source_id>  (91) 
25

>  <optional_reference>  (91) 
10.1016/j.bmc.2008.07.034

>  <optional_origin>  (91) 
None

>  <target>  (91) 
BCRP

$$$$

     RDKit          2D

 21 22  0  0  0  0  0  0  0  0999 V2000
   14.5694  -23.7791    0.0000 C   0  0  0  0  0  0  0  0  0  0  0  0
   14.5682  -24.6065    0.0000 C   0  0  0  0  0  0  0  0  0  0  0  0
   15.2831  -25.0194    0.0000 C   0  0  0  0  0  0  0  0  0  0  0  0
   15.9995  -24.6060    0.0000 C   0  0  0  0  0  0  0  0  0  0  0  0
   15.9966  -23.7755    0.0000 C   0  0  0  0  0  0  0  0  0  0  0  0
   15.2813  -23.3664    0.0000 C   0  0  0  0  0  0  0  0  0  0  0  0
   16.7096  -23.3603    0.0000 C   0  0  0  0  0  0  0  0  0  0  0  0
   17.4256  -23.7701    0.0000 C   0  0  0  0  0  0  0  0  0  0  0  0
   16.7064  -22.5353    0.0000 O   0  0  0  0  0  0  0  0  0  0  0  0
   18.1385  -23.3549    0.0000 C   0  0  0  0  0  0  0  0  0  0  0  0
   18.8545  -23.7647    0.0000 C   0  0  0  0  0  0  0  0  0  0  0  0
   18.8545  -24.5886    0.0000 C   0  0  0  0  0  0  0  0  0  0  0  0
   19.5697  -24.9983    0.0000 C   0  0  0  0  0  0  0  0  0  0  0  0
   20.2836  -24.5831    0.0000 C   0  0  0  0  0  0  0  0  0  0  0  0
   20.2778  -23.7538    0.0000 C   0  0  0  0  0  0  0  0  0  0  0  0
   19.5620  -23.3478    0.0000 C   0  0  0  0  0  0  0  0  0  0  0  0
   21.0001  -24.9919    0.0000 Cl  0  0  0  0  0  0  0  0  0  0  0  0
   15.2788  -22.5414    0.0000 O   0  0  0  0  0  0  0  0  0  0  0  0
   15.9920  -22.1267    0.0000 C   0  0  0  0  0  0  0  0  0  0  0  0
   13.8534  -25.0184    0.0000 O   0  0  0  0  0  0  0  0  0  0  0  0
   13.1393  -24.6054    0.0000 C   0  0  0  0  0  0  0  0  0  0  0  0
  6  1  2  0
  5  7  1  0
  7  8  1  0
  7  9  2  0
  8 10  2  3
 10 11  1  0
 11 12  2  0
 12 13  1  0
 13 14  2  0
 14 15  1  0
 15 16  2  0
 16 11  1  0
  1  2  1  0
 14 17  1  0
  2  3  2  0
  6 18  1  0
  3  4  1  0
 18 19  1  0
  4  5  2  0
  2 20  1  0
  5  6  1  0
 20 21  1  0
M  END
>  <Classification>  (92) 
1

>  <pchembl>  (92) 
5.51

>  <InChI_steorem>  (92) 
InChI=1S/C17H15ClO3/c1-20-14-8-9-15(17(11-14)21-2)16(19)10-5-12-3-6-13(18)7-4-12/h3-11H,1-2H3

>  <source>  (92) 
ChEMBL25

>  <source_id>  (92) 
25

>  <optional_reference>  (92) 
10.1016/j.bmc.2011.10.074

>  <optional_origin>  (92) 
None

>  <target>  (92) 
BCRP

$$$$

     RDKit          2D

 21 22  0  0  0  0  0  0  0  0999 V2000
   -3.8598    1.4584    0.0000 C   0  0  0  0  0  0  0  0  0  0  0  0
   -3.8609    0.6310    0.0000 C   0  0  0  0  0  0  0  0  0  0  0  0
   -3.1461    0.2181    0.0000 C   0  0  0  0  0  0  0  0  0  0  0  0
   -2.4297    0.6315    0.0000 C   0  0  0  0  0  0  0  0  0  0  0  0
   -2.4325    1.4620    0.0000 C   0  0  0  0  0  0  0  0  0  0  0  0
   -3.1479    1.8711    0.0000 C   0  0  0  0  0  0  0  0  0  0  0  0
   -1.7196    1.8772    0.0000 C   0  0  0  0  0  0  0  0  0  0  0  0
   -1.0036    1.4674    0.0000 C   0  0  0  0  0  0  0  0  0  0  0  0
   -1.7227    2.7022    0.0000 O   0  0  0  0  0  0  0  0  0  0  0  0
   -0.2907    1.8826    0.0000 C   0  0  0  0  0  0  0  0  0  0  0  0
    0.4253    1.4728    0.0000 C   0  0  0  0  0  0  0  0  0  0  0  0
    0.4253    0.6489    0.0000 C   0  0  0  0  0  0  0  0  0  0  0  0
    1.1405    0.2392    0.0000 C   0  0  0  0  0  0  0  0  0  0  0  0
    1.8544    0.6544    0.0000 C   0  0  0  0  0  0  0  0  0  0  0  0
    1.8486    1.4837    0.0000 C   0  0  0  0  0  0  0  0  0  0  0  0
    1.1329    1.8897    0.0000 C   0  0  0  0  0  0  0  0  0  0  0  0
   -3.1504    2.6961    0.0000 O   0  0  0  0  0  0  0  0  0  0  0  0
   -2.4371    3.1108    0.0000 C   0  0  0  0  0  0  0  0  0  0  0  0
   -4.5757    0.2191    0.0000 O   0  0  0  0  0  0  0  0  0  0  0  0
   -5.2899    0.6321    0.0000 C   0  0  0  0  0  0  0  0  0  0  0  0
    1.1261    2.7146    0.0000 Cl  0  0  0  0  0  0  0  0  0  0  0  0
  6  1  2  0
  5  7  1  0
  7  8  1  0
  7  9  2  0
  8 10  2  3
 10 11  1  0
 11 12  2  0
 12 13  1  0
 13 14  2  0
 14 15  1  0
 15 16  2  0
 16 11  1  0
  1  2  1  0
  6 17  1  0
  2  3  2  0
 17 18  1  0
  3  4  1  0
  2 19  1  0
  4  5  2  0
 19 20  1  0
  5  6  1  0
 16 21  1  0
M  END
>  <Classification>  (93) 
1

>  <pchembl>  (93) 
5.5

>  <InChI_steorem>  (93) 
InChI=1S/C17H15ClO3/c1-20-13-8-9-14(17(11-13)21-2)16(19)10-7-12-5-3-4-6-15(12)18/h3-11H,1-2H3

>  <source>  (93) 
ChEMBL25

>  <source_id>  (93) 
25

>  <optional_reference>  (93) 
10.1016/j.bmc.2011.10.074

>  <optional_origin>  (93) 
None

>  <target>  (93) 
BCRP

$$$$

     RDKit          2D

 31 33  0  0  0  0  0  0  0  0999 V2000
   12.4884   -0.6135    0.0000 C   0  0  0  0  0  0  0  0  0  0  0  0
   12.4871   -1.4402    0.0000 C   0  0  0  0  0  0  0  0  0  0  0  0
   13.1993   -1.8526    0.0000 C   0  0  0  0  0  0  0  0  0  0  0  0
   13.1973   -0.2011    0.0000 C   0  0  0  0  0  0  0  0  0  0  0  0
   13.9147   -0.6095    0.0000 C   0  0  0  0  0  0  0  0  0  0  0  0
   13.9185   -1.4422    0.0000 C   0  0  0  0  0  0  0  0  0  0  0  0
   14.6374   -1.8531    0.0000 C   0  0  0  0  0  0  0  0  0  0  0  0
   15.3574   -1.4358    0.0000 C   0  0  0  0  0  0  0  0  0  0  0  0
   15.3538   -0.6030    0.0000 C   0  0  0  0  0  0  0  0  0  0  0  0
   14.6301   -0.1876    0.0000 O   0  0  0  0  0  0  0  0  0  0  0  0
   16.0645   -0.1897    0.0000 C   0  0  0  0  0  0  0  0  0  0  0  0
   16.7799   -0.6009    0.0000 C   0  0  0  0  0  0  0  0  0  0  0  0
   17.4916   -0.1871    0.0000 C   0  0  0  0  0  0  0  0  0  0  0  0
   17.4893    0.6379    0.0000 C   0  0  0  0  0  0  0  0  0  0  0  0
   16.7691    1.0473    0.0000 C   0  0  0  0  0  0  0  0  0  0  0  0
   16.0603    0.6311    0.0000 C   0  0  0  0  0  0  0  0  0  0  0  0
   14.6400   -2.6772    0.0000 O   0  0  0  0  0  0  0  0  0  0  0  0
   13.1968   -2.6767    0.0000 O   0  0  0  0  0  0  0  0  0  0  0  0
   11.7728   -1.8512    0.0000 O   0  0  0  0  0  0  0  0  0  0  0  0
   11.0597   -1.4381    0.0000 C   0  0  0  0  0  0  0  0  0  0  0  0
   11.7743   -0.2020    0.0000 O   0  0  0  0  0  0  0  0  0  0  0  0
   11.7737    0.6222    0.0000 C   0  0  0  0  0  0  0  0  0  0  0  0
   13.1935    0.6230    0.0000 O   0  0  0  0  0  0  0  0  0  0  0  0
   13.9053    1.0384    0.0000 C   0  0  0  0  0  0  0  0  0  0  0  0
   18.2010    1.0533    0.0000 O   0  0  0  0  0  0  0  0  0  0  0  0
   18.9167    0.6447    0.0000 C   0  0  0  0  0  0  0  0  0  0  0  0
   12.4818   -3.0866    0.0000 C   0  0  0  0  0  0  0  0  0  0  0  0
   16.0724   -1.8457    0.0000 O   0  0  0  0  0  0  0  0  0  0  0  0
   16.0749   -2.6698    0.0000 C   0  0  0  0  0  0  0  0  0  0  0  0
   16.7634    1.8714    0.0000 O   0  0  0  0  0  0  0  0  0  0  0  0
   17.4743    2.2884    0.0000 C   0  0  0  0  0  0  0  0  0  0  0  0
  5  4  1  0
 15 16  2  0
 16 11  1  0
  9 11  1  0
  4  1  2  0
  7 17  2  0
  5 10  1  0
  3 18  1  0
  6  7  1  0
  2 19  1  0
  7  8  1  0
 19 20  1  0
  8  9  2  0
  1 21  1  0
  9 10  1  0
 21 22  1  0
  5  6  2  0
  4 23  1  0
 23 24  1  0
 11 12  2  0
 14 25  1  0
  2  3  2  0
 25 26  1  0
 12 13  1  0
 18 27  1  0
  3  6  1  0
  8 28  1  0
 13 14  2  0
 28 29  1  0
  1  2  1  0
 15 30  1  0
 14 15  1  0
 30 31  1  0
M  END
>  <Classification>  (94) 
1

>  <pchembl>  (94) 
5.85

>  <InChI_steorem>  (94) 
InChI=1S/C22H24O9/c1-24-12-9-8-11(10-13(12)25-2)16-19(27-4)15(23)14-17(26-3)20(28-5)22(30-7)21(29-6)18(14)31-16/h8-10H,1-7H3

>  <source>  (94) 
ChEMBL25

>  <source_id>  (94) 
25

>  <optional_reference>  (94) 
10.1016/j.bmc.2010.12.043

>  <optional_origin>  (94) 
None

>  <target>  (94) 
BCRP

$$$$

     RDKit          2D

 19 21  0  0  0  0  0  0  0  0999 V2000
    5.5639  -19.6923    0.0000 C   0  0  0  0  0  0  0  0  0  0  0  0
    5.5639  -20.5181    0.0000 C   0  0  0  0  0  0  0  0  0  0  0  0
    4.8531  -20.9288    0.0000 C   0  0  0  0  0  0  0  0  0  0  0  0
    4.8531  -21.7547    0.0000 O   0  0  0  0  0  0  0  0  0  0  0  0
    4.1376  -20.5181    0.0000 C   0  0  0  0  0  0  0  0  0  0  0  0
    3.4266  -20.9288    0.0000 C   0  0  0  0  0  0  0  0  0  0  0  0
    2.7111  -20.5181    0.0000 C   0  0  0  0  0  0  0  0  0  0  0  0
    2.7111  -19.6923    0.0000 C   0  0  0  0  0  0  0  0  0  0  0  0
    3.4266  -19.2817    0.0000 C   0  0  0  0  0  0  0  0  0  0  0  0
    4.1376  -19.6923    0.0000 C   0  0  0  0  0  0  0  0  0  0  0  0
    4.8531  -19.2817    0.0000 O   0  0  0  0  0  0  0  0  0  0  0  0
    6.2795  -19.2817    0.0000 C   0  0  0  0  0  0  0  0  0  0  0  0
    6.2795  -18.4558    0.0000 C   0  0  0  0  0  0  0  0  0  0  0  0
    6.9904  -18.0451    0.0000 C   0  0  0  0  0  0  0  0  0  0  0  0
    7.7059  -18.4558    0.0000 C   0  0  0  0  0  0  0  0  0  0  0  0
    7.7059  -19.2817    0.0000 C   0  0  0  0  0  0  0  0  0  0  0  0
    6.9904  -19.6923    0.0000 C   0  0  0  0  0  0  0  0  0  0  0  0
    2.0004  -20.9298    0.0000 O   0  0  0  0  0  0  0  0  0  0  0  0
    1.2886  -20.5200    0.0000 C   0  0  0  0  0  0  0  0  0  0  0  0
  2  3  1  0
  3  4  2  0
  3  5  1  0
  5  6  2  0
  6  7  1  0
  7  8  2  0
  8  9  1  0
  9 10  2  0
  5 10  1  0
 10 11  1  0
  1 11  1  0
  1 12  1  0
 12 13  2  0
 13 14  1  0
 14 15  2  0
 15 16  1  0
 16 17  2  0
 12 17  1  0
  7 18  1  0
  1  2  2  0
 18 19  1  0
M  END
>  <Classification>  (95) 
1

>  <pchembl>  (95) 
5.47

>  <InChI_steorem>  (95) 
InChI=1S/C16H12O3/c1-18-12-7-8-15-13(9-12)14(17)10-16(19-15)11-5-3-2-4-6-11/h2-10H,1H3

>  <source>  (95) 
ChEMBL25

>  <source_id>  (95) 
25

>  <optional_reference>  (95) 
10.1016/j.bmc.2010.12.043

>  <optional_origin>  (95) 
None

>  <target>  (95) 
BCRP

$$$$

     RDKit          2D

 24 26  0  0  0  0  0  0  0  0999 V2000
   19.2539  -13.1860    0.0000 N   0  0  0  0  0  0  0  0  0  0  0  0
   19.9703  -12.7727    0.0000 C   0  0  0  0  0  0  0  0  0  0  0  0
   19.9675  -11.9422    0.0000 N   0  0  0  0  0  0  0  0  0  0  0  0
   19.2521  -11.5330    0.0000 C   0  0  0  0  0  0  0  0  0  0  0  0
   18.5391  -12.7732    0.0000 C   0  0  0  0  0  0  0  0  0  0  0  0
   18.5414  -11.9476    0.0000 C   0  0  0  0  0  0  0  0  0  0  0  0
   17.8287  -11.5346    0.0000 C   0  0  0  0  0  0  0  0  0  0  0  0
   17.8282  -13.1840    0.0000 C   0  0  0  0  0  0  0  0  0  0  0  0
   19.2486  -10.7080    0.0000 N   0  0  0  0  0  0  0  0  0  0  0  0
   19.9613  -10.2925    0.0000 C   0  0  0  0  0  0  0  0  0  0  0  0
   20.6806  -10.7054    0.0000 C   0  0  0  0  0  0  0  0  0  0  0  0
   21.3928  -10.2906    0.0000 C   0  0  0  0  0  0  0  0  0  0  0  0
   21.3897   -9.4647    0.0000 C   0  0  0  0  0  0  0  0  0  0  0  0
   20.6684   -9.0555    0.0000 C   0  0  0  0  0  0  0  0  0  0  0  0
   19.9592   -9.4727    0.0000 C   0  0  0  0  0  0  0  0  0  0  0  0
   22.1088  -10.7004    0.0000 Br  0  0  0  0  0  0  0  0  0  0  0  0
   17.1176  -12.7792    0.0000 C   0  0  0  0  0  0  0  0  0  0  0  0
   17.1130  -11.9423    0.0000 C   0  0  0  0  0  0  0  0  0  0  0  0
   16.3986  -11.5297    0.0000 N   0  0  0  0  0  0  0  0  0  0  0  0
   15.6841  -11.9421    0.0000 C   0  0  0  0  0  0  0  0  0  0  0  0
   15.6839  -12.7671    0.0000 O   0  0  0  0  0  0  0  0  0  0  0  0
   14.9696  -11.5295    0.0000 C   0  0  0  0  0  0  0  0  0  0  0  0
   14.2500  -11.1167    0.0000 C   0  0  0  0  0  0  0  0  0  0  0  0
   13.5344  -10.7061    0.0000 C   0  0  0  0  0  0  0  0  0  0  0  0
 10 11  2  0
  5  1  2  0
 11 12  1  0
  5  6  1  0
 12 13  2  0
  2  3  2  0
 13 14  1  0
  6  7  1  0
 14 15  2  0
 15 10  1  0
  7 18  2  0
 12 16  1  0
 17 18  1  0
 17  8  2  0
  8  5  1  0
 18 19  1  0
  3  4  1  0
 19 20  1  0
  4  9  1  0
 20 21  2  0
  4  6  2  0
 20 22  1  0
  9 10  1  0
 22 23  3  0
  1  2  1  0
 23 24  1  0
M  END
>  <Classification>  (96) 
1

>  <pchembl>  (96) 
6.7

>  <InChI_steorem>  (96) 
InChI=1S/C18H13BrN4O/c1-2-4-17(24)22-14-7-8-16-15(10-14)18(21-11-20-16)23-13-6-3-5-12(19)9-13/h3,5-11H,1H3,(H,22,24)(H,20,21,23)

>  <source>  (96) 
ChEMBL25

>  <source_id>  (96) 
25

>  <optional_reference>  (96) 
10.1124/mol.65.6.1485

>  <optional_origin>  (96) 
None

>  <target>  (96) 
BCRP

$$$$

     RDKit          2D

 28 30  0  0  0  0  0  0  0  0999 V2000
   12.1166   -0.4125    0.0000 C   0  0  0  0  0  0  0  0  0  0  0  0
   12.1154   -1.2400    0.0000 C   0  0  0  0  0  0  0  0  0  0  0  0
   12.8283   -1.6529    0.0000 C   0  0  0  0  0  0  0  0  0  0  0  0
   13.5477   -1.2396    0.0000 C   0  0  0  0  0  0  0  0  0  0  0  0
   12.8263    0.0003    0.0000 C   0  0  0  0  0  0  0  0  0  0  0  0
   14.2624   -1.6514    0.0000 C   0  0  0  0  0  0  0  0  0  0  0  0
   14.9765   -1.2383    0.0000 C   0  0  0  0  0  0  0  0  0  0  0  0
   15.6914   -1.6501    0.0000 C   0  0  0  0  0  0  0  0  0  0  0  0
   15.6868   -2.4761    0.0000 C   0  0  0  0  0  0  0  0  0  0  0  0
   16.4008   -2.8878    0.0000 C   0  0  0  0  0  0  0  0  0  0  0  0
   17.1159   -2.4746    0.0000 C   0  0  0  0  0  0  0  0  0  0  0  0
   17.1125   -1.6454    0.0000 C   0  0  0  0  0  0  0  0  0  0  0  0
   16.3978   -1.2374    0.0000 C   0  0  0  0  0  0  0  0  0  0  0  0
   13.5345   -0.4079    0.0000 C   0  0  0  0  0  0  0  0  0  0  0  0
   12.8247    0.8253    0.0000 O   0  0  0  0  0  0  0  0  0  0  0  0
   13.5384    1.2391    0.0000 C   0  0  0  0  0  0  0  0  0  0  0  0
   16.3938   -0.4124    0.0000 N   0  0  0  0  0  0  0  0  0  0  0  0
   17.1062    0.0036    0.0000 C   0  0  0  0  0  0  0  0  0  0  0  0
   17.1022    0.8286    0.0000 C   0  0  0  0  0  0  0  0  0  0  0  0
   17.8170    1.2409    0.0000 C   0  0  0  0  0  0  0  0  0  0  0  0
   17.8133    2.0651    0.0000 C   0  0  0  0  0  0  0  0  0  0  0  0
   17.0963    2.4749    0.0000 C   0  0  0  0  0  0  0  0  0  0  0  0
   16.3816    2.0544    0.0000 C   0  0  0  0  0  0  0  0  0  0  0  0
   16.3888    1.2315    0.0000 C   0  0  0  0  0  0  0  0  0  0  0  0
   18.5324    0.8298    0.0000 O   0  0  0  0  0  0  0  0  0  0  0  0
   18.5260    2.4808    0.0000 O   0  0  0  0  0  0  0  0  0  0  0  0
   18.5340    0.0048    0.0000 C   0  0  0  0  0  0  0  0  0  0  0  0
   18.5222    3.3058    0.0000 C   0  0  0  0  0  0  0  0  0  0  0  0
  1  2  2  0
  5 14  2  0
  6  7  1  0
  5 15  1  0
  3  4  2  0
 15 16  1  0
  7  8  1  0
 13 17  1  0
  4 14  1  0
 17 18  1  0
  8  9  2  0
 18 19  1  0
 19 20  2  0
  9 10  1  0
 20 21  1  0
  5  1  1  0
 21 22  2  0
 10 11  2  0
 22 23  1  0
  2  3  1  0
 23 24  2  0
 24 19  1  0
 11 12  1  0
 20 25  1  0
  4  6  1  0
 21 26  1  0
 12 13  2  0
 25 27  1  0
 13  8  1  0
 26 28  1  0
M  END
>  <Classification>  (97) 
1

>  <pchembl>  (97) 
5.82

>  <InChI_steorem>  (97) 
InChI=1S/C24H27NO3/c1-26-21-11-6-8-18(16-21)14-15-19-9-4-5-12-22(19)25-17-20-10-7-13-23(27-2)24(20)28-3/h4-13,16,25H,14-15,17H2,1-3H3

>  <source>  (97) 
ChEMBL25

>  <source_id>  (97) 
25

>  <optional_reference>  (97) 
10.1021/jm800928j

>  <optional_origin>  (97) 
None

>  <target>  (97) 
BCRP

$$$$

     RDKit          2D

 28 30  0  0  0  0  0  0  0  0999 V2000
   -4.8920   -8.1031    0.0000 C   0  0  0  0  0  0  0  0  0  0  0  0
   -4.8932   -8.9308    0.0000 C   0  0  0  0  0  0  0  0  0  0  0  0
   -4.1803   -9.3437    0.0000 C   0  0  0  0  0  0  0  0  0  0  0  0
   -3.4609   -8.9302    0.0000 C   0  0  0  0  0  0  0  0  0  0  0  0
   -4.1822   -7.6904    0.0000 C   0  0  0  0  0  0  0  0  0  0  0  0
   -2.7461   -9.3420    0.0000 C   0  0  0  0  0  0  0  0  0  0  0  0
   -2.0320   -8.9289    0.0000 C   0  0  0  0  0  0  0  0  0  0  0  0
   -1.3171   -9.3407    0.0000 C   0  0  0  0  0  0  0  0  0  0  0  0
   -1.3217  -10.1668    0.0000 C   0  0  0  0  0  0  0  0  0  0  0  0
   -0.6077  -10.5785    0.0000 C   0  0  0  0  0  0  0  0  0  0  0  0
    0.1074  -10.1653    0.0000 C   0  0  0  0  0  0  0  0  0  0  0  0
    0.1039   -9.3361    0.0000 C   0  0  0  0  0  0  0  0  0  0  0  0
   -0.6107   -8.9280    0.0000 C   0  0  0  0  0  0  0  0  0  0  0  0
   -3.4741   -8.0986    0.0000 C   0  0  0  0  0  0  0  0  0  0  0  0
   -4.1838   -6.8654    0.0000 O   0  0  0  0  0  0  0  0  0  0  0  0
   -3.4701   -6.4515    0.0000 C   0  0  0  0  0  0  0  0  0  0  0  0
   -0.6148   -8.1030    0.0000 N   0  0  0  0  0  0  0  0  0  0  0  0
    0.0977   -7.6870    0.0000 C   0  0  0  0  0  0  0  0  0  0  0  0
    0.0936   -6.8620    0.0000 C   0  0  0  0  0  0  0  0  0  0  0  0
    0.8085   -6.4499    0.0000 C   0  0  0  0  0  0  0  0  0  0  0  0
    0.8047   -5.6256    0.0000 C   0  0  0  0  0  0  0  0  0  0  0  0
    0.0878   -5.2159    0.0000 C   0  0  0  0  0  0  0  0  0  0  0  0
   -0.6270   -5.6363    0.0000 C   0  0  0  0  0  0  0  0  0  0  0  0
   -0.6197   -6.4591    0.0000 C   0  0  0  0  0  0  0  0  0  0  0  0
    1.5174   -5.2100    0.0000 O   0  0  0  0  0  0  0  0  0  0  0  0
    1.5137   -4.3850    0.0000 C   0  0  0  0  0  0  0  0  0  0  0  0
    0.0826   -4.3909    0.0000 O   0  0  0  0  0  0  0  0  0  0  0  0
    0.7944   -3.9739    0.0000 C   0  0  0  0  0  0  0  0  0  0  0  0
  1  2  2  0
  5 14  2  0
  6  7  1  0
  5 15  1  0
  3  4  2  0
 15 16  1  0
  7  8  1  0
 13 17  1  0
  4 14  1  0
 17 18  1  0
  8  9  2  0
 18 19  1  0
 19 20  2  0
  9 10  1  0
 20 21  1  0
  5  1  1  0
 21 22  2  0
 10 11  2  0
 22 23  1  0
  2  3  1  0
 23 24  2  0
 24 19  1  0
 11 12  1  0
 21 25  1  0
  4  6  1  0
 25 26  1  0
 12 13  2  0
 22 27  1  0
 13  8  1  0
 27 28  1  0
M  END
>  <Classification>  (98) 
1

>  <pchembl>  (98) 
6.3

>  <InChI_steorem>  (98) 
InChI=1S/C24H27NO3/c1-26-21-9-6-7-18(15-21)11-13-20-8-4-5-10-22(20)25-17-19-12-14-23(27-2)24(16-19)28-3/h4-10,12,14-16,25H,11,13,17H2,1-3H3

>  <source>  (98) 
ChEMBL25

>  <source_id>  (98) 
25

>  <optional_reference>  (98) 
10.1021/jm800928j

>  <optional_origin>  (98) 
None

>  <target>  (98) 
BCRP

$$$$

     RDKit          2D

 44 48  0  0  0  0  0  0  0  0999 V2000
   12.4848  -14.4964    0.0000 N   0  0  0  0  0  0  0  0  0  0  0  0
   13.1921  -14.0919    0.0000 C   0  0  0  0  0  0  0  0  0  0  0  0
   13.9091  -14.5094    0.0000 C   0  0  0  0  0  0  0  0  0  0  0  0
   13.9019  -15.3309    0.0000 N   0  0  0  0  0  0  0  0  0  0  0  0
   12.4791  -15.3157    0.0000 C   0  0  0  0  0  0  0  0  0  0  0  0
   13.1816  -15.7321    0.0000 C   0  0  0  0  0  0  0  0  0  0  0  0
   13.2163  -11.6227    0.0000 C   0  0  0  0  0  0  0  0  0  0  0  0
   13.2156  -10.7904    0.0000 C   0  0  0  0  0  0  0  0  0  0  0  0
   12.4964  -10.3855    0.0000 C   0  0  0  0  0  0  0  0  0  0  0  0
   11.7890  -10.7990    0.0000 C   0  0  0  0  0  0  0  0  0  0  0  0
   12.5081  -12.0326    0.0000 C   0  0  0  0  0  0  0  0  0  0  0  0
   11.8007  -11.6325    0.0000 C   0  0  0  0  0  0  0  0  0  0  0  0
   13.2077  -13.2758    0.0000 C   0  0  0  0  0  0  0  0  0  0  0  0
   13.9333  -12.8676    0.0000 O   0  0  0  0  0  0  0  0  0  0  0  0
   11.0725  -12.0355    0.0000 C   0  0  0  0  0  0  0  0  0  0  0  0
   10.3695  -11.6109    0.0000 O   0  0  0  0  0  0  0  0  0  0  0  0
   11.0610  -12.8535    0.0000 O   0  0  0  0  0  0  0  0  0  0  0  0
   10.3831  -10.7928    0.0000 C   0  0  0  0  0  0  0  0  0  0  0  0
   13.9356  -10.3878    0.0000 C   0  0  0  0  0  0  0  0  0  0  0  0
   14.6403  -10.8077    0.0000 O   0  0  0  0  0  0  0  0  0  0  0  0
   14.6684   -9.1624    0.0000 C   0  0  0  0  0  0  0  0  0  0  0  0
   15.3681   -9.5613    0.0000 C   0  0  0  0  0  0  0  0  0  0  0  0
   16.0879   -9.1450    0.0000 C   0  0  0  0  0  0  0  0  0  0  0  0
   16.0831   -8.3126    0.0000 C   0  0  0  0  0  0  0  0  0  0  0  0
   15.3641   -7.9056    0.0000 C   0  0  0  0  0  0  0  0  0  0  0  0
   14.6529   -8.3212    0.0000 C   0  0  0  0  0  0  0  0  0  0  0  0
   16.8029   -7.9100    0.0000 C   0  0  0  0  0  0  0  0  0  0  0  0
   17.5076   -8.3341    0.0000 C   0  0  0  0  0  0  0  0  0  0  0  0
   18.2440   -7.9241    0.0000 N   0  0  0  0  0  0  0  0  0  0  0  0
   18.9451   -8.3417    0.0000 C   0  0  0  0  0  0  0  0  0  0  0  0
   18.9726   -6.6837    0.0000 C   0  0  0  0  0  0  0  0  0  0  0  0
   18.2451   -7.0861    0.0000 C   0  0  0  0  0  0  0  0  0  0  0  0
   19.6796   -7.1115    0.0000 C   0  0  0  0  0  0  0  0  0  0  0  0
   19.6657   -7.9366    0.0000 C   0  0  0  0  0  0  0  0  0  0  0  0
   20.3674   -8.3630    0.0000 C   0  0  0  0  0  0  0  0  0  0  0  0
   21.0912   -7.9672    0.0000 C   0  0  0  0  0  0  0  0  0  0  0  0
   21.1041   -7.1361    0.0000 C   0  0  0  0  0  0  0  0  0  0  0  0
   20.4014   -6.7152    0.0000 C   0  0  0  0  0  0  0  0  0  0  0  0
   21.7997   -8.3918    0.0000 O   0  0  0  0  0  0  0  0  0  0  0  0
   21.7840   -9.2163    0.0000 C   0  0  0  0  0  0  0  0  0  0  0  0
   21.8242   -6.7334    0.0000 O   0  0  0  0  0  0  0  0  0  0  0  0
   22.5327   -7.1580    0.0000 C   0  0  0  0  0  0  0  0  0  0  0  0
   12.4966  -12.8575    0.0000 N   0  0  0  0  0  0  0  0  0  0  0  0
   13.9471   -9.5629    0.0000 N   0  0  0  0  0  0  0  0  0  0  0  0
  2  3  2  0
  3  4  1  0
  4  6  2  0
  5  1  2  0
  5  6  1  0
 11  7  2  0
  7  8  1  0
  8  9  2  0
  9 10  1  0
 10 12  2  0
 11 12  1  0
 13  2  1  0
 13 14  2  0
 15 16  1  0
 15 17  2  0
 12 15  1  0
 16 18  1  0
  8 19  1  0
 19 20  2  0
 21 22  2  0
 22 23  1  0
 23 24  2  0
 24 25  1  0
 25 26  2  0
 26 21  1  0
 24 27  1  0
 27 28  1  0
 28 29  1  0
 29 30  1  0
 29 32  1  0
 30 34  1  0
 33 31  1  0
 31 32  1  0
 33 34  2  0
 34 35  1  0
 35 36  2  0
 36 37  1  0
 37 38  2  0
 38 33  1  0
 36 39  1  0
 39 40  1  0
 37 41  1  0
 41 42  1  0
  1  2  1  0
 11 43  1  0
 43 13  1  0
 19 44  1  0
 44 21  1  0
M  END
>  <Classification>  (99) 
1

>  <pchembl>  (99) 
6.2

>  <InChI_steorem>  (99) 
InChI=1S/C33H33N5O6/c1-42-29-17-22-11-15-38(20-24(22)18-30(29)43-2)14-10-21-4-7-25(8-5-21)36-31(39)23-6-9-26(33(41)44-3)27(16-23)37-32(40)28-19-34-12-13-35-28/h4-9,12-13,16-19H,10-11,14-15,20H2,1-3H3,(H,36,39)(H,37,40)

>  <source>  (99) 
ChEMBL25

>  <source_id>  (99) 
25

>  <optional_reference>  (99) 
10.1021/jm8013822

>  <optional_origin>  (99) 
None

>  <target>  (99) 
BCRP

$$$$

     RDKit          2D

 44 48  0  0  0  0  0  0  0  0999 V2000
   -3.9118  -25.9707    0.0000 C   0  0  0  0  0  0  0  0  0  0  0  0
   -3.2045  -25.5661    0.0000 C   0  0  0  0  0  0  0  0  0  0  0  0
   -2.4875  -25.9837    0.0000 C   0  0  0  0  0  0  0  0  0  0  0  0
   -2.4947  -26.8053    0.0000 N   0  0  0  0  0  0  0  0  0  0  0  0
   -3.9174  -26.7900    0.0000 C   0  0  0  0  0  0  0  0  0  0  0  0
   -3.2150  -27.2064    0.0000 C   0  0  0  0  0  0  0  0  0  0  0  0
   -3.1802  -23.0969    0.0000 C   0  0  0  0  0  0  0  0  0  0  0  0
   -3.1809  -22.2646    0.0000 C   0  0  0  0  0  0  0  0  0  0  0  0
   -3.9002  -21.8598    0.0000 C   0  0  0  0  0  0  0  0  0  0  0  0
   -4.6076  -22.2732    0.0000 C   0  0  0  0  0  0  0  0  0  0  0  0
   -3.8885  -23.5068    0.0000 C   0  0  0  0  0  0  0  0  0  0  0  0
   -4.5960  -23.1068    0.0000 C   0  0  0  0  0  0  0  0  0  0  0  0
   -3.1889  -24.7500    0.0000 C   0  0  0  0  0  0  0  0  0  0  0  0
   -2.4631  -24.3418    0.0000 O   0  0  0  0  0  0  0  0  0  0  0  0
   -5.3242  -23.5098    0.0000 C   0  0  0  0  0  0  0  0  0  0  0  0
   -6.0327  -23.0851    0.0000 O   0  0  0  0  0  0  0  0  0  0  0  0
   -5.3356  -24.3278    0.0000 O   0  0  0  0  0  0  0  0  0  0  0  0
   -6.0213  -22.2671    0.0000 C   0  0  0  0  0  0  0  0  0  0  0  0
   -2.4610  -21.8620    0.0000 C   0  0  0  0  0  0  0  0  0  0  0  0
   -1.7562  -22.2819    0.0000 O   0  0  0  0  0  0  0  0  0  0  0  0
   -1.7281  -20.6365    0.0000 C   0  0  0  0  0  0  0  0  0  0  0  0
   -1.0283  -21.0354    0.0000 C   0  0  0  0  0  0  0  0  0  0  0  0
   -0.3084  -20.6192    0.0000 C   0  0  0  0  0  0  0  0  0  0  0  0
   -0.3133  -19.7868    0.0000 C   0  0  0  0  0  0  0  0  0  0  0  0
   -1.0323  -19.3797    0.0000 C   0  0  0  0  0  0  0  0  0  0  0  0
   -1.7435  -19.7953    0.0000 C   0  0  0  0  0  0  0  0  0  0  0  0
    0.4067  -19.3840    0.0000 C   0  0  0  0  0  0  0  0  0  0  0  0
    1.1114  -19.8081    0.0000 C   0  0  0  0  0  0  0  0  0  0  0  0
    1.8478  -19.3982    0.0000 N   0  0  0  0  0  0  0  0  0  0  0  0
    2.5489  -19.8158    0.0000 C   0  0  0  0  0  0  0  0  0  0  0  0
    2.5765  -18.1577    0.0000 C   0  0  0  0  0  0  0  0  0  0  0  0
    1.8489  -18.5601    0.0000 C   0  0  0  0  0  0  0  0  0  0  0  0
    3.2835  -18.5855    0.0000 C   0  0  0  0  0  0  0  0  0  0  0  0
    3.2695  -19.4106    0.0000 C   0  0  0  0  0  0  0  0  0  0  0  0
    3.9713  -19.8371    0.0000 C   0  0  0  0  0  0  0  0  0  0  0  0
    4.6952  -19.4413    0.0000 C   0  0  0  0  0  0  0  0  0  0  0  0
    4.7080  -18.6102    0.0000 C   0  0  0  0  0  0  0  0  0  0  0  0
    4.0053  -18.1893    0.0000 C   0  0  0  0  0  0  0  0  0  0  0  0
    5.4037  -19.8660    0.0000 O   0  0  0  0  0  0  0  0  0  0  0  0
    5.3880  -20.6904    0.0000 C   0  0  0  0  0  0  0  0  0  0  0  0
    5.4281  -18.2073    0.0000 O   0  0  0  0  0  0  0  0  0  0  0  0
    6.1368  -18.6321    0.0000 C   0  0  0  0  0  0  0  0  0  0  0  0
   -3.9000  -24.3317    0.0000 N   0  0  0  0  0  0  0  0  0  0  0  0
   -2.4493  -21.0371    0.0000 N   0  0  0  0  0  0  0  0  0  0  0  0
  2  3  2  0
  3  4  1  0
  4  6  2  0
  5  1  2  0
  5  6  1  0
 11  7  2  0
  7  8  1  0
  8  9  2  0
  9 10  1  0
 10 12  2  0
 11 12  1  0
 13  2  1  0
 13 14  2  0
 15 16  1  0
 15 17  2  0
 12 15  1  0
 16 18  1  0
  8 19  1  0
 19 20  2  0
 21 22  2  0
 22 23  1  0
 23 24  2  0
 24 25  1  0
 25 26  2  0
 26 21  1  0
 24 27  1  0
 27 28  1  0
 28 29  1  0
 29 30  1  0
 29 32  1  0
 30 34  1  0
 33 31  1  0
 31 32  1  0
 33 34  2  0
 34 35  1  0
 35 36  2  0
 36 37  1  0
 37 38  2  0
 38 33  1  0
 36 39  1  0
 39 40  1  0
 37 41  1  0
 41 42  1  0
  1  2  1  0
 11 43  1  0
 43 13  1  0
 19 44  1  0
 44 21  1  0
M  END
>  <Classification>  (100) 
1

>  <pchembl>  (100) 
5.99

>  <InChI_steorem>  (100) 
InChI=1S/C34H34N4O6/c1-42-30-18-23-13-16-38(21-26(23)19-31(30)43-2)15-12-22-6-9-27(10-7-22)36-32(39)24-8-11-28(34(41)44-3)29(17-24)37-33(40)25-5-4-14-35-20-25/h4-11,14,17-20H,12-13,15-16,21H2,1-3H3,(H,36,39)(H,37,40)

>  <source>  (100) 
ChEMBL25

>  <source_id>  (100) 
25

>  <optional_reference>  (100) 
10.1021/jm8013822

>  <optional_origin>  (100) 
None

>  <target>  (100) 
BCRP

$$$$

     RDKit          2D

 45 49  0  0  0  0  0  0  0  0999 V2000
   -2.5103  -15.4911    0.0000 N   0  0  0  0  0  0  0  0  0  0  0  0
   -1.8030  -15.0865    0.0000 C   0  0  0  0  0  0  0  0  0  0  0  0
   -1.0860  -15.5041    0.0000 C   0  0  0  0  0  0  0  0  0  0  0  0
   -1.0932  -16.3257    0.0000 N   0  0  0  0  0  0  0  0  0  0  0  0
   -2.5160  -16.3104    0.0000 C   0  0  0  0  0  0  0  0  0  0  0  0
   -1.8135  -16.7268    0.0000 C   0  0  0  0  0  0  0  0  0  0  0  0
   -1.7788  -12.6173    0.0000 C   0  0  0  0  0  0  0  0  0  0  0  0
   -1.7795  -11.7850    0.0000 C   0  0  0  0  0  0  0  0  0  0  0  0
   -2.4988  -11.3802    0.0000 C   0  0  0  0  0  0  0  0  0  0  0  0
   -3.2062  -11.7936    0.0000 C   0  0  0  0  0  0  0  0  0  0  0  0
   -2.4870  -13.0272    0.0000 C   0  0  0  0  0  0  0  0  0  0  0  0
   -3.1945  -12.6271    0.0000 C   0  0  0  0  0  0  0  0  0  0  0  0
   -1.7874  -14.2704    0.0000 C   0  0  0  0  0  0  0  0  0  0  0  0
   -1.0618  -13.8622    0.0000 O   0  0  0  0  0  0  0  0  0  0  0  0
   -3.9227  -13.0302    0.0000 C   0  0  0  0  0  0  0  0  0  0  0  0
   -4.6257  -12.6055    0.0000 O   0  0  0  0  0  0  0  0  0  0  0  0
   -3.9342  -13.8482    0.0000 O   0  0  0  0  0  0  0  0  0  0  0  0
   -4.6122  -11.7875    0.0000 C   0  0  0  0  0  0  0  0  0  0  0  0
   -1.0595  -11.3824    0.0000 C   0  0  0  0  0  0  0  0  0  0  0  0
   -0.3547  -11.8022    0.0000 O   0  0  0  0  0  0  0  0  0  0  0  0
   -0.3267  -10.1569    0.0000 C   0  0  0  0  0  0  0  0  0  0  0  0
    0.3731  -10.5558    0.0000 C   0  0  0  0  0  0  0  0  0  0  0  0
    1.0929  -10.1397    0.0000 C   0  0  0  0  0  0  0  0  0  0  0  0
    1.0881   -9.3072    0.0000 C   0  0  0  0  0  0  0  0  0  0  0  0
    0.3691   -8.9001    0.0000 C   0  0  0  0  0  0  0  0  0  0  0  0
   -0.3421   -9.3158    0.0000 C   0  0  0  0  0  0  0  0  0  0  0  0
    1.8080   -8.9045    0.0000 C   0  0  0  0  0  0  0  0  0  0  0  0
    2.5127   -9.3285    0.0000 C   0  0  0  0  0  0  0  0  0  0  0  0
    3.2492   -8.9186    0.0000 N   0  0  0  0  0  0  0  0  0  0  0  0
    3.9503   -9.3362    0.0000 C   0  0  0  0  0  0  0  0  0  0  0  0
    3.9778   -7.6781    0.0000 C   0  0  0  0  0  0  0  0  0  0  0  0
    3.2503   -8.0806    0.0000 C   0  0  0  0  0  0  0  0  0  0  0  0
    4.6848   -8.1059    0.0000 C   0  0  0  0  0  0  0  0  0  0  0  0
    4.6709   -8.9310    0.0000 C   0  0  0  0  0  0  0  0  0  0  0  0
    5.3727   -9.3575    0.0000 C   0  0  0  0  0  0  0  0  0  0  0  0
    6.0966   -8.9617    0.0000 C   0  0  0  0  0  0  0  0  0  0  0  0
    6.1094   -8.1306    0.0000 C   0  0  0  0  0  0  0  0  0  0  0  0
    5.4067   -7.7097    0.0000 C   0  0  0  0  0  0  0  0  0  0  0  0
    6.8051   -9.3864    0.0000 O   0  0  0  0  0  0  0  0  0  0  0  0
    6.7893  -10.2108    0.0000 C   0  0  0  0  0  0  0  0  0  0  0  0
    6.8295   -7.7277    0.0000 O   0  0  0  0  0  0  0  0  0  0  0  0
    7.5381   -8.1525    0.0000 C   0  0  0  0  0  0  0  0  0  0  0  0
   -1.8246  -17.5501    0.0000 C   0  0  0  0  0  0  0  0  0  0  0  0
   -2.4985  -13.8521    0.0000 N   0  0  0  0  0  0  0  0  0  0  0  0
   -1.0479  -10.5574    0.0000 N   0  0  0  0  0  0  0  0  0  0  0  0
  3  4  1  0
  4  6  2  0
  5  1  2  0
  5  6  1  0
 11  7  2  0
  7  8  1  0
  8  9  2  0
  9 10  1  0
 10 12  2  0
 11 12  1  0
 13  2  1  0
 13 14  2  0
 15 16  1  0
 15 17  2  0
 12 15  1  0
 16 18  1  0
  8 19  1  0
 19 20  2  0
 21 22  2  0
 22 23  1  0
 23 24  2  0
 24 25  1  0
 25 26  2  0
 26 21  1  0
 24 27  1  0
 27 28  1  0
 28 29  1  0
 29 30  1  0
 29 32  1  0
 30 34  1  0
 33 31  1  0
 31 32  1  0
 33 34  2  0
 34 35  1  0
 35 36  2  0
 36 37  1  0
 37 38  2  0
 38 33  1  0
 36 39  1  0
 39 40  1  0
 37 41  1  0
 41 42  1  0
  6 43  1  0
  1  2  1  0
  2  3  2  0
 11 44  1  0
 44 13  1  0
 19 45  1  0
 45 21  1  0
M  END
>  <Classification>  (101) 
1

>  <pchembl>  (101) 
6.26

>  <InChI_steorem>  (101) 
InChI=1S/C34H35N5O6/c1-21-18-36-29(19-35-21)33(41)38-28-15-24(7-10-27(28)34(42)45-4)32(40)37-26-8-5-22(6-9-26)11-13-39-14-12-23-16-30(43-2)31(44-3)17-25(23)20-39/h5-10,15-19H,11-14,20H2,1-4H3,(H,37,40)(H,38,41)

>  <source>  (101) 
ChEMBL25

>  <source_id>  (101) 
25

>  <optional_reference>  (101) 
10.1021/jm8013822

>  <optional_origin>  (101) 
None

>  <target>  (101) 
BCRP

$$$$

     RDKit          2D

 45 50  0  0  0  0  0  0  0  0999 V2000
    6.5289  -25.0037    0.0000 C   0  0  0  0  0  0  0  0  0  0  0  0
    7.2366  -24.5990    0.0000 C   0  0  0  0  0  0  0  0  0  0  0  0
    7.9539  -25.0166    0.0000 C   0  0  0  0  0  0  0  0  0  0  0  0
    7.9467  -25.8386    0.0000 N   0  0  0  0  0  0  0  0  0  0  0  0
    6.5233  -25.8233    0.0000 C   0  0  0  0  0  0  0  0  0  0  0  0
    7.2261  -26.2399    0.0000 C   0  0  0  0  0  0  0  0  0  0  0  0
    7.2166  -27.0575    0.0000 C   0  0  0  0  0  0  0  0  0  0  0  0
    6.5055  -27.4600    0.0000 C   0  0  0  0  0  0  0  0  0  0  0  0
    5.7975  -27.0359    0.0000 C   0  0  0  0  0  0  0  0  0  0  0  0
    5.8123  -26.2204    0.0000 C   0  0  0  0  0  0  0  0  0  0  0  0
    7.2609  -22.1294    0.0000 C   0  0  0  0  0  0  0  0  0  0  0  0
    7.2603  -21.2968    0.0000 C   0  0  0  0  0  0  0  0  0  0  0  0
    6.5406  -20.8917    0.0000 C   0  0  0  0  0  0  0  0  0  0  0  0
    5.8329  -21.3054    0.0000 C   0  0  0  0  0  0  0  0  0  0  0  0
    6.5523  -22.5395    0.0000 C   0  0  0  0  0  0  0  0  0  0  0  0
    5.8445  -22.1393    0.0000 C   0  0  0  0  0  0  0  0  0  0  0  0
    7.2521  -23.7824    0.0000 C   0  0  0  0  0  0  0  0  0  0  0  0
    7.9782  -23.3741    0.0000 O   0  0  0  0  0  0  0  0  0  0  0  0
    7.9806  -20.8940    0.0000 C   0  0  0  0  0  0  0  0  0  0  0  0
    8.6856  -21.3141    0.0000 O   0  0  0  0  0  0  0  0  0  0  0  0
    8.7133  -19.6685    0.0000 C   0  0  0  0  0  0  0  0  0  0  0  0
    9.4134  -20.0676    0.0000 C   0  0  0  0  0  0  0  0  0  0  0  0
   10.1335  -19.6512    0.0000 C   0  0  0  0  0  0  0  0  0  0  0  0
   10.1286  -18.8184    0.0000 C   0  0  0  0  0  0  0  0  0  0  0  0
    9.4094  -18.4111    0.0000 C   0  0  0  0  0  0  0  0  0  0  0  0
    8.6979  -18.8270    0.0000 C   0  0  0  0  0  0  0  0  0  0  0  0
   10.8489  -18.4156    0.0000 C   0  0  0  0  0  0  0  0  0  0  0  0
   11.5539  -18.8398    0.0000 C   0  0  0  0  0  0  0  0  0  0  0  0
   12.2906  -18.4297    0.0000 N   0  0  0  0  0  0  0  0  0  0  0  0
   12.9921  -18.8475    0.0000 C   0  0  0  0  0  0  0  0  0  0  0  0
   13.0196  -17.1887    0.0000 C   0  0  0  0  0  0  0  0  0  0  0  0
   12.2917  -17.5913    0.0000 C   0  0  0  0  0  0  0  0  0  0  0  0
   13.7269  -17.6166    0.0000 C   0  0  0  0  0  0  0  0  0  0  0  0
   13.7131  -18.4422    0.0000 C   0  0  0  0  0  0  0  0  0  0  0  0
   14.4150  -18.8687    0.0000 C   0  0  0  0  0  0  0  0  0  0  0  0
   15.1392  -18.4728    0.0000 C   0  0  0  0  0  0  0  0  0  0  0  0
   15.1521  -17.6413    0.0000 C   0  0  0  0  0  0  0  0  0  0  0  0
   14.4490  -17.2202    0.0000 C   0  0  0  0  0  0  0  0  0  0  0  0
   15.8481  -18.8977    0.0000 O   0  0  0  0  0  0  0  0  0  0  0  0
   15.8323  -19.7225    0.0000 C   0  0  0  0  0  0  0  0  0  0  0  0
   15.8725  -17.2384    0.0000 O   0  0  0  0  0  0  0  0  0  0  0  0
   16.5814  -17.6633    0.0000 C   0  0  0  0  0  0  0  0  0  0  0  0
    5.1359  -22.5592    0.0000 C   0  0  0  0  0  0  0  0  0  0  0  0
    6.5408  -23.3645    0.0000 N   0  0  0  0  0  0  0  0  0  0  0  0
    7.9921  -20.0691    0.0000 N   0  0  0  0  0  0  0  0  0  0  0  0
  3  4  1  0
  4  6  2  0
  5  1  2  0
  5  6  1  0
  6  7  1  0
  7  8  2  0
  8  9  1  0
  9 10  2  0
 10  5  1  0
 15 11  2  0
 11 12  1  0
 12 13  2  0
 13 14  1  0
 14 16  2  0
 15 16  1  0
 17  2  1  0
 17 18  2  0
 12 19  1  0
 19 20  2  0
 21 22  2  0
 22 23  1  0
 23 24  2  0
 24 25  1  0
 25 26  2  0
 26 21  1  0
 24 27  1  0
 27 28  1  0
 28 29  1  0
 29 30  1  0
 29 32  1  0
 30 34  1  0
 33 31  1  0
 31 32  1  0
 33 34  2  0
 34 35  1  0
 35 36  2  0
 36 37  1  0
 37 38  2  0
 38 33  1  0
 36 39  1  0
 39 40  1  0
 37 41  1  0
 41 42  1  0
 16 43  1  0
  1  2  1  0
  2  3  2  0
 15 44  1  0
 44 17  1  0
 19 45  1  0
 45 21  1  0
M  END
>  <Classification>  (102) 
1

>  <pchembl>  (102) 
5.7

>  <InChI_steorem>  (102) 
InChI=1S/C37H36N4O4/c1-24-8-11-28(19-33(24)40-37(43)29-18-27-6-4-5-7-32(27)38-22-29)36(42)39-31-12-9-25(10-13-31)14-16-41-17-15-26-20-34(44-2)35(45-3)21-30(26)23-41/h4-13,18-22H,14-17,23H2,1-3H3,(H,39,42)(H,40,43)

>  <source>  (102) 
ChEMBL25

>  <source_id>  (102) 
25

>  <optional_reference>  (102) 
10.1021/jm8013822

>  <optional_origin>  (102) 
None

>  <target>  (102) 
BCRP

$$$$

     RDKit          2D

 46 51  0  0  0  0  0  0  0  0999 V2000
    6.5268  -24.9956    0.0000 C   0  0  0  0  0  0  0  0  0  0  0  0
    7.2343  -24.5911    0.0000 C   0  0  0  0  0  0  0  0  0  0  0  0
    7.9514  -25.0086    0.0000 C   0  0  0  0  0  0  0  0  0  0  0  0
    7.9442  -25.8303    0.0000 N   0  0  0  0  0  0  0  0  0  0  0  0
    6.5212  -25.8150    0.0000 C   0  0  0  0  0  0  0  0  0  0  0  0
    7.2238  -26.2314    0.0000 C   0  0  0  0  0  0  0  0  0  0  0  0
    7.2143  -27.0488    0.0000 C   0  0  0  0  0  0  0  0  0  0  0  0
    6.5034  -27.4512    0.0000 C   0  0  0  0  0  0  0  0  0  0  0  0
    5.7957  -27.0271    0.0000 C   0  0  0  0  0  0  0  0  0  0  0  0
    5.8104  -26.2120    0.0000 C   0  0  0  0  0  0  0  0  0  0  0  0
    7.2585  -22.1217    0.0000 C   0  0  0  0  0  0  0  0  0  0  0  0
    7.2578  -21.2894    0.0000 C   0  0  0  0  0  0  0  0  0  0  0  0
    6.5384  -20.8845    0.0000 C   0  0  0  0  0  0  0  0  0  0  0  0
    5.8310  -21.2980    0.0000 C   0  0  0  0  0  0  0  0  0  0  0  0
    6.5501  -22.5317    0.0000 C   0  0  0  0  0  0  0  0  0  0  0  0
    5.8425  -22.1315    0.0000 C   0  0  0  0  0  0  0  0  0  0  0  0
    7.2498  -23.7748    0.0000 C   0  0  0  0  0  0  0  0  0  0  0  0
    7.9756  -23.3666    0.0000 O   0  0  0  0  0  0  0  0  0  0  0  0
    7.9779  -20.8868    0.0000 C   0  0  0  0  0  0  0  0  0  0  0  0
    8.6827  -21.3067    0.0000 O   0  0  0  0  0  0  0  0  0  0  0  0
    8.7107  -19.6612    0.0000 C   0  0  0  0  0  0  0  0  0  0  0  0
    9.4105  -20.0602    0.0000 C   0  0  0  0  0  0  0  0  0  0  0  0
   10.1303  -19.6440    0.0000 C   0  0  0  0  0  0  0  0  0  0  0  0
   10.1254  -18.8114    0.0000 C   0  0  0  0  0  0  0  0  0  0  0  0
    9.4065  -18.4043    0.0000 C   0  0  0  0  0  0  0  0  0  0  0  0
    8.6952  -18.8200    0.0000 C   0  0  0  0  0  0  0  0  0  0  0  0
   10.8455  -18.4088    0.0000 C   0  0  0  0  0  0  0  0  0  0  0  0
   11.5503  -18.8328    0.0000 C   0  0  0  0  0  0  0  0  0  0  0  0
   12.2867  -18.4228    0.0000 N   0  0  0  0  0  0  0  0  0  0  0  0
   12.9880  -18.8405    0.0000 C   0  0  0  0  0  0  0  0  0  0  0  0
   13.0155  -17.1822    0.0000 C   0  0  0  0  0  0  0  0  0  0  0  0
   12.2878  -17.5847    0.0000 C   0  0  0  0  0  0  0  0  0  0  0  0
   13.7226  -17.6100    0.0000 C   0  0  0  0  0  0  0  0  0  0  0  0
   13.7087  -18.4353    0.0000 C   0  0  0  0  0  0  0  0  0  0  0  0
   14.4104  -18.8617    0.0000 C   0  0  0  0  0  0  0  0  0  0  0  0
   15.1344  -18.4659    0.0000 C   0  0  0  0  0  0  0  0  0  0  0  0
   15.1472  -17.6347    0.0000 C   0  0  0  0  0  0  0  0  0  0  0  0
   14.4444  -17.2138    0.0000 C   0  0  0  0  0  0  0  0  0  0  0  0
   15.8430  -18.8907    0.0000 O   0  0  0  0  0  0  0  0  0  0  0  0
   15.8273  -19.7152    0.0000 C   0  0  0  0  0  0  0  0  0  0  0  0
   15.8674  -17.2319    0.0000 O   0  0  0  0  0  0  0  0  0  0  0  0
   16.5761  -17.6566    0.0000 C   0  0  0  0  0  0  0  0  0  0  0  0
    5.1139  -20.8930    0.0000 O   0  0  0  0  0  0  0  0  0  0  0  0
    5.1060  -20.0697    0.0000 C   0  0  0  0  0  0  0  0  0  0  0  0
    6.5386  -23.3566    0.0000 N   0  0  0  0  0  0  0  0  0  0  0  0
    7.9894  -20.0618    0.0000 N   0  0  0  0  0  0  0  0  0  0  0  0
  4  6  2  0
  5  1  2  0
  5  6  1  0
  6  7  1  0
  7  8  2  0
  8  9  1  0
  9 10  2  0
 10  5  1  0
 15 11  2  0
 11 12  1  0
 12 13  2  0
 13 14  1  0
 14 16  2  0
 15 16  1  0
 17  2  1  0
 17 18  2  0
 12 19  1  0
 19 20  2  0
 21 22  2  0
 22 23  1  0
 23 24  2  0
 24 25  1  0
 25 26  2  0
 26 21  1  0
 24 27  1  0
 27 28  1  0
 28 29  1  0
 29 30  1  0
 29 32  1  0
 30 34  1  0
 33 31  1  0
 31 32  1  0
 33 34  2  0
 34 35  1  0
 35 36  2  0
 36 37  1  0
 37 38  2  0
 38 33  1  0
 36 39  1  0
 39 40  1  0
 37 41  1  0
 41 42  1  0
 14 43  1  0
  1  2  1  0
 43 44  1  0
  2  3  2  0
  3  4  1  0
 15 45  1  0
 45 17  1  0
 19 46  1  0
 46 21  1  0
M  END
>  <Classification>  (103) 
1

>  <pchembl>  (103) 
6.01

>  <InChI_steorem>  (103) 
InChI=1S/C37H36N4O5/c1-44-32-18-27(17-31(21-32)40-37(43)28-16-26-6-4-5-7-33(26)38-22-28)36(42)39-30-10-8-24(9-11-30)12-14-41-15-13-25-19-34(45-2)35(46-3)20-29(25)23-41/h4-11,16-22H,12-15,23H2,1-3H3,(H,39,42)(H,40,43)

>  <source>  (103) 
ChEMBL25

>  <source_id>  (103) 
25

>  <optional_reference>  (103) 
10.1021/jm8013822

>  <optional_origin>  (103) 
None

>  <target>  (103) 
BCRP

$$$$

     RDKit          2D

 46 51  0  0  0  0  0  0  0  0999 V2000
    6.5268  -24.9956    0.0000 C   0  0  0  0  0  0  0  0  0  0  0  0
    7.2343  -24.5911    0.0000 C   0  0  0  0  0  0  0  0  0  0  0  0
    7.9514  -25.0086    0.0000 C   0  0  0  0  0  0  0  0  0  0  0  0
    7.9442  -25.8303    0.0000 N   0  0  0  0  0  0  0  0  0  0  0  0
    6.5212  -25.8150    0.0000 C   0  0  0  0  0  0  0  0  0  0  0  0
    7.2238  -26.2314    0.0000 C   0  0  0  0  0  0  0  0  0  0  0  0
    7.2143  -27.0488    0.0000 C   0  0  0  0  0  0  0  0  0  0  0  0
    6.5034  -27.4512    0.0000 C   0  0  0  0  0  0  0  0  0  0  0  0
    5.7957  -27.0271    0.0000 C   0  0  0  0  0  0  0  0  0  0  0  0
    5.8104  -26.2120    0.0000 C   0  0  0  0  0  0  0  0  0  0  0  0
    7.2585  -22.1217    0.0000 C   0  0  0  0  0  0  0  0  0  0  0  0
    7.2578  -21.2894    0.0000 C   0  0  0  0  0  0  0  0  0  0  0  0
    6.5384  -20.8845    0.0000 C   0  0  0  0  0  0  0  0  0  0  0  0
    5.8310  -21.2980    0.0000 C   0  0  0  0  0  0  0  0  0  0  0  0
    6.5501  -22.5317    0.0000 C   0  0  0  0  0  0  0  0  0  0  0  0
    5.8425  -22.1315    0.0000 C   0  0  0  0  0  0  0  0  0  0  0  0
    7.2498  -23.7748    0.0000 C   0  0  0  0  0  0  0  0  0  0  0  0
    7.9756  -23.3666    0.0000 O   0  0  0  0  0  0  0  0  0  0  0  0
    7.9779  -20.8868    0.0000 C   0  0  0  0  0  0  0  0  0  0  0  0
    8.6827  -21.3067    0.0000 O   0  0  0  0  0  0  0  0  0  0  0  0
    8.7107  -19.6612    0.0000 C   0  0  0  0  0  0  0  0  0  0  0  0
    9.4105  -20.0602    0.0000 C   0  0  0  0  0  0  0  0  0  0  0  0
   10.1303  -19.6440    0.0000 C   0  0  0  0  0  0  0  0  0  0  0  0
   10.1254  -18.8114    0.0000 C   0  0  0  0  0  0  0  0  0  0  0  0
    9.4065  -18.4043    0.0000 C   0  0  0  0  0  0  0  0  0  0  0  0
    8.6952  -18.8200    0.0000 C   0  0  0  0  0  0  0  0  0  0  0  0
   10.8455  -18.4088    0.0000 C   0  0  0  0  0  0  0  0  0  0  0  0
   11.5503  -18.8328    0.0000 C   0  0  0  0  0  0  0  0  0  0  0  0
   12.2867  -18.4228    0.0000 N   0  0  0  0  0  0  0  0  0  0  0  0
   12.9880  -18.8405    0.0000 C   0  0  0  0  0  0  0  0  0  0  0  0
   13.0155  -17.1822    0.0000 C   0  0  0  0  0  0  0  0  0  0  0  0
   12.2878  -17.5847    0.0000 C   0  0  0  0  0  0  0  0  0  0  0  0
   13.7226  -17.6100    0.0000 C   0  0  0  0  0  0  0  0  0  0  0  0
   13.7087  -18.4353    0.0000 C   0  0  0  0  0  0  0  0  0  0  0  0
   14.4104  -18.8617    0.0000 C   0  0  0  0  0  0  0  0  0  0  0  0
   15.1344  -18.4659    0.0000 C   0  0  0  0  0  0  0  0  0  0  0  0
   15.1472  -17.6347    0.0000 C   0  0  0  0  0  0  0  0  0  0  0  0
   14.4444  -17.2138    0.0000 C   0  0  0  0  0  0  0  0  0  0  0  0
   15.8430  -18.8907    0.0000 O   0  0  0  0  0  0  0  0  0  0  0  0
   15.8273  -19.7152    0.0000 C   0  0  0  0  0  0  0  0  0  0  0  0
   15.8674  -17.2319    0.0000 O   0  0  0  0  0  0  0  0  0  0  0  0
   16.5761  -17.6566    0.0000 C   0  0  0  0  0  0  0  0  0  0  0  0
    5.1342  -22.5514    0.0000 O   0  0  0  0  0  0  0  0  0  0  0  0
    4.4164  -22.1478    0.0000 C   0  0  0  0  0  0  0  0  0  0  0  0
    6.5386  -23.3566    0.0000 N   0  0  0  0  0  0  0  0  0  0  0  0
    7.9894  -20.0618    0.0000 N   0  0  0  0  0  0  0  0  0  0  0  0
  4  6  2  0
  5  1  2  0
  5  6  1  0
  6  7  1  0
  7  8  2  0
  8  9  1  0
  9 10  2  0
 10  5  1  0
 15 11  2  0
 11 12  1  0
 12 13  2  0
 13 14  1  0
 14 16  2  0
 15 16  1  0
 17  2  1  0
 17 18  2  0
 12 19  1  0
 19 20  2  0
 21 22  2  0
 22 23  1  0
 23 24  2  0
 24 25  1  0
 25 26  2  0
 26 21  1  0
 24 27  1  0
 27 28  1  0
 28 29  1  0
 29 30  1  0
 29 32  1  0
 30 34  1  0
 33 31  1  0
 31 32  1  0
 33 34  2  0
 34 35  1  0
 35 36  2  0
 36 37  1  0
 37 38  2  0
 38 33  1  0
 36 39  1  0
 39 40  1  0
 37 41  1  0
 41 42  1  0
 16 43  1  0
  1  2  1  0
 43 44  1  0
  2  3  2  0
  3  4  1  0
 15 45  1  0
 45 17  1  0
 19 46  1  0
 46 21  1  0
M  END
>  <Classification>  (104) 
1

>  <pchembl>  (104) 
6.5

>  <InChI_steorem>  (104) 
InChI=1S/C37H36N4O5/c1-44-33-13-10-27(19-32(33)40-37(43)28-18-26-6-4-5-7-31(26)38-22-28)36(42)39-30-11-8-24(9-12-30)14-16-41-17-15-25-20-34(45-2)35(46-3)21-29(25)23-41/h4-13,18-22H,14-17,23H2,1-3H3,(H,39,42)(H,40,43)

>  <source>  (104) 
ChEMBL25

>  <source_id>  (104) 
25

>  <optional_reference>  (104) 
10.1021/jm8013822

>  <optional_origin>  (104) 
None

>  <target>  (104) 
BCRP

$$$$

     RDKit          2D

 48 53  0  0  0  0  0  0  0  0999 V2000
   11.2983   -4.4881    0.0000 C   0  0  0  0  0  0  0  0  0  0  0  0
   12.0057   -4.0835    0.0000 C   0  0  0  0  0  0  0  0  0  0  0  0
   12.7229   -4.5011    0.0000 C   0  0  0  0  0  0  0  0  0  0  0  0
   12.7157   -5.3229    0.0000 C   0  0  0  0  0  0  0  0  0  0  0  0
   11.2927   -5.3076    0.0000 C   0  0  0  0  0  0  0  0  0  0  0  0
   11.9953   -5.7241    0.0000 C   0  0  0  0  0  0  0  0  0  0  0  0
   11.9859   -6.5416    0.0000 N   0  0  0  0  0  0  0  0  0  0  0  0
   11.2748   -6.9440    0.0000 C   0  0  0  0  0  0  0  0  0  0  0  0
   10.5671   -6.5199    0.0000 C   0  0  0  0  0  0  0  0  0  0  0  0
   10.5817   -5.7046    0.0000 C   0  0  0  0  0  0  0  0  0  0  0  0
   12.0301   -1.6141    0.0000 C   0  0  0  0  0  0  0  0  0  0  0  0
   12.0294   -0.7817    0.0000 C   0  0  0  0  0  0  0  0  0  0  0  0
   11.3100   -0.3768    0.0000 C   0  0  0  0  0  0  0  0  0  0  0  0
   10.6024   -0.7903    0.0000 C   0  0  0  0  0  0  0  0  0  0  0  0
   11.3217   -2.0241    0.0000 C   0  0  0  0  0  0  0  0  0  0  0  0
   10.6140   -1.6240    0.0000 C   0  0  0  0  0  0  0  0  0  0  0  0
   12.0213   -3.2672    0.0000 C   0  0  0  0  0  0  0  0  0  0  0  0
   12.7472   -2.8589    0.0000 O   0  0  0  0  0  0  0  0  0  0  0  0
    9.8857   -2.0271    0.0000 C   0  0  0  0  0  0  0  0  0  0  0  0
    9.1825   -1.6023    0.0000 O   0  0  0  0  0  0  0  0  0  0  0  0
    9.8743   -2.8453    0.0000 O   0  0  0  0  0  0  0  0  0  0  0  0
    9.1961   -0.7842    0.0000 C   0  0  0  0  0  0  0  0  0  0  0  0
   12.7495   -0.3790    0.0000 C   0  0  0  0  0  0  0  0  0  0  0  0
   13.4544   -0.7989    0.0000 O   0  0  0  0  0  0  0  0  0  0  0  0
   13.4824    0.8465    0.0000 C   0  0  0  0  0  0  0  0  0  0  0  0
   14.1823    0.4475    0.0000 C   0  0  0  0  0  0  0  0  0  0  0  0
   14.9023    0.8638    0.0000 C   0  0  0  0  0  0  0  0  0  0  0  0
   14.8974    1.6964    0.0000 C   0  0  0  0  0  0  0  0  0  0  0  0
   14.1783    2.1036    0.0000 C   0  0  0  0  0  0  0  0  0  0  0  0
   13.4669    1.6878    0.0000 C   0  0  0  0  0  0  0  0  0  0  0  0
   15.6176    2.0992    0.0000 C   0  0  0  0  0  0  0  0  0  0  0  0
   16.3224    1.6751    0.0000 C   0  0  0  0  0  0  0  0  0  0  0  0
   17.0589    2.0850    0.0000 N   0  0  0  0  0  0  0  0  0  0  0  0
   17.7602    1.6674    0.0000 C   0  0  0  0  0  0  0  0  0  0  0  0
   17.7878    3.3258    0.0000 C   0  0  0  0  0  0  0  0  0  0  0  0
   17.0600    2.9233    0.0000 C   0  0  0  0  0  0  0  0  0  0  0  0
   18.4949    2.8979    0.0000 C   0  0  0  0  0  0  0  0  0  0  0  0
   18.4810    2.0727    0.0000 C   0  0  0  0  0  0  0  0  0  0  0  0
   19.1828    1.6461    0.0000 C   0  0  0  0  0  0  0  0  0  0  0  0
   19.9069    2.0419    0.0000 C   0  0  0  0  0  0  0  0  0  0  0  0
   19.9197    2.8733    0.0000 C   0  0  0  0  0  0  0  0  0  0  0  0
   19.2169    3.2942    0.0000 C   0  0  0  0  0  0  0  0  0  0  0  0
   20.6155    1.6172    0.0000 O   0  0  0  0  0  0  0  0  0  0  0  0
   20.5998    0.7926    0.0000 C   0  0  0  0  0  0  0  0  0  0  0  0
   20.6400    3.2762    0.0000 O   0  0  0  0  0  0  0  0  0  0  0  0
   21.3487    2.8513    0.0000 C   0  0  0  0  0  0  0  0  0  0  0  0
   11.3101   -2.8490    0.0000 N   0  0  0  0  0  0  0  0  0  0  0  0
   12.7612    0.4459    0.0000 N   0  0  0  0  0  0  0  0  0  0  0  0
  2  3  2  0
  3  4  1  0
  4  6  2  0
  5  1  2  0
  5  6  1  0
  6  7  1  0
  7  8  2  0
  8  9  1  0
  9 10  2  0
 10  5  1  0
 15 11  2  0
 11 12  1  0
 12 13  2  0
 13 14  1  0
 14 16  2  0
 15 16  1  0
 17  2  1  0
 17 18  2  0
 19 20  1  0
 19 21  2  0
 16 19  1  0
 20 22  1  0
 12 23  1  0
 23 24  2  0
 25 26  2  0
 26 27  1  0
 27 28  2  0
 28 29  1  0
 29 30  2  0
 30 25  1  0
 28 31  1  0
 31 32  1  0
 32 33  1  0
 33 34  1  0
 33 36  1  0
 34 38  1  0
 37 35  1  0
 35 36  1  0
 37 38  2  0
 38 39  1  0
 39 40  2  0
 40 41  1  0
 41 42  2  0
 42 37  1  0
 40 43  1  0
 43 44  1  0
 41 45  1  0
 45 46  1  0
  1  2  1  0
 15 47  1  0
 47 17  1  0
 23 48  1  0
 48 25  1  0
M  END
>  <Classification>  (105) 
1

>  <pchembl>  (105) 
6.75

>  <InChI_steorem>  (105) 
InChI=1S/C38H36N4O6/c1-46-34-21-25-15-18-42(23-29(25)22-35(34)47-2)17-14-24-6-10-30(11-7-24)40-36(43)28-8-12-31(38(45)48-3)33(20-28)41-37(44)27-9-13-32-26(19-27)5-4-16-39-32/h4-13,16,19-22H,14-15,17-18,23H2,1-3H3,(H,40,43)(H,41,44)

>  <source>  (105) 
ChEMBL25

>  <source_id>  (105) 
25

>  <optional_reference>  (105) 
10.1021/jm8013822

>  <optional_origin>  (105) 
None

>  <target>  (105) 
BCRP

$$$$

     RDKit          2D

 48 53  0  0  0  0  0  0  0  0999 V2000
   11.5062  -19.8529    0.0000 N   0  0  0  0  0  0  0  0  0  0  0  0
   12.2137  -19.4483    0.0000 C   0  0  0  0  0  0  0  0  0  0  0  0
   12.9309  -19.8659    0.0000 C   0  0  0  0  0  0  0  0  0  0  0  0
   12.9237  -20.6876    0.0000 C   0  0  0  0  0  0  0  0  0  0  0  0
   11.5006  -20.6724    0.0000 C   0  0  0  0  0  0  0  0  0  0  0  0
   12.2032  -21.0889    0.0000 C   0  0  0  0  0  0  0  0  0  0  0  0
   12.1938  -21.9063    0.0000 C   0  0  0  0  0  0  0  0  0  0  0  0
   11.4829  -22.3088    0.0000 C   0  0  0  0  0  0  0  0  0  0  0  0
   10.7750  -21.8848    0.0000 C   0  0  0  0  0  0  0  0  0  0  0  0
   10.7898  -21.0694    0.0000 C   0  0  0  0  0  0  0  0  0  0  0  0
   12.2380  -16.9790    0.0000 C   0  0  0  0  0  0  0  0  0  0  0  0
   12.2373  -16.1465    0.0000 C   0  0  0  0  0  0  0  0  0  0  0  0
   11.5179  -15.7416    0.0000 C   0  0  0  0  0  0  0  0  0  0  0  0
   10.8103  -16.1551    0.0000 C   0  0  0  0  0  0  0  0  0  0  0  0
   11.5296  -17.3889    0.0000 C   0  0  0  0  0  0  0  0  0  0  0  0
   10.8219  -16.9888    0.0000 C   0  0  0  0  0  0  0  0  0  0  0  0
   12.2292  -18.6320    0.0000 C   0  0  0  0  0  0  0  0  0  0  0  0
   12.9552  -18.2237    0.0000 O   0  0  0  0  0  0  0  0  0  0  0  0
   10.0936  -17.3919    0.0000 C   0  0  0  0  0  0  0  0  0  0  0  0
    9.3905  -16.9672    0.0000 O   0  0  0  0  0  0  0  0  0  0  0  0
   10.0822  -18.2101    0.0000 O   0  0  0  0  0  0  0  0  0  0  0  0
    9.4040  -16.1489    0.0000 C   0  0  0  0  0  0  0  0  0  0  0  0
   12.9575  -15.7439    0.0000 C   0  0  0  0  0  0  0  0  0  0  0  0
   13.6624  -16.1638    0.0000 O   0  0  0  0  0  0  0  0  0  0  0  0
   13.6902  -14.5184    0.0000 C   0  0  0  0  0  0  0  0  0  0  0  0
   14.3901  -14.9174    0.0000 C   0  0  0  0  0  0  0  0  0  0  0  0
   15.1100  -14.5011    0.0000 C   0  0  0  0  0  0  0  0  0  0  0  0
   15.1052  -13.6684    0.0000 C   0  0  0  0  0  0  0  0  0  0  0  0
   14.3861  -13.2614    0.0000 C   0  0  0  0  0  0  0  0  0  0  0  0
   13.6747  -13.6770    0.0000 C   0  0  0  0  0  0  0  0  0  0  0  0
   15.8253  -13.2658    0.0000 C   0  0  0  0  0  0  0  0  0  0  0  0
   16.5301  -13.6899    0.0000 C   0  0  0  0  0  0  0  0  0  0  0  0
   17.2667  -13.2798    0.0000 N   0  0  0  0  0  0  0  0  0  0  0  0
   17.9681  -13.6976    0.0000 C   0  0  0  0  0  0  0  0  0  0  0  0
   17.9955  -12.0390    0.0000 C   0  0  0  0  0  0  0  0  0  0  0  0
   17.2677  -12.4416    0.0000 C   0  0  0  0  0  0  0  0  0  0  0  0
   18.7027  -12.4670    0.0000 C   0  0  0  0  0  0  0  0  0  0  0  0
   18.6888  -13.2923    0.0000 C   0  0  0  0  0  0  0  0  0  0  0  0
   19.3905  -13.7188    0.0000 C   0  0  0  0  0  0  0  0  0  0  0  0
   20.1146  -13.3230    0.0000 C   0  0  0  0  0  0  0  0  0  0  0  0
   20.1275  -12.4916    0.0000 C   0  0  0  0  0  0  0  0  0  0  0  0
   19.4246  -12.0706    0.0000 C   0  0  0  0  0  0  0  0  0  0  0  0
   20.8234  -13.7477    0.0000 O   0  0  0  0  0  0  0  0  0  0  0  0
   20.8076  -14.5723    0.0000 C   0  0  0  0  0  0  0  0  0  0  0  0
   20.8477  -12.0887    0.0000 O   0  0  0  0  0  0  0  0  0  0  0  0
   21.5564  -12.5136    0.0000 C   0  0  0  0  0  0  0  0  0  0  0  0
   11.5181  -18.2138    0.0000 N   0  0  0  0  0  0  0  0  0  0  0  0
   12.9690  -14.9189    0.0000 N   0  0  0  0  0  0  0  0  0  0  0  0
  2  3  2  0
  3  4  1  0
  4  6  2  0
  5  1  2  0
  5  6  1  0
  6  7  1  0
  7  8  2  0
  8  9  1  0
  9 10  2  0
 10  5  1  0
 15 11  2  0
 11 12  1  0
 12 13  2  0
 13 14  1  0
 14 16  2  0
 15 16  1  0
 17  2  1  0
 17 18  2  0
 19 20  1  0
 19 21  2  0
 16 19  1  0
 20 22  1  0
 12 23  1  0
 23 24  2  0
 25 26  2  0
 26 27  1  0
 27 28  2  0
 28 29  1  0
 29 30  2  0
 30 25  1  0
 28 31  1  0
 31 32  1  0
 32 33  1  0
 33 34  1  0
 33 36  1  0
 34 38  1  0
 37 35  1  0
 35 36  1  0
 37 38  2  0
 38 39  1  0
 39 40  2  0
 40 41  1  0
 41 42  2  0
 42 37  1  0
 40 43  1  0
 43 44  1  0
 41 45  1  0
 45 46  1  0
  1  2  1  0
 15 47  1  0
 47 17  1  0
 23 48  1  0
 48 25  1  0
M  END
>  <Classification>  (106) 
1

>  <pchembl>  (106) 
7.22

>  <InChI_steorem>  (106) 
InChI=1S/C38H36N4O6/c1-46-34-21-26-17-19-42(23-28(26)22-35(34)47-2)18-16-24-8-12-29(13-9-24)39-36(43)27-10-14-30(38(45)48-3)33(20-27)41-37(44)32-15-11-25-6-4-5-7-31(25)40-32/h4-15,20-22H,16-19,23H2,1-3H3,(H,39,43)(H,41,44)

>  <source>  (106) 
ChEMBL25

>  <source_id>  (106) 
25

>  <optional_reference>  (106) 
10.1021/jm8013822

>  <optional_origin>  (106) 
None

>  <target>  (106) 
BCRP

$$$$

     RDKit          2D

 48 53  0  0  0  0  0  0  0  0999 V2000
   -1.9824   -4.6458    0.0000 N   0  0  0  0  0  0  0  0  0  0  0  0
   -1.2749   -4.2413    0.0000 C   0  0  0  0  0  0  0  0  0  0  0  0
   -0.5579   -4.6588    0.0000 C   0  0  0  0  0  0  0  0  0  0  0  0
   -0.5651   -5.4805    0.0000 N   0  0  0  0  0  0  0  0  0  0  0  0
   -1.9880   -5.4652    0.0000 C   0  0  0  0  0  0  0  0  0  0  0  0
   -1.2854   -5.8816    0.0000 C   0  0  0  0  0  0  0  0  0  0  0  0
   -1.2949   -6.6990    0.0000 C   0  0  0  0  0  0  0  0  0  0  0  0
   -2.0058   -7.1014    0.0000 C   0  0  0  0  0  0  0  0  0  0  0  0
   -2.7136   -6.6774    0.0000 C   0  0  0  0  0  0  0  0  0  0  0  0
   -2.6988   -5.8622    0.0000 C   0  0  0  0  0  0  0  0  0  0  0  0
   -1.2507   -1.7719    0.0000 C   0  0  0  0  0  0  0  0  0  0  0  0
   -1.2514   -0.9396    0.0000 C   0  0  0  0  0  0  0  0  0  0  0  0
   -1.9708   -0.5347    0.0000 C   0  0  0  0  0  0  0  0  0  0  0  0
   -2.6783   -0.9482    0.0000 C   0  0  0  0  0  0  0  0  0  0  0  0
   -1.9591   -2.1819    0.0000 C   0  0  0  0  0  0  0  0  0  0  0  0
   -2.6667   -1.7818    0.0000 C   0  0  0  0  0  0  0  0  0  0  0  0
   -1.2595   -3.4250    0.0000 C   0  0  0  0  0  0  0  0  0  0  0  0
   -0.5336   -3.0168    0.0000 O   0  0  0  0  0  0  0  0  0  0  0  0
   -3.3949   -2.1848    0.0000 C   0  0  0  0  0  0  0  0  0  0  0  0
   -4.0980   -1.7601    0.0000 O   0  0  0  0  0  0  0  0  0  0  0  0
   -3.4063   -3.0030    0.0000 O   0  0  0  0  0  0  0  0  0  0  0  0
   -4.0845   -0.9420    0.0000 C   0  0  0  0  0  0  0  0  0  0  0  0
   -0.5314   -0.5370    0.0000 C   0  0  0  0  0  0  0  0  0  0  0  0
    0.1734   -0.9569    0.0000 O   0  0  0  0  0  0  0  0  0  0  0  0
    0.2014    0.6886    0.0000 C   0  0  0  0  0  0  0  0  0  0  0  0
    0.9012    0.2896    0.0000 C   0  0  0  0  0  0  0  0  0  0  0  0
    1.6211    0.7058    0.0000 C   0  0  0  0  0  0  0  0  0  0  0  0
    1.6162    1.5384    0.0000 C   0  0  0  0  0  0  0  0  0  0  0  0
    0.8972    1.9455    0.0000 C   0  0  0  0  0  0  0  0  0  0  0  0
    0.1860    1.5298    0.0000 C   0  0  0  0  0  0  0  0  0  0  0  0
    2.3363    1.9410    0.0000 C   0  0  0  0  0  0  0  0  0  0  0  0
    3.0411    1.5170    0.0000 C   0  0  0  0  0  0  0  0  0  0  0  0
    3.7775    1.9270    0.0000 N   0  0  0  0  0  0  0  0  0  0  0  0
    4.4788    1.5093    0.0000 C   0  0  0  0  0  0  0  0  0  0  0  0
    4.5062    3.1676    0.0000 C   0  0  0  0  0  0  0  0  0  0  0  0
    3.7786    2.7651    0.0000 C   0  0  0  0  0  0  0  0  0  0  0  0
    5.2133    2.7398    0.0000 C   0  0  0  0  0  0  0  0  0  0  0  0
    5.1995    1.9145    0.0000 C   0  0  0  0  0  0  0  0  0  0  0  0
    5.9012    1.4881    0.0000 C   0  0  0  0  0  0  0  0  0  0  0  0
    6.6251    1.8839    0.0000 C   0  0  0  0  0  0  0  0  0  0  0  0
    6.6380    2.7151    0.0000 C   0  0  0  0  0  0  0  0  0  0  0  0
    5.9352    3.1360    0.0000 C   0  0  0  0  0  0  0  0  0  0  0  0
    7.3338    1.4591    0.0000 O   0  0  0  0  0  0  0  0  0  0  0  0
    7.3180    0.6346    0.0000 C   0  0  0  0  0  0  0  0  0  0  0  0
    7.3582    3.1179    0.0000 O   0  0  0  0  0  0  0  0  0  0  0  0
    8.0669    2.6932    0.0000 C   0  0  0  0  0  0  0  0  0  0  0  0
   -1.9706   -3.0068    0.0000 N   0  0  0  0  0  0  0  0  0  0  0  0
   -0.5198    0.2880    0.0000 N   0  0  0  0  0  0  0  0  0  0  0  0
  2  3  2  0
  3  4  1  0
  4  6  2  0
  5  1  2  0
  5  6  1  0
  6  7  1  0
  7  8  2  0
  8  9  1  0
  9 10  2  0
 10  5  1  0
 15 11  2  0
 11 12  1  0
 12 13  2  0
 13 14  1  0
 14 16  2  0
 15 16  1  0
 17  2  1  0
 17 18  2  0
 19 20  1  0
 19 21  2  0
 16 19  1  0
 20 22  1  0
 12 23  1  0
 23 24  2  0
 25 26  2  0
 26 27  1  0
 27 28  2  0
 28 29  1  0
 29 30  2  0
 30 25  1  0
 28 31  1  0
 31 32  1  0
 32 33  1  0
 33 34  1  0
 33 36  1  0
 34 38  1  0
 37 35  1  0
 35 36  1  0
 37 38  2  0
 38 39  1  0
 39 40  2  0
 40 41  1  0
 41 42  2  0
 42 37  1  0
 40 43  1  0
 43 44  1  0
 41 45  1  0
 45 46  1  0
  1  2  1  0
 15 47  1  0
 47 17  1  0
 23 48  1  0
 48 25  1  0
M  END
>  <Classification>  (107) 
1

>  <pchembl>  (107) 
6.74

>  <InChI_steorem>  (107) 
InChI=1S/C37H35N5O6/c1-46-33-19-24-15-17-42(22-26(24)20-34(33)47-2)16-14-23-8-11-27(12-9-23)39-35(43)25-10-13-28(37(45)48-3)31(18-25)41-36(44)32-21-38-29-6-4-5-7-30(29)40-32/h4-13,18-21H,14-17,22H2,1-3H3,(H,39,43)(H,41,44)

>  <source>  (107) 
ChEMBL25

>  <source_id>  (107) 
25

>  <optional_reference>  (107) 
10.1021/jm8013822

>  <optional_origin>  (107) 
None

>  <target>  (107) 
BCRP

$$$$

     RDKit          2D

 48 53  0  0  0  0  0  0  0  0999 V2000
   -2.6856  -19.4163    0.0000 C   0  0  0  0  0  0  0  0  0  0  0  0
   -1.9781  -19.0116    0.0000 C   0  0  0  0  0  0  0  0  0  0  0  0
   -1.2610  -19.4292    0.0000 C   0  0  0  0  0  0  0  0  0  0  0  0
   -1.2682  -20.2509    0.0000 N   0  0  0  0  0  0  0  0  0  0  0  0
   -2.6913  -20.2357    0.0000 C   0  0  0  0  0  0  0  0  0  0  0  0
   -1.9886  -20.6522    0.0000 C   0  0  0  0  0  0  0  0  0  0  0  0
   -1.9981  -21.4696    0.0000 C   0  0  0  0  0  0  0  0  0  0  0  0
   -2.7090  -21.8721    0.0000 C   0  0  0  0  0  0  0  0  0  0  0  0
   -3.4168  -21.4480    0.0000 C   0  0  0  0  0  0  0  0  0  0  0  0
   -3.4021  -20.6326    0.0000 C   0  0  0  0  0  0  0  0  0  0  0  0
   -1.9538  -16.5422    0.0000 C   0  0  0  0  0  0  0  0  0  0  0  0
   -1.9545  -15.7098    0.0000 C   0  0  0  0  0  0  0  0  0  0  0  0
   -2.6740  -15.3048    0.0000 C   0  0  0  0  0  0  0  0  0  0  0  0
   -3.3815  -15.7184    0.0000 C   0  0  0  0  0  0  0  0  0  0  0  0
   -2.6622  -16.9522    0.0000 C   0  0  0  0  0  0  0  0  0  0  0  0
   -3.3698  -16.5520    0.0000 C   0  0  0  0  0  0  0  0  0  0  0  0
   -1.9626  -18.1953    0.0000 C   0  0  0  0  0  0  0  0  0  0  0  0
   -1.2367  -17.7870    0.0000 O   0  0  0  0  0  0  0  0  0  0  0  0
   -4.0982  -16.9552    0.0000 C   0  0  0  0  0  0  0  0  0  0  0  0
   -4.8013  -16.5305    0.0000 O   0  0  0  0  0  0  0  0  0  0  0  0
   -4.1097  -17.7734    0.0000 O   0  0  0  0  0  0  0  0  0  0  0  0
   -4.7878  -15.7122    0.0000 C   0  0  0  0  0  0  0  0  0  0  0  0
   -1.2344  -15.3071    0.0000 C   0  0  0  0  0  0  0  0  0  0  0  0
   -0.5295  -15.7271    0.0000 O   0  0  0  0  0  0  0  0  0  0  0  0
   -0.5015  -14.0816    0.0000 C   0  0  0  0  0  0  0  0  0  0  0  0
    0.1984  -14.4806    0.0000 C   0  0  0  0  0  0  0  0  0  0  0  0
    0.9184  -14.0642    0.0000 C   0  0  0  0  0  0  0  0  0  0  0  0
    0.9136  -13.2315    0.0000 C   0  0  0  0  0  0  0  0  0  0  0  0
    0.1944  -12.8244    0.0000 C   0  0  0  0  0  0  0  0  0  0  0  0
   -0.5169  -13.2401    0.0000 C   0  0  0  0  0  0  0  0  0  0  0  0
    1.6336  -12.8288    0.0000 C   0  0  0  0  0  0  0  0  0  0  0  0
    2.3385  -13.2530    0.0000 C   0  0  0  0  0  0  0  0  0  0  0  0
    3.0751  -12.8429    0.0000 N   0  0  0  0  0  0  0  0  0  0  0  0
    3.7764  -13.2607    0.0000 C   0  0  0  0  0  0  0  0  0  0  0  0
    3.8038  -11.6022    0.0000 C   0  0  0  0  0  0  0  0  0  0  0  0
    3.0762  -12.0047    0.0000 C   0  0  0  0  0  0  0  0  0  0  0  0
    4.5110  -12.0301    0.0000 C   0  0  0  0  0  0  0  0  0  0  0  0
    4.4971  -12.8554    0.0000 C   0  0  0  0  0  0  0  0  0  0  0  0
    5.1990  -13.2819    0.0000 C   0  0  0  0  0  0  0  0  0  0  0  0
    5.9230  -12.8860    0.0000 C   0  0  0  0  0  0  0  0  0  0  0  0
    5.9359  -12.0547    0.0000 C   0  0  0  0  0  0  0  0  0  0  0  0
    5.2330  -11.6337    0.0000 C   0  0  0  0  0  0  0  0  0  0  0  0
    6.6317  -13.3108    0.0000 O   0  0  0  0  0  0  0  0  0  0  0  0
    6.6159  -14.1355    0.0000 C   0  0  0  0  0  0  0  0  0  0  0  0
    6.6561  -11.6519    0.0000 O   0  0  0  0  0  0  0  0  0  0  0  0
    7.3648  -12.0767    0.0000 C   0  0  0  0  0  0  0  0  0  0  0  0
   -2.6737  -17.7771    0.0000 N   0  0  0  0  0  0  0  0  0  0  0  0
   -1.2228  -14.4822    0.0000 N   0  0  0  0  0  0  0  0  0  0  0  0
  2  3  2  0
  3  4  1  0
  4  6  2  0
  5  1  2  0
  5  6  1  0
  6  7  1  0
  7  8  2  0
  8  9  1  0
  9 10  2  0
 10  5  1  0
 15 11  2  0
 11 12  1  0
 12 13  2  0
 13 14  1  0
 14 16  2  0
 15 16  1  0
 17  2  1  0
 17 18  2  0
 19 20  1  0
 19 21  2  0
 16 19  1  0
 20 22  1  0
 12 23  1  0
 23 24  2  0
 25 26  2  0
 26 27  1  0
 27 28  2  0
 28 29  1  0
 29 30  2  0
 30 25  1  0
 28 31  1  0
 31 32  1  0
 32 33  1  0
 33 34  1  0
 33 36  1  0
 34 38  1  0
 37 35  1  0
 35 36  1  0
 37 38  2  0
 38 39  1  0
 39 40  2  0
 40 41  1  0
 41 42  2  0
 42 37  1  0
 40 43  1  0
 43 44  1  0
 41 45  1  0
 45 46  1  0
  1  2  1  0
 15 47  1  0
 47 17  1  0
 23 48  1  0
 48 25  1  0
M  END
>  <Classification>  (108) 
1

>  <pchembl>  (108) 
6.92

>  <InChI_steorem>  (108) 
InChI=1S/C38H36N4O6/c1-46-34-20-25-15-17-42(23-29(25)21-35(34)47-2)16-14-24-8-11-30(12-9-24)40-36(43)27-10-13-31(38(45)48-3)33(19-27)41-37(44)28-18-26-6-4-5-7-32(26)39-22-28/h4-13,18-22H,14-17,23H2,1-3H3,(H,40,43)(H,41,44)

>  <source>  (108) 
ChEMBL25

>  <source_id>  (108) 
25

>  <optional_reference>  (108) 
10.1021/jm8013822

>  <optional_origin>  (108) 
None

>  <target>  (108) 
BCRP

$$$$

     RDKit          2D

 48 53  0  0  0  0  0  0  0  0999 V2000
    6.5289  -25.0037    0.0000 C   0  0  0  0  0  0  0  0  0  0  0  0
    7.2366  -24.5990    0.0000 C   0  0  0  0  0  0  0  0  0  0  0  0
    7.9539  -25.0166    0.0000 C   0  0  0  0  0  0  0  0  0  0  0  0
    7.9467  -25.8386    0.0000 N   0  0  0  0  0  0  0  0  0  0  0  0
    6.5233  -25.8233    0.0000 C   0  0  0  0  0  0  0  0  0  0  0  0
    7.2261  -26.2399    0.0000 C   0  0  0  0  0  0  0  0  0  0  0  0
    7.2166  -27.0575    0.0000 C   0  0  0  0  0  0  0  0  0  0  0  0
    6.5055  -27.4600    0.0000 C   0  0  0  0  0  0  0  0  0  0  0  0
    5.7975  -27.0359    0.0000 C   0  0  0  0  0  0  0  0  0  0  0  0
    5.8123  -26.2204    0.0000 C   0  0  0  0  0  0  0  0  0  0  0  0
    7.2609  -22.1294    0.0000 C   0  0  0  0  0  0  0  0  0  0  0  0
    7.2603  -21.2968    0.0000 C   0  0  0  0  0  0  0  0  0  0  0  0
    6.5406  -20.8917    0.0000 C   0  0  0  0  0  0  0  0  0  0  0  0
    5.8329  -21.3054    0.0000 C   0  0  0  0  0  0  0  0  0  0  0  0
    6.5523  -22.5395    0.0000 C   0  0  0  0  0  0  0  0  0  0  0  0
    5.8445  -22.1393    0.0000 C   0  0  0  0  0  0  0  0  0  0  0  0
    7.2521  -23.7824    0.0000 C   0  0  0  0  0  0  0  0  0  0  0  0
    7.9782  -23.3741    0.0000 O   0  0  0  0  0  0  0  0  0  0  0  0
    7.9806  -20.8940    0.0000 C   0  0  0  0  0  0  0  0  0  0  0  0
    8.6856  -21.3141    0.0000 O   0  0  0  0  0  0  0  0  0  0  0  0
    8.7133  -19.6685    0.0000 C   0  0  0  0  0  0  0  0  0  0  0  0
    9.4134  -20.0676    0.0000 C   0  0  0  0  0  0  0  0  0  0  0  0
   10.1335  -19.6512    0.0000 C   0  0  0  0  0  0  0  0  0  0  0  0
   10.1286  -18.8184    0.0000 C   0  0  0  0  0  0  0  0  0  0  0  0
    9.4094  -18.4111    0.0000 C   0  0  0  0  0  0  0  0  0  0  0  0
    8.6979  -18.8270    0.0000 C   0  0  0  0  0  0  0  0  0  0  0  0
   10.8489  -18.4156    0.0000 C   0  0  0  0  0  0  0  0  0  0  0  0
   11.5539  -18.8398    0.0000 C   0  0  0  0  0  0  0  0  0  0  0  0
   12.2906  -18.4297    0.0000 N   0  0  0  0  0  0  0  0  0  0  0  0
   12.9921  -18.8475    0.0000 C   0  0  0  0  0  0  0  0  0  0  0  0
   13.0196  -17.1887    0.0000 C   0  0  0  0  0  0  0  0  0  0  0  0
   12.2917  -17.5913    0.0000 C   0  0  0  0  0  0  0  0  0  0  0  0
   13.7269  -17.6166    0.0000 C   0  0  0  0  0  0  0  0  0  0  0  0
   13.7131  -18.4422    0.0000 C   0  0  0  0  0  0  0  0  0  0  0  0
   14.4150  -18.8687    0.0000 C   0  0  0  0  0  0  0  0  0  0  0  0
   15.1392  -18.4728    0.0000 C   0  0  0  0  0  0  0  0  0  0  0  0
   15.1521  -17.6413    0.0000 C   0  0  0  0  0  0  0  0  0  0  0  0
   14.4490  -17.2202    0.0000 C   0  0  0  0  0  0  0  0  0  0  0  0
   15.8481  -18.8977    0.0000 O   0  0  0  0  0  0  0  0  0  0  0  0
   15.8323  -19.7225    0.0000 C   0  0  0  0  0  0  0  0  0  0  0  0
   15.8725  -17.2384    0.0000 O   0  0  0  0  0  0  0  0  0  0  0  0
   16.5814  -17.6633    0.0000 C   0  0  0  0  0  0  0  0  0  0  0  0
    5.1359  -22.5592    0.0000 O   0  0  0  0  0  0  0  0  0  0  0  0
    4.4179  -22.1555    0.0000 C   0  0  0  0  0  0  0  0  0  0  0  0
    5.1156  -20.9003    0.0000 O   0  0  0  0  0  0  0  0  0  0  0  0
    5.1077  -20.0767    0.0000 C   0  0  0  0  0  0  0  0  0  0  0  0
    6.5408  -23.3645    0.0000 N   0  0  0  0  0  0  0  0  0  0  0  0
    7.9921  -20.0691    0.0000 N   0  0  0  0  0  0  0  0  0  0  0  0
  5  6  2  0
  6  7  1  0
  7  8  2  0
  8  9  1  0
  9 10  2  0
 10  5  1  0
 15 11  2  0
 11 12  1  0
 12 13  2  0
 13 14  1  0
 14 16  2  0
 15 16  1  0
 17  2  1  0
 17 18  2  0
 12 19  1  0
 19 20  2  0
 21 22  2  0
 22 23  1  0
 23 24  2  0
 24 25  1  0
 25 26  2  0
 26 21  1  0
 24 27  1  0
 27 28  1  0
 28 29  1  0
 29 30  1  0
 29 32  1  0
 30 34  1  0
 33 31  1  0
 31 32  1  0
 33 34  2  0
 34 35  1  0
 35 36  2  0
 36 37  1  0
 37 38  2  0
 38 33  1  0
 36 39  1  0
 39 40  1  0
 37 41  1  0
 41 42  1  0
 16 43  1  0
  1  2  2  0
 43 44  1  0
  2  3  1  0
 14 45  1  0
  3  4  2  0
 45 46  1  0
  4  6  1  0
  5  1  1  0
 15 47  1  0
 47 17  1  0
 19 48  1  0
 48 21  1  0
M  END
>  <Classification>  (109) 
1

>  <pchembl>  (109) 
6.07

>  <InChI_steorem>  (109) 
InChI=1S/C38H38N4O6/c1-45-33-19-25-14-16-42(23-29(25)21-34(33)46-2)15-13-24-9-11-30(12-10-24)40-37(43)27-18-32(36(48-4)35(20-27)47-3)41-38(44)28-17-26-7-5-6-8-31(26)39-22-28/h5-12,17-22H,13-16,23H2,1-4H3,(H,40,43)(H,41,44)

>  <source>  (109) 
ChEMBL25

>  <source_id>  (109) 
25

>  <optional_reference>  (109) 
10.1021/jm8013822

>  <optional_origin>  (109) 
None

>  <target>  (109) 
BCRP

$$$$

     RDKit          2D

 17 19  0  0  0  0  0  0  0  0999 V2000
    0.3445    0.4950    0.0000 O   0  0  0  0  0  0  0  0  0  0  0  0
    1.0590    0.0825    0.0000 C   0  0  0  0  0  0  0  0  0  0  0  0
    1.0590   -0.7425    0.0000 C   0  0  0  0  0  0  0  0  0  0  0  0
    0.3445   -1.1550    0.0000 C   0  0  0  0  0  0  0  0  0  0  0  0
   -0.3699   -0.7425    0.0000 C   0  0  0  0  0  0  0  0  0  0  0  0
   -0.3699    0.0825    0.0000 C   0  0  0  0  0  0  0  0  0  0  0  0
   -1.0844    0.4950    0.0000 C   0  0  0  0  0  0  0  0  0  0  0  0
   -1.7989    0.0825    0.0000 C   0  0  0  0  0  0  0  0  0  0  0  0
   -2.5133    0.4950    0.0000 C   0  0  0  0  0  0  0  0  0  0  0  0
   -2.5133    1.3200    0.0000 C   0  0  0  0  0  0  0  0  0  0  0  0
   -1.7989    1.7325    0.0000 C   0  0  0  0  0  0  0  0  0  0  0  0
   -1.0844    1.3200    0.0000 C   0  0  0  0  0  0  0  0  0  0  0  0
    0.3445   -1.9800    0.0000 O   0  0  0  0  0  0  0  0  0  0  0  0
    1.7735   -1.1550    0.0000 C   0  0  0  0  0  0  0  0  0  0  0  0
    2.4880   -0.7425    0.0000 C   0  0  0  0  0  0  0  0  0  0  0  0
    2.4880    0.0825    0.0000 C   0  0  0  0  0  0  0  0  0  0  0  0
    1.7735    0.4950    0.0000 C   0  0  0  0  0  0  0  0  0  0  0  0
  2  1  1  0
  6  1  1  0
  3  2  2  0
 17  2  1  0
  4  3  1  0
  3 14  1  0
  5  4  1  0
  4 13  2  0
  6  5  2  0
  7  6  1  0
  7  8  2  0
  7 12  1  0
  8  9  1  0
  9 10  2  0
 10 11  1  0
 11 12  2  0
 14 15  2  0
 15 16  1  0
 16 17  2  0
M  END
>  <Classification>  (110) 
0

>  <pchembl>  (110) 
4.77

>  <InChI_steorem>  (110) 
InChI=1S/C15H10O2/c16-13-10-15(11-6-2-1-3-7-11)17-14-9-5-4-8-12(13)14/h1-10H

>  <source>  (110) 
ChEMBL25

>  <source_id>  (110) 
25

>  <optional_reference>  (110) 
10.1016/j.bmc.2010.12.043

>  <optional_origin>  (110) 
None

>  <target>  (110) 
BCRP

$$$$

     RDKit          2D

 21 24  0  0  0  0  0  0  0  0999 V2000
   -1.2651    0.4202    0.0000 C   0  0  0  0  0  0  0  0  0  0  0  0
   -0.8526    1.1347    0.0000 C   0  0  0  0  0  0  0  0  0  0  0  0
   -1.2651    1.8491    0.0000 O   0  0  0  0  0  0  0  0  0  0  0  0
   -0.0276    1.1347    0.0000 C   0  0  0  0  0  0  0  0  0  0  0  0
    0.3849    1.8491    0.0000 C   0  0  0  0  0  0  0  0  0  0  0  0
    1.2099    1.8491    0.0000 C   0  0  0  0  0  0  0  0  0  0  0  0
    1.6224    1.1347    0.0000 C   0  0  0  0  0  0  0  0  0  0  0  0
    2.4474    1.1347    0.0000 C   0  0  0  0  0  0  0  0  0  0  0  0
    2.8599    0.4202    0.0000 C   0  0  0  0  0  0  0  0  0  0  0  0
    2.4474   -0.2943    0.0000 C   0  0  0  0  0  0  0  0  0  0  0  0
    1.6224   -0.2943    0.0000 C   0  0  0  0  0  0  0  0  0  0  0  0
    1.2099    0.4202    0.0000 C   0  0  0  0  0  0  0  0  0  0  0  0
    0.3849    0.4202    0.0000 C   0  0  0  0  0  0  0  0  0  0  0  0
   -0.0276   -0.2943    0.0000 O   0  0  0  0  0  0  0  0  0  0  0  0
   -0.8526   -0.2943    0.0000 C   0  0  0  0  0  0  0  0  0  0  0  0
   -1.2651   -1.0088    0.0000 C   0  0  0  0  0  0  0  0  0  0  0  0
   -0.8526   -1.7232    0.0000 C   0  0  0  0  0  0  0  0  0  0  0  0
   -1.2651   -2.4377    0.0000 C   0  0  0  0  0  0  0  0  0  0  0  0
   -2.0901   -2.4377    0.0000 C   0  0  0  0  0  0  0  0  0  0  0  0
   -2.5026   -1.7232    0.0000 C   0  0  0  0  0  0  0  0  0  0  0  0
   -2.0901   -1.0088    0.0000 C   0  0  0  0  0  0  0  0  0  0  0  0
  1  2  1  0
 15  1  2  0
  2  3  2  0
  4  2  1  0
  4  5  2  0
  4 13  1  0
  5  6  1  0
  6  7  2  0
  7  8  1  0
  7 12  1  0
  8  9  2  0
  9 10  1  0
 10 11  2  0
 11 12  1  0
 12 13  2  0
 13 14  1  0
 15 14  1  0
 16 15  1  0
 16 17  2  0
 16 21  1  0
 17 18  1  0
 18 19  2  0
 19 20  1  0
 20 21  2  0
M  END
>  <Classification>  (111) 
1

>  <pchembl>  (111) 
5.85

>  <InChI_steorem>  (111) 
InChI=1S/C19H12O2/c20-17-12-18(14-7-2-1-3-8-14)21-19-15-9-5-4-6-13(15)10-11-16(17)19/h1-12H

>  <source>  (111) 
ChEMBL25

>  <source_id>  (111) 
25

>  <optional_reference>  (111) 
10.1016/j.ejmech.2013.06.035

>  <optional_origin>  (111) 
None

>  <target>  (111) 
BCRP

$$$$

     RDKit          2D

 28 30  0  0  0  0  0  0  0  0999 V2000
    2.1911   -0.7835    0.0000 C   0  0  0  0  0  0  0  0  0  0  0  0
    2.1911    0.0415    0.0000 O   0  0  0  0  0  0  0  0  0  0  0  0
    2.9055   -1.1960    0.0000 C   0  0  0  0  0  0  0  0  0  0  0  0
    3.6200   -0.7835    0.0000 C   0  0  0  0  0  0  0  0  0  0  0  0
    2.9055   -2.0210    0.0000 C   0  0  0  0  0  0  0  0  0  0  0  0
    2.1911   -2.4335    0.0000 C   0  0  0  0  0  0  0  0  0  0  0  0
    1.4766   -2.0210    0.0000 C   0  0  0  0  0  0  0  0  0  0  0  0
    1.4766   -1.1960    0.0000 C   0  0  0  0  0  0  0  0  0  0  0  0
    0.7621   -0.7835    0.0000 C   0  0  0  0  0  0  0  0  0  0  0  0
    1.4766    0.4540    0.0000 C   0  0  0  0  0  0  0  0  0  0  0  0
    0.7621    0.0415    0.0000 N   0  0  0  0  0  0  0  0  0  0  0  0
    0.0476    0.4540    0.0000 C   0  0  0  0  0  0  0  0  0  0  0  0
   -0.6668    0.0415    0.0000 N   0  0  0  0  0  0  0  0  0  0  0  0
    0.0476    1.2790    0.0000 N   0  0  0  0  0  0  0  0  0  0  0  0
    0.7621    1.6915    0.0000 C   0  0  0  0  0  0  0  0  0  0  0  0
    0.7621    2.5165    0.0000 N   0  0  0  0  0  0  0  0  0  0  0  0
    1.4766    1.2790    0.0000 C   0  0  0  0  0  0  0  0  0  0  0  0
   -1.3813    0.4540    0.0000 C   0  0  0  0  0  0  0  0  0  0  0  0
   -2.0958    0.0415    0.0000 C   0  0  0  0  0  0  0  0  0  0  0  0
   -2.8102    0.4540    0.0000 C   0  0  0  0  0  0  0  0  0  0  0  0
   -2.8102    1.2790    0.0000 C   0  0  0  0  0  0  0  0  0  0  0  0
   -2.0958    1.6915    0.0000 C   0  0  0  0  0  0  0  0  0  0  0  0
   -1.3813    1.2790    0.0000 C   0  0  0  0  0  0  0  0  0  0  0  0
   -3.5247    1.6915    0.0000 C   0  0  0  0  0  0  0  0  0  0  0  0
   -4.2392    2.1040    0.0000 N   0  0  0  0  0  0  0  0  0  0  0  0
    2.1911   -3.2585    0.0000 C   0  0  0  0  0  0  0  0  0  0  0  0
    2.1911   -4.0835    0.0000 N   0  0  0  0  0  0  0  0  0  0  0  0
    2.1911    1.6915    0.0000 Br  0  0  0  0  0  0  0  0  0  0  0  0
  1  2  1  0
  1  3  2  0
  1  8  1  0
 10  2  1  0
  3  4  1  0
  3  5  1  0
  5  6  2  0
  6  7  1  0
  6 26  1  0
  7  8  2  0
  8  9  1  0
 10 11  2  0
 10 17  1  0
 12 11  1  0
 12 13  1  0
 12 14  2  0
 18 13  1  0
 15 14  1  0
 15 16  1  0
 17 15  2  0
 28 17  1  0
 18 19  2  0
 18 23  1  0
 19 20  1  0
 20 21  2  0
 21 22  1  0
 21 24  1  0
 22 23  2  0
 24 25  3  0
 26 27  3  0
M  END
>  <Classification>  (112) 
1

>  <pchembl>  (112) 
5.22

>  <InChI_steorem>  (112) 
InChI=1S/C20H15BrN6O/c1-11-7-14(10-23)8-12(2)17(11)28-19-16(21)18(24)26-20(27-19)25-15-5-3-13(9-22)4-6-15/h3-8H,1-2H3,(H3,24,25,26,27)

>  <source>  (112) 
ChEMBL25

>  <source_id>  (112) 
25

>  <optional_reference>  (112) 
10.1128/aac.01527-10

>  <optional_origin>  (112) 
None

>  <target>  (112) 
BCRP

$$$$

     RDKit          2D

 17 19  0  0  0  0  0  0  0  0999 V2000
   -2.8501   -1.1897    0.0000 C   0  0  0  0  0  0  0  0  0  0  0  0
   -2.8501   -0.3647    0.0000 O   0  0  0  0  0  0  0  0  0  0  0  0
   -2.1356    0.0478    0.0000 C   0  0  0  0  0  0  0  0  0  0  0  0
   -2.1356    0.8728    0.0000 C   0  0  0  0  0  0  0  0  0  0  0  0
   -1.4211    1.2853    0.0000 C   0  0  0  0  0  0  0  0  0  0  0  0
   -0.7066    0.8728    0.0000 C   0  0  0  0  0  0  0  0  0  0  0  0
    0.0078    1.2853    0.0000 N   0  0  0  0  0  0  0  0  0  0  0  0
    0.7223    0.8728    0.0000 C   0  0  0  0  0  0  0  0  0  0  0  0
    1.4368    1.2853    0.0000 C   0  0  0  0  0  0  0  0  0  0  0  0
    2.1512    0.8728    0.0000 C   0  0  0  0  0  0  0  0  0  0  0  0
    2.1512    0.0478    0.0000 C   0  0  0  0  0  0  0  0  0  0  0  0
    1.4368   -0.3647    0.0000 C   0  0  0  0  0  0  0  0  0  0  0  0
    0.7223    0.0478    0.0000 C   0  0  0  0  0  0  0  0  0  0  0  0
    0.0078   -0.3647    0.0000 C   0  0  0  0  0  0  0  0  0  0  0  0
    0.0078   -1.1897    0.0000 O   0  0  0  0  0  0  0  0  0  0  0  0
   -0.7066    0.0478    0.0000 C   0  0  0  0  0  0  0  0  0  0  0  0
   -1.4211   -0.3647    0.0000 C   0  0  0  0  0  0  0  0  0  0  0  0
  1  2  1  0
  2  3  1  0
  3  4  2  0
  4  5  1  0
  5  6  2  0
  6  7  1  0
  7  8  1  0
  8  9  2  0
  9 10  1  0
 10 11  2  0
 11 12  1  0
 12 13  2  0
 13  8  1  0
 13 14  1  0
 14 15  2  0
 14 16  1  0
 16  6  1  0
 16 17  2  0
 17  3  1  0
M  END
>  <Classification>  (113) 
1

>  <pchembl>  (113) 
5.32

>  <InChI_steorem>  (113) 
InChI=1S/C14H11NO2/c1-17-9-6-7-13-11(8-9)14(16)10-4-2-3-5-12(10)15-13/h2-8H,1H3,(H,15,16)

>  <source>  (113) 
ChEMBL25

>  <source_id>  (113) 
25

>  <optional_reference>  (113) 
10.1016/j.bmc.2007.02.017

>  <optional_origin>  (113) 
None

>  <target>  (113) 
BCRP

$$$$

     RDKit          2D

 19 20  0  0  0  0  0  0  0  0999 V2000
    5.8424   -3.4028    0.0000 C   0  0  0  0  0  0  0  0  0  0  0  0
    6.5098   -2.9179    0.0000 C   0  0  0  0  0  0  0  0  0  0  0  0
    7.1773   -3.4028    0.0000 C   0  0  0  0  0  0  0  0  0  0  0  0
    6.9223   -4.1874    0.0000 S   0  0  0  0  0  0  0  0  0  0  0  0
    6.0973   -4.1874    0.0000 C   0  0  0  0  0  0  0  0  0  0  0  0
    6.5098   -2.0929    0.0000 C   0  0  0  0  0  0  0  0  0  0  0  0
    7.2243   -1.6804    0.0000 O   0  0  0  0  0  0  0  0  0  0  0  0
    5.7954   -1.6804    0.0000 O   0  0  0  0  0  0  0  0  0  0  0  0
    7.9619   -3.1479    0.0000 N   0  0  0  0  0  0  0  0  0  0  0  0
    8.5750   -3.6999    0.0000 C   0  0  0  0  0  0  0  0  0  0  0  0
    9.3596   -3.4450    0.0000 N   0  0  0  0  0  0  0  0  0  0  0  0
    8.4035   -4.5069    0.0000 S   0  0  0  0  0  0  0  0  0  0  0  0
    9.5311   -2.6380    0.0000 C   0  0  0  0  0  0  0  0  0  0  0  0
    9.9727   -3.9970    0.0000 C   0  0  0  0  0  0  0  0  0  0  0  0
   10.7573   -3.7421    0.0000 C   0  0  0  0  0  0  0  0  0  0  0  0
   11.3704   -4.2941    0.0000 C   0  0  0  0  0  0  0  0  0  0  0  0
   11.1989   -5.1011    0.0000 C   0  0  0  0  0  0  0  0  0  0  0  0
   10.4143   -5.3560    0.0000 C   0  0  0  0  0  0  0  0  0  0  0  0
    9.8012   -4.8040    0.0000 C   0  0  0  0  0  0  0  0  0  0  0  0
  4  5  1  0
  9 10  1  0
  5  1  2  0
 10 11  1  0
  1  2  1  0
 10 12  2  0
  2  6  1  0
 11 13  1  0
 11 14  1  0
 14 15  1  0
  6  7  2  0
  2  3  2  0
  6  8  1  0
  3  4  1  0
  3  9  1  0
 14 19  1  0
 15 16  1  0
 16 17  1  0
 17 18  1  0
 18 19  1  0
M  END
>  <Classification>  (114) 
0

>  <pchembl>  (114) 
4.99

>  <InChI_steorem>  (114) 
InChI=1S/C13H18N2O2S2/c1-15(9-5-3-2-4-6-9)13(18)14-11-10(12(16)17)7-8-19-11/h7-9H,2-6H2,1H3,(H,14,18)(H,16,17)

>  <source>  (114) 
ChEMBL25

>  <source_id>  (114) 
25

>  <optional_reference>  (114) 
10.1021/jm900688v

>  <optional_origin>  (114) 
None

>  <target>  (114) 
BCRP

$$$$

     RDKit          2D

 20 21  0  0  0  0  0  0  0  0999 V2000
    1.0292   -2.6708    0.0000 C   0  0  0  0  0  0  0  0  0  0  0  0
    0.9430   -1.8503    0.0000 C   0  0  0  0  0  0  0  0  0  0  0  0
    1.6967   -1.5147    0.0000 S   0  0  0  0  0  0  0  0  0  0  0  0
    0.4161   -3.2228    0.0000 C   0  0  0  0  0  0  0  0  0  0  0  0
   -0.3685   -2.9679    0.0000 O   0  0  0  0  0  0  0  0  0  0  0  0
    0.5877   -4.0298    0.0000 O   0  0  0  0  0  0  0  0  0  0  0  0
    0.2285   -1.4378    0.0000 N   0  0  0  0  0  0  0  0  0  0  0  0
    0.2285   -0.6128    0.0000 C   0  0  0  0  0  0  0  0  0  0  0  0
    0.9430   -0.2003    0.0000 N   0  0  0  0  0  0  0  0  0  0  0  0
   -0.4860   -0.2003    0.0000 S   0  0  0  0  0  0  0  0  0  0  0  0
    0.9430    0.6247    0.0000 C   0  0  0  0  0  0  0  0  0  0  0  0
    1.6575    1.0372    0.0000 C   0  0  0  0  0  0  0  0  0  0  0  0
    2.3719   -0.2003    0.0000 C   0  0  0  0  0  0  0  0  0  0  0  0
    1.6575   -0.6128    0.0000 C   0  0  0  0  0  0  0  0  0  0  0  0
    1.8362   -2.8423    0.0000 C   0  0  0  0  0  0  0  0  0  0  0  0
    2.2487   -2.1278    0.0000 C   0  0  0  0  0  0  0  0  0  0  0  0
    3.0737   -2.1278    0.0000 C   0  0  0  0  0  0  0  0  0  0  0  0
    3.4862   -2.8423    0.0000 C   0  0  0  0  0  0  0  0  0  0  0  0
    3.0737   -3.5568    0.0000 C   0  0  0  0  0  0  0  0  0  0  0  0
    2.2487   -3.5568    0.0000 C   0  0  0  0  0  0  0  0  0  0  0  0
  9 11  1  0
  4  5  2  0
  1  2  2  0
  4  6  1  0
  2  3  1  0
  9 14  1  0
 11 12  1  0
 13 14  1  0
  2  7  1  0
 15 16  2  0
  3 16  1  0
  7  8  1  0
 15  1  1  0
  8  9  1  0
  1  4  1  0
  8 10  2  0
 15 20  1  0
 16 17  1  0
 17 18  2  0
 18 19  1  0
 19 20  2  0
M  END
>  <Classification>  (115) 
1

>  <pchembl>  (115) 
5.21

>  <InChI_steorem>  (115) 
InChI=1S/C14H16N2O2S2/c1-3-16(4-2)14(19)15-12-11(13(17)18)9-7-5-6-8-10(9)20-12/h5-8H,3-4H2,1-2H3,(H,15,19)(H,17,18)

>  <source>  (115) 
ChEMBL25

>  <source_id>  (115) 
25

>  <optional_reference>  (115) 
10.1021/jm900688v

>  <optional_origin>  (115) 
None

>  <target>  (115) 
BCRP

$$$$

     RDKit          2D

 21 22  0  0  0  0  0  0  0  0999 V2000
    3.3724   -4.0810    0.0000 C   0  0  0  0  0  0  0  0  0  0  0  0
    3.2862   -3.2605    0.0000 C   0  0  0  0  0  0  0  0  0  0  0  0
    4.0399   -2.9250    0.0000 S   0  0  0  0  0  0  0  0  0  0  0  0
    2.7594   -4.6331    0.0000 C   0  0  0  0  0  0  0  0  0  0  0  0
    1.9747   -4.3781    0.0000 O   0  0  0  0  0  0  0  0  0  0  0  0
    2.9309   -5.4400    0.0000 O   0  0  0  0  0  0  0  0  0  0  0  0
    2.5717   -2.8480    0.0000 N   0  0  0  0  0  0  0  0  0  0  0  0
    2.5717   -2.0230    0.0000 C   0  0  0  0  0  0  0  0  0  0  0  0
    3.2862   -1.6105    0.0000 N   0  0  0  0  0  0  0  0  0  0  0  0
    1.8573   -1.6105    0.0000 S   0  0  0  0  0  0  0  0  0  0  0  0
    3.2862   -0.7855    0.0000 C   0  0  0  0  0  0  0  0  0  0  0  0
    4.0007   -0.3730    0.0000 C   0  0  0  0  0  0  0  0  0  0  0  0
    4.7152   -1.6105    0.0000 C   0  0  0  0  0  0  0  0  0  0  0  0
    4.0007   -2.0230    0.0000 C   0  0  0  0  0  0  0  0  0  0  0  0
    4.1794   -4.2525    0.0000 C   0  0  0  0  0  0  0  0  0  0  0  0
    4.5919   -3.5381    0.0000 C   0  0  0  0  0  0  0  0  0  0  0  0
    5.4169   -3.5381    0.0000 C   0  0  0  0  0  0  0  0  0  0  0  0
    5.8294   -4.2525    0.0000 C   0  0  0  0  0  0  0  0  0  0  0  0
    5.4169   -4.9670    0.0000 C   0  0  0  0  0  0  0  0  0  0  0  0
    4.5919   -4.9670    0.0000 C   0  0  0  0  0  0  0  0  0  0  0  0
    4.1794   -5.6815    0.0000 C   0  0  0  0  0  0  0  0  0  0  0  0
  4  5  2  0
  1  2  2  0
  4  6  1  0
  2  3  1  0
  9 14  1  0
 11 12  1  0
 13 14  1  0
  2  7  1  0
 15 16  2  0
  3 16  1  0
  7  8  1  0
 15  1  1  0
  8  9  1  0
  1  4  1  0
  8 10  2  0
 15 20  1  0
 16 17  1  0
 17 18  1  0
 18 19  1  0
 19 20  1  0
  9 11  1  0
 20 21  1  0
M  END
>  <Classification>  (116) 
1

>  <pchembl>  (116) 
5.04

>  <InChI_steorem>  (116) 
InChI=1S/C15H22N2O2S2/c1-4-17(5-2)15(20)16-13-12(14(18)19)11-9(3)7-6-8-10(11)21-13/h9H,4-8H2,1-3H3,(H,16,20)(H,18,19)

>  <source>  (116) 
ChEMBL25

>  <source_id>  (116) 
25

>  <optional_reference>  (116) 
10.1021/jm900688v

>  <optional_origin>  (116) 
None

>  <target>  (116) 
BCRP

$$$$

     RDKit          2D

 22 23  0  0  0  0  0  0  0  0999 V2000
   -0.8273   -3.2529    0.0000 C   0  0  0  0  0  0  0  0  0  0  0  0
   -1.5418   -3.6654    0.0000 C   0  0  0  0  0  0  0  0  0  0  0  0
   -1.5418   -4.4904    0.0000 C   0  0  0  0  0  0  0  0  0  0  0  0
   -0.8273   -4.9029    0.0000 C   0  0  0  0  0  0  0  0  0  0  0  0
   -0.1128   -4.4904    0.0000 C   0  0  0  0  0  0  0  0  0  0  0  0
   -0.1128   -3.6654    0.0000 C   0  0  0  0  0  0  0  0  0  0  0  0
   -0.8273   -2.4279    0.0000 O   0  0  0  0  0  0  0  0  0  0  0  0
   -0.8273   -5.7279    0.0000 C   0  0  0  0  0  0  0  0  0  0  0  0
   -1.5418   -6.1404    0.0000 C   0  0  0  0  0  0  0  0  0  0  0  0
   -1.5418   -6.9654    0.0000 N   0  0  0  0  0  0  0  0  0  0  0  0
   -0.8273   -7.3779    0.0000 C   0  0  0  0  0  0  0  0  0  0  0  0
   -0.8273   -8.2029    0.0000 C   0  0  0  0  0  0  0  0  0  0  0  0
   -0.1128   -6.9654    0.0000 O   0  0  0  0  0  0  0  0  0  0  0  0
   -0.1128   -8.6154    0.0000 C   0  0  0  0  0  0  0  0  0  0  0  0
   -0.1128   -9.4404    0.0000 C   0  0  0  0  0  0  0  0  0  0  0  0
    0.6016   -9.8529    0.0000 C   0  0  0  0  0  0  0  0  0  0  0  0
    0.6016  -10.6779    0.0000 C   0  0  0  0  0  0  0  0  0  0  0  0
   -0.1128  -11.0904    0.0000 C   0  0  0  0  0  0  0  0  0  0  0  0
   -0.8273  -10.6779    0.0000 C   0  0  0  0  0  0  0  0  0  0  0  0
   -0.8273   -9.8529    0.0000 C   0  0  0  0  0  0  0  0  0  0  0  0
   -1.5418   -8.6154    0.0000 O   0  0  0  0  0  0  0  0  0  0  0  0
   -1.5418   -9.4404    0.0000 C   0  0  0  0  0  0  0  0  0  0  0  0
 10 11  1  0
  5  6  1  0
 11 12  1  0
  6  1  2  0
 11 13  2  0
  1  2  1  0
 12 14  2  3
  1  7  1  0
 14 15  1  0
  3  4  1  0
 15 16  2  0
  4  8  1  0
 16 17  1  0
 17 18  2  0
  8  9  2  3
 18 19  1  0
  4  5  2  0
 19 20  2  0
 20 15  1  0
  9 10  1  0
 12 21  1  0
  2  3  2  0
 21 22  1  0
M  END
>  <Classification>  (117) 
0

>  <pchembl>  (117) 
4.81

>  <InChI_steorem>  (117) 
InChI=1S/C18H17NO3/c1-22-17(13-15-5-3-2-4-6-15)18(21)19-12-11-14-7-9-16(20)10-8-14/h2-13,20H,1H3,(H,19,21)

>  <source>  (117) 
ChEMBL25

>  <source_id>  (117) 
25

>  <optional_reference>  (117) 
10.1016/j.bmcl.2010.01.016

>  <optional_origin>  (117) 
None

>  <target>  (117) 
BCRP

$$$$

     RDKit          2D

 23 24  0  0  0  0  0  0  0  0999 V2000
    3.0319    2.0679    0.0000 C   0  0  0  0  0  0  0  0  0  0  0  0
    3.0319    1.2429    0.0000 C   0  0  0  0  0  0  0  0  0  0  0  0
    3.7464    0.8304    0.0000 C   0  0  0  0  0  0  0  0  0  0  0  0
    4.4609    1.2429    0.0000 C   0  0  0  0  0  0  0  0  0  0  0  0
    4.4609    2.0679    0.0000 C   0  0  0  0  0  0  0  0  0  0  0  0
    3.7464    2.4804    0.0000 C   0  0  0  0  0  0  0  0  0  0  0  0
    2.3175    2.4804    0.0000 O   0  0  0  0  0  0  0  0  0  0  0  0
    5.1753    0.8304    0.0000 C   0  0  0  0  0  0  0  0  0  0  0  0
    5.8898    1.2429    0.0000 C   0  0  0  0  0  0  0  0  0  0  0  0
    6.6043    0.8304    0.0000 N   0  0  0  0  0  0  0  0  0  0  0  0
    7.3188    1.2429    0.0000 C   0  0  0  0  0  0  0  0  0  0  0  0
    8.0332    0.8304    0.0000 C   0  0  0  0  0  0  0  0  0  0  0  0
    7.3188    2.0679    0.0000 O   0  0  0  0  0  0  0  0  0  0  0  0
    8.0332    0.0054    0.0000 O   0  0  0  0  0  0  0  0  0  0  0  0
    8.7477    1.2429    0.0000 C   0  0  0  0  0  0  0  0  0  0  0  0
    8.7477   -0.4071    0.0000 C   0  0  0  0  0  0  0  0  0  0  0  0
    9.4622    0.8304    0.0000 C   0  0  0  0  0  0  0  0  0  0  0  0
   10.1766    1.2429    0.0000 C   0  0  0  0  0  0  0  0  0  0  0  0
   10.8911    0.8304    0.0000 C   0  0  0  0  0  0  0  0  0  0  0  0
   10.8911    0.0054    0.0000 C   0  0  0  0  0  0  0  0  0  0  0  0
   10.1766   -0.4071    0.0000 C   0  0  0  0  0  0  0  0  0  0  0  0
    9.4622    0.0054    0.0000 C   0  0  0  0  0  0  0  0  0  0  0  0
   11.6056   -0.4071    0.0000 O   0  0  0  0  0  0  0  0  0  0  0  0
  5  6  1  0
 11 12  1  0
  6  1  2  0
 11 13  2  0
  1  2  1  0
 12 14  1  0
  1  7  1  0
 12 15  2  3
  3  4  1  0
 14 16  1  0
  4  8  1  0
 15 17  1  0
 17 18  2  0
  8  9  1  0
 18 19  1  0
  4  5  2  0
 19 20  2  0
  9 10  1  0
 20 21  1  0
  2  3  2  0
 21 22  2  0
 22 17  1  0
 10 11  1  0
 20 23  1  0
M  END
>  <Classification>  (118) 
0

>  <pchembl>  (118) 
4.6

>  <InChI_steorem>  (118) 
InChI=1S/C18H19NO4/c1-23-17(12-14-4-8-16(21)9-5-14)18(22)19-11-10-13-2-6-15(20)7-3-13/h2-9,12,20-21H,10-11H2,1H3,(H,19,22)

>  <source>  (118) 
ChEMBL25

>  <source_id>  (118) 
25

>  <optional_reference>  (118) 
10.1016/j.bmcl.2010.01.016

>  <optional_origin>  (118) 
None

>  <target>  (118) 
BCRP

$$$$

     RDKit          2D

 24 25  0  0  0  0  0  0  0  0999 V2000
   -0.2046  -13.6430    0.0000 C   0  0  0  0  0  0  0  0  0  0  0  0
   -0.9191  -13.2305    0.0000 C   0  0  0  0  0  0  0  0  0  0  0  0
   -0.9191  -12.4055    0.0000 C   0  0  0  0  0  0  0  0  0  0  0  0
   -0.2046  -11.9930    0.0000 C   0  0  0  0  0  0  0  0  0  0  0  0
    0.5098  -12.4055    0.0000 C   0  0  0  0  0  0  0  0  0  0  0  0
    0.5098  -13.2305    0.0000 C   0  0  0  0  0  0  0  0  0  0  0  0
   -0.2046  -14.4680    0.0000 O   0  0  0  0  0  0  0  0  0  0  0  0
   -0.2046  -11.1680    0.0000 C   0  0  0  0  0  0  0  0  0  0  0  0
    0.5098  -10.7555    0.0000 C   0  0  0  0  0  0  0  0  0  0  0  0
    0.5098   -9.9305    0.0000 N   0  0  0  0  0  0  0  0  0  0  0  0
   -0.2046   -9.5180    0.0000 C   0  0  0  0  0  0  0  0  0  0  0  0
   -0.2046   -8.6930    0.0000 C   0  0  0  0  0  0  0  0  0  0  0  0
   -0.9191   -9.9305    0.0000 O   0  0  0  0  0  0  0  0  0  0  0  0
   -0.9191   -8.2805    0.0000 C   0  0  0  0  0  0  0  0  0  0  0  0
   -0.9191   -7.4555    0.0000 C   0  0  0  0  0  0  0  0  0  0  0  0
   -1.6336   -7.0430    0.0000 C   0  0  0  0  0  0  0  0  0  0  0  0
   -1.6336   -6.2180    0.0000 C   0  0  0  0  0  0  0  0  0  0  0  0
   -0.9191   -5.8055    0.0000 C   0  0  0  0  0  0  0  0  0  0  0  0
   -0.2046   -6.2180    0.0000 C   0  0  0  0  0  0  0  0  0  0  0  0
   -0.2046   -7.0430    0.0000 C   0  0  0  0  0  0  0  0  0  0  0  0
    0.5098   -8.2805    0.0000 O   0  0  0  0  0  0  0  0  0  0  0  0
    0.5098   -7.4555    0.0000 C   0  0  0  0  0  0  0  0  0  0  0  0
    0.5098   -5.8055    0.0000 O   0  0  0  0  0  0  0  0  0  0  0  0
   -0.9191   -4.9805    0.0000 O   0  0  0  0  0  0  0  0  0  0  0  0
 11 12  1  0
  6  1  2  0
 11 13  2  0
  1  2  1  0
 12 14  2  3
  1  7  1  0
 14 15  1  0
  3  4  1  0
 15 16  2  0
  4  8  1  0
 16 17  1  0
 17 18  2  0
  8  9  2  3
 18 19  1  0
  4  5  2  0
 19 20  2  0
 20 15  1  0
  9 10  1  0
 12 21  1  0
  2  3  2  0
 21 22  1  0
 10 11  1  0
 19 23  1  0
  5  6  1  0
 18 24  1  0
M  END
>  <Classification>  (119) 
0

>  <pchembl>  (119) 
4.73

>  <InChI_steorem>  (119) 
InChI=1S/C18H17NO5/c1-24-17(11-13-4-7-15(21)16(22)10-13)18(23)19-9-8-12-2-5-14(20)6-3-12/h2-11,20-22H,1H3,(H,19,23)

>  <source>  (119) 
ChEMBL25

>  <source_id>  (119) 
25

>  <optional_reference>  (119) 
10.1016/j.bmcl.2010.01.016

>  <optional_origin>  (119) 
None

>  <target>  (119) 
BCRP

$$$$

     RDKit          2D

 24 25  0  0  0  0  0  0  0  0999 V2000
    7.1684  -11.6450    0.0000 C   0  0  0  0  0  0  0  0  0  0  0  0
    6.4539  -11.2325    0.0000 C   0  0  0  0  0  0  0  0  0  0  0  0
    6.4539  -10.4075    0.0000 C   0  0  0  0  0  0  0  0  0  0  0  0
    7.1684   -9.9950    0.0000 C   0  0  0  0  0  0  0  0  0  0  0  0
    7.8828  -10.4075    0.0000 C   0  0  0  0  0  0  0  0  0  0  0  0
    7.8828  -11.2325    0.0000 C   0  0  0  0  0  0  0  0  0  0  0  0
    7.1684  -12.4700    0.0000 O   0  0  0  0  0  0  0  0  0  0  0  0
    7.1684   -9.1700    0.0000 C   0  0  0  0  0  0  0  0  0  0  0  0
    7.8828   -8.7575    0.0000 C   0  0  0  0  0  0  0  0  0  0  0  0
    7.8828   -7.9325    0.0000 N   0  0  0  0  0  0  0  0  0  0  0  0
    7.1684   -7.5200    0.0000 C   0  0  0  0  0  0  0  0  0  0  0  0
    7.1684   -6.6950    0.0000 C   0  0  0  0  0  0  0  0  0  0  0  0
    6.4539   -7.9325    0.0000 O   0  0  0  0  0  0  0  0  0  0  0  0
    6.4539   -6.2825    0.0000 C   0  0  0  0  0  0  0  0  0  0  0  0
    6.4539   -5.4575    0.0000 C   0  0  0  0  0  0  0  0  0  0  0  0
    5.7394   -5.0450    0.0000 C   0  0  0  0  0  0  0  0  0  0  0  0
    5.7394   -4.2200    0.0000 C   0  0  0  0  0  0  0  0  0  0  0  0
    6.4539   -3.8075    0.0000 C   0  0  0  0  0  0  0  0  0  0  0  0
    7.1684   -4.2200    0.0000 C   0  0  0  0  0  0  0  0  0  0  0  0
    7.1684   -5.0450    0.0000 C   0  0  0  0  0  0  0  0  0  0  0  0
    7.8828   -6.2825    0.0000 O   0  0  0  0  0  0  0  0  0  0  0  0
    7.8828   -5.4575    0.0000 C   0  0  0  0  0  0  0  0  0  0  0  0
    6.4539   -2.9825    0.0000 O   0  0  0  0  0  0  0  0  0  0  0  0
    5.7394   -2.5700    0.0000 C   0  0  0  0  0  0  0  0  0  0  0  0
 11 12  1  0
  6  1  2  0
 11 13  2  0
  1  2  1  0
 12 14  2  3
  1  7  1  0
 14 15  1  0
  3  4  1  0
 15 16  2  0
  4  8  1  0
 16 17  1  0
 17 18  2  0
  8  9  2  3
 18 19  1  0
  4  5  2  0
 19 20  2  0
 20 15  1  0
  9 10  1  0
 12 21  1  0
  2  3  2  0
 21 22  1  0
 10 11  1  0
 18 23  1  0
  5  6  1  0
 23 24  1  0
M  END
>  <Classification>  (120) 
1

>  <pchembl>  (120) 
5.19

>  <InChI_steorem>  (120) 
InChI=1S/C19H19NO4/c1-23-17-9-5-15(6-10-17)13-18(24-2)19(22)20-12-11-14-3-7-16(21)8-4-14/h3-13,21H,1-2H3,(H,20,22)

>  <source>  (120) 
ChEMBL25

>  <source_id>  (120) 
25

>  <optional_reference>  (120) 
10.1016/j.bmcl.2010.01.016

>  <optional_origin>  (120) 
None

>  <target>  (120) 
BCRP

$$$$

     RDKit          2D

 25 26  0  0  0  0  0  0  0  0999 V2000
    7.4131  -14.0085    0.0000 C   0  0  0  0  0  0  0  0  0  0  0  0
    6.6987  -13.5960    0.0000 C   0  0  0  0  0  0  0  0  0  0  0  0
    6.6987  -12.7710    0.0000 C   0  0  0  0  0  0  0  0  0  0  0  0
    7.4131  -12.3585    0.0000 C   0  0  0  0  0  0  0  0  0  0  0  0
    8.1276  -12.7710    0.0000 C   0  0  0  0  0  0  0  0  0  0  0  0
    8.1276  -13.5960    0.0000 C   0  0  0  0  0  0  0  0  0  0  0  0
    7.4131  -14.8335    0.0000 O   0  0  0  0  0  0  0  0  0  0  0  0
    7.4131  -11.5335    0.0000 C   0  0  0  0  0  0  0  0  0  0  0  0
    8.1276  -11.1210    0.0000 C   0  0  0  0  0  0  0  0  0  0  0  0
    8.1276  -10.2960    0.0000 N   0  0  0  0  0  0  0  0  0  0  0  0
    7.4131   -9.8835    0.0000 C   0  0  0  0  0  0  0  0  0  0  0  0
    7.4131   -9.0585    0.0000 C   0  0  0  0  0  0  0  0  0  0  0  0
    6.6987  -10.2960    0.0000 O   0  0  0  0  0  0  0  0  0  0  0  0
    6.6987   -8.6460    0.0000 C   0  0  0  0  0  0  0  0  0  0  0  0
    6.6987   -7.8210    0.0000 C   0  0  0  0  0  0  0  0  0  0  0  0
    5.9842   -7.4085    0.0000 C   0  0  0  0  0  0  0  0  0  0  0  0
    5.9842   -6.5835    0.0000 C   0  0  0  0  0  0  0  0  0  0  0  0
    6.6987   -6.1710    0.0000 C   0  0  0  0  0  0  0  0  0  0  0  0
    7.4131   -6.5835    0.0000 C   0  0  0  0  0  0  0  0  0  0  0  0
    7.4131   -7.4085    0.0000 C   0  0  0  0  0  0  0  0  0  0  0  0
    8.1276   -8.6460    0.0000 O   0  0  0  0  0  0  0  0  0  0  0  0
    8.8421   -9.0585    0.0000 C   0  0  0  0  0  0  0  0  0  0  0  0
    8.1276   -6.1710    0.0000 Br  0  0  0  0  0  0  0  0  0  0  0  0
    6.6987   -5.3460    0.0000 O   0  0  0  0  0  0  0  0  0  0  0  0
    5.2697   -6.1710    0.0000 Br  0  0  0  0  0  0  0  0  0  0  0  0
  6  1  2  0
 11 13  2  0
  1  2  1  0
 12 14  2  3
  1  7  1  0
 14 15  1  0
  3  4  1  0
 15 16  2  0
  4  8  1  0
 16 17  1  0
 17 18  2  0
  8  9  2  3
 18 19  1  0
  4  5  2  0
 19 20  2  0
 20 15  1  0
  9 10  1  0
 12 21  1  0
  2  3  2  0
 21 22  1  0
 10 11  1  0
 19 23  1  0
  5  6  1  0
 18 24  1  0
 11 12  1  0
 17 25  1  0
M  END
>  <Classification>  (121) 
0

>  <pchembl>  (121) 
4.96

>  <InChI_steorem>  (121) 
InChI=1S/C18H15Br2NO4/c1-25-16(10-12-8-14(19)17(23)15(20)9-12)18(24)21-7-6-11-2-4-13(22)5-3-11/h2-10,22-23H,1H3,(H,21,24)

>  <source>  (121) 
ChEMBL25

>  <source_id>  (121) 
25

>  <optional_reference>  (121) 
10.1016/j.bmcl.2010.01.016

>  <optional_origin>  (121) 
None

>  <target>  (121) 
BCRP

$$$$

     RDKit          2D

 28 29  0  0  0  0  0  0  0  0999 V2000
    0.3838   -9.3202    0.0000 C   0  0  0  0  0  0  0  0  0  0  0  0
   -0.3307   -9.7327    0.0000 C   0  0  0  0  0  0  0  0  0  0  0  0
   -0.3307  -10.5577    0.0000 C   0  0  0  0  0  0  0  0  0  0  0  0
    0.3838  -10.9702    0.0000 C   0  0  0  0  0  0  0  0  0  0  0  0
    1.0982  -10.5577    0.0000 C   0  0  0  0  0  0  0  0  0  0  0  0
    1.0982   -9.7327    0.0000 C   0  0  0  0  0  0  0  0  0  0  0  0
    0.3838   -8.4952    0.0000 O   0  0  0  0  0  0  0  0  0  0  0  0
    0.3838  -11.7952    0.0000 C   0  0  0  0  0  0  0  0  0  0  0  0
   -0.3307  -12.2077    0.0000 C   0  0  0  0  0  0  0  0  0  0  0  0
   -0.3307  -13.0327    0.0000 N   0  0  0  0  0  0  0  0  0  0  0  0
   -1.0452  -13.4452    0.0000 C   0  0  0  0  0  0  0  0  0  0  0  0
   -1.0452  -14.2702    0.0000 C   0  0  0  0  0  0  0  0  0  0  0  0
   -1.7597  -13.0327    0.0000 O   0  0  0  0  0  0  0  0  0  0  0  0
   -0.3307  -14.6827    0.0000 C   0  0  0  0  0  0  0  0  0  0  0  0
   -0.3307  -15.5077    0.0000 C   0  0  0  0  0  0  0  0  0  0  0  0
    0.3838  -15.9202    0.0000 C   0  0  0  0  0  0  0  0  0  0  0  0
    0.3838  -16.7452    0.0000 C   0  0  0  0  0  0  0  0  0  0  0  0
   -0.3307  -17.1577    0.0000 C   0  0  0  0  0  0  0  0  0  0  0  0
   -1.0452  -16.7452    0.0000 C   0  0  0  0  0  0  0  0  0  0  0  0
   -1.0452  -15.9202    0.0000 C   0  0  0  0  0  0  0  0  0  0  0  0
   -1.7597  -14.6827    0.0000 O   0  0  0  0  0  0  0  0  0  0  0  0
   -2.4741  -14.2702    0.0000 C   0  0  0  0  0  0  0  0  0  0  0  0
   -1.7597  -17.1577    0.0000 Br  0  0  0  0  0  0  0  0  0  0  0  0
   -0.3307  -17.9827    0.0000 O   0  0  0  0  0  0  0  0  0  0  0  0
    1.0982  -17.1577    0.0000 Br  0  0  0  0  0  0  0  0  0  0  0  0
    1.0982   -8.0827    0.0000 C   0  0  0  0  0  0  0  0  0  0  0  0
    1.0982   -7.2577    0.0000 C   0  0  0  0  0  0  0  0  0  0  0  0
    1.8127   -8.4952    0.0000 O   0  0  0  0  0  0  0  0  0  0  0  0
 12 14  2  3
  1  7  1  0
 14 15  1  0
  3  4  1  0
 15 16  2  0
  4  8  1  0
 16 17  1  0
 17 18  2  0
  8  9  2  3
 18 19  1  0
  4  5  2  0
 19 20  2  0
 20 15  1  0
  9 10  1  0
 12 21  1  0
  2  3  2  0
 21 22  1  0
 10 11  1  0
 19 23  1  0
  5  6  1  0
 18 24  1  0
 11 12  1  0
 17 25  1  0
  6  1  2  0
  7 26  1  0
 11 13  2  0
 26 27  1  0
  1  2  1  0
 26 28  2  0
M  END
>  <Classification>  (122) 
0

>  <pchembl>  (122) 
4.63

>  <InChI_steorem>  (122) 
InChI=1S/C20H17Br2NO5/c1-12(24)28-15-5-3-13(4-6-15)7-8-23-20(26)18(27-2)11-14-9-16(21)19(25)17(22)10-14/h3-11,25H,1-2H3,(H,23,26)

>  <source>  (122) 
ChEMBL25

>  <source_id>  (122) 
25

>  <optional_reference>  (122) 
10.1016/j.bmcl.2010.01.016

>  <optional_origin>  (122) 
None

>  <target>  (122) 
BCRP

$$$$

     RDKit          2D

 33 36  0  0  0  0  0  0  0  0999 V2000
    2.3363   -5.0955    0.0000 O   0  0  0  0  0  0  0  0  0  0  0  0
    2.3474   -4.2706    0.0000 C   0  0  0  0  0  0  0  0  0  0  0  0
    1.6385   -3.8485    0.0000 C   0  0  0  0  0  0  0  0  0  0  0  0
    0.9185   -4.2514    0.0000 O   0  0  0  0  0  0  0  0  0  0  0  0
    1.6495   -3.0235    0.0000 C   0  0  0  0  0  0  0  0  0  0  0  0
    0.9407   -2.6015    0.0000 O   0  0  0  0  0  0  0  0  0  0  0  0
    2.3695   -2.6207    0.0000 C   0  0  0  0  0  0  0  0  0  0  0  0
    2.3806   -1.7958    0.0000 O   0  0  0  0  0  0  0  0  0  0  0  0
    3.0784   -3.0427    0.0000 C   0  0  0  0  0  0  0  0  0  0  0  0
    3.0673   -3.8677    0.0000 O   0  0  0  0  0  0  0  0  0  0  0  0
    3.7983   -2.6398    0.0000 C   0  0  0  0  0  0  0  0  0  0  0  0
    3.8094   -1.8149    0.0000 O   0  0  0  0  0  0  0  0  0  0  0  0
    4.5072   -3.0619    0.0000 O   0  0  0  0  0  0  0  0  0  0  0  0
    5.9077   -5.5121    0.0000 C   0  0  0  0  0  0  0  0  0  0  0  0
    5.9077   -6.3370    0.0000 C   0  0  0  0  0  0  0  0  0  0  0  0
    5.1931   -6.7496    0.0000 C   0  0  0  0  0  0  0  0  0  0  0  0
    5.1931   -7.5746    0.0000 O   0  0  0  0  0  0  0  0  0  0  0  0
    4.4786   -6.3370    0.0000 C   0  0  0  0  0  0  0  0  0  0  0  0
    3.7642   -6.7496    0.0000 C   0  0  0  0  0  0  0  0  0  0  0  0
    3.0497   -6.3370    0.0000 C   0  0  0  0  0  0  0  0  0  0  0  0
    3.0497   -5.5121    0.0000 C   0  0  0  0  0  0  0  0  0  0  0  0
    3.7642   -5.0995    0.0000 C   0  0  0  0  0  0  0  0  0  0  0  0
    4.4786   -5.5121    0.0000 C   0  0  0  0  0  0  0  0  0  0  0  0
    5.1931   -5.0995    0.0000 O   0  0  0  0  0  0  0  0  0  0  0  0
    6.6221   -5.0995    0.0000 C   0  0  0  0  0  0  0  0  0  0  0  0
    6.6221   -4.2745    0.0000 C   0  0  0  0  0  0  0  0  0  0  0  0
    7.3366   -3.8620    0.0000 C   0  0  0  0  0  0  0  0  0  0  0  0
    8.0510   -4.2745    0.0000 C   0  0  0  0  0  0  0  0  0  0  0  0
    8.0510   -5.0995    0.0000 C   0  0  0  0  0  0  0  0  0  0  0  0
    7.3366   -5.5121    0.0000 C   0  0  0  0  0  0  0  0  0  0  0  0
    8.7656   -3.8620    0.0000 O   0  0  0  0  0  0  0  0  0  0  0  0
    2.3352   -6.7496    0.0000 O   0  0  0  0  0  0  0  0  0  0  0  0
    3.7642   -7.5746    0.0000 O   0  0  0  0  0  0  0  0  0  0  0  0
  2  1  1  0
  2  3  1  0
  3  4  1  0
  3  5  1  0
  5  6  1  0
  5  7  1  0
  7  8  1  0
  7  9  1  0
  9 10  1  0
  9 11  1  0
  2 10  1  0
 11 12  2  0
 11 13  1  0
 14 15  2  0
 15 16  1  0
 16 17  2  0
 16 18  1  0
 18 19  2  0
 19 20  1  0
 20 21  2  0
 21 22  1  0
 22 23  2  0
 18 23  1  0
 23 24  1  0
 14 24  1  0
 14 25  1  0
 25 26  2  0
 26 27  1  0
 27 28  2  0
 28 29  1  0
 29 30  2  0
 25 30  1  0
 28 31  1  0
 21  1  1  0
 20 32  1  0
 19 33  1  0
M  END
>  <Classification>  (123) 
1

>  <pchembl>  (123) 
5.0

>  <InChI_steorem>  (123) 
InChI=1S/C21H18O12/c22-8-3-1-7(2-4-8)10-5-9(23)13-11(31-10)6-12(14(24)15(13)25)32-21-18(28)16(26)17(27)19(33-21)20(29)30/h1-6,16-19,21-22,24-28H,(H,29,30)

>  <source>  (123) 
ChEMBL25

>  <source_id>  (123) 
25

>  <optional_reference>  (123) 
10.1124/dmd.112.047183

>  <optional_origin>  (123) 
None

>  <target>  (123) 
BCRP

$$$$

     RDKit          2D

 33 36  0  0  0  0  0  0  0  0999 V2000
   14.7187   -6.1690    0.0000 O   0  0  0  0  0  0  0  0  0  0  0  0
   13.9907   -5.7809    0.0000 C   0  0  0  0  0  0  0  0  0  0  0  0
   13.2906   -6.2174    0.0000 C   0  0  0  0  0  0  0  0  0  0  0  0
   13.3185   -7.0419    0.0000 O   0  0  0  0  0  0  0  0  0  0  0  0
   12.5626   -5.8292    0.0000 C   0  0  0  0  0  0  0  0  0  0  0  0
   11.8625   -6.2657    0.0000 O   0  0  0  0  0  0  0  0  0  0  0  0
   12.5347   -5.0047    0.0000 C   0  0  0  0  0  0  0  0  0  0  0  0
   11.8067   -4.6167    0.0000 O   0  0  0  0  0  0  0  0  0  0  0  0
   13.2348   -4.5683    0.0000 C   0  0  0  0  0  0  0  0  0  0  0  0
   13.9627   -4.9563    0.0000 O   0  0  0  0  0  0  0  0  0  0  0  0
   13.2068   -3.7438    0.0000 C   0  0  0  0  0  0  0  0  0  0  0  0
   12.4788   -3.3558    0.0000 O   0  0  0  0  0  0  0  0  0  0  0  0
   13.9069   -3.3073    0.0000 O   0  0  0  0  0  0  0  0  0  0  0  0
   14.7198   -4.5149    0.0000 O   0  0  0  0  0  0  0  0  0  0  0  0
   18.2910   -4.9314    0.0000 C   0  0  0  0  0  0  0  0  0  0  0  0
   18.2910   -5.7564    0.0000 C   0  0  0  0  0  0  0  0  0  0  0  0
   17.5765   -6.1690    0.0000 C   0  0  0  0  0  0  0  0  0  0  0  0
   17.5765   -6.9940    0.0000 O   0  0  0  0  0  0  0  0  0  0  0  0
   16.8621   -5.7564    0.0000 C   0  0  0  0  0  0  0  0  0  0  0  0
   16.1476   -6.1690    0.0000 C   0  0  0  0  0  0  0  0  0  0  0  0
   15.4332   -5.7564    0.0000 C   0  0  0  0  0  0  0  0  0  0  0  0
   15.4332   -4.9314    0.0000 C   0  0  0  0  0  0  0  0  0  0  0  0
   16.1476   -4.5190    0.0000 C   0  0  0  0  0  0  0  0  0  0  0  0
   16.8621   -4.9314    0.0000 C   0  0  0  0  0  0  0  0  0  0  0  0
   17.5765   -4.5190    0.0000 O   0  0  0  0  0  0  0  0  0  0  0  0
   19.0054   -4.5190    0.0000 C   0  0  0  0  0  0  0  0  0  0  0  0
   19.0054   -3.6940    0.0000 C   0  0  0  0  0  0  0  0  0  0  0  0
   19.7199   -3.2815    0.0000 C   0  0  0  0  0  0  0  0  0  0  0  0
   20.4343   -3.6940    0.0000 C   0  0  0  0  0  0  0  0  0  0  0  0
   20.4343   -4.5190    0.0000 C   0  0  0  0  0  0  0  0  0  0  0  0
   19.7199   -4.9314    0.0000 C   0  0  0  0  0  0  0  0  0  0  0  0
   21.1488   -3.2815    0.0000 O   0  0  0  0  0  0  0  0  0  0  0  0
   16.1476   -6.9940    0.0000 O   0  0  0  0  0  0  0  0  0  0  0  0
  2  1  1  0
  2  3  1  0
  3  4  1  0
  3  5  1  0
  5  6  1  0
  5  7  1  0
  7  8  1  0
  7  9  1  0
  9 10  1  0
  9 11  1  0
  2 10  1  0
 11 12  2  0
 11 13  1  0
 15 16  2  0
 16 17  1  0
 17 18  2  0
 17 19  1  0
 19 20  2  0
 20 21  1  0
 21 22  2  0
 22 23  1  0
 23 24  2  0
 19 24  1  0
 24 25  1  0
 15 25  1  0
 15 26  1  0
 26 27  2  0
 27 28  1  0
 28 29  2  0
 29 30  1  0
 30 31  2  0
 26 31  1  0
 29 32  1  0
 22 14  1  0
 21  1  1  0
 20 33  1  0
M  END
>  <Classification>  (124) 
0

>  <pchembl>  (124) 
4.7

>  <InChI_steorem>  (124) 
InChI=1S/C21H18O12/c22-8-3-1-7(2-4-8)11-5-9(23)13-12(31-11)6-10(24)18(14(13)25)32-21-17(28)15(26)16(27)19(33-21)20(29)30/h1-6,15-17,19,21-22,24-28H,(H,29,30)

>  <source>  (124) 
ChEMBL25

>  <source_id>  (124) 
25

>  <optional_reference>  (124) 
10.1124/dmd.112.047183

>  <optional_origin>  (124) 
None

>  <target>  (124) 
BCRP

$$$$

     RDKit          2D

 24 26  0  0  0  0  0  0  0  0999 V2000
    5.3545  -15.9583    0.0000 C   0  0  0  0  0  0  0  0  0  0  0  0
    5.5679  -16.7543    0.0000 C   0  0  0  0  0  0  0  0  0  0  0  0
    6.3665  -16.9660    0.0000 C   0  0  0  0  0  0  0  0  0  0  0  0
    5.9307  -15.3741    0.0000 C   0  0  0  0  0  0  0  0  0  0  0  0
    6.7288  -15.5841    0.0000 C   0  0  0  0  0  0  0  0  0  0  0  0
    6.9481  -16.3831    0.0000 C   0  0  0  0  0  0  0  0  0  0  0  0
    7.7788  -16.4171    0.0000 N   0  0  0  0  0  0  0  0  0  0  0  0
    8.0693  -15.6395    0.0000 C   0  0  0  0  0  0  0  0  0  0  0  0
    7.4187  -15.1238    0.0000 C   0  0  0  0  0  0  0  0  0  0  0  0
    8.2350  -17.1044    0.0000 C   0  0  0  0  0  0  0  0  0  0  0  0
    7.4565  -14.3010    0.0000 C   0  0  0  0  0  0  0  0  0  0  0  0
    8.1852  -13.9201    0.0000 C   0  0  0  0  0  0  0  0  0  0  0  0
    6.7407  -13.8905    0.0000 O   0  0  0  0  0  0  0  0  0  0  0  0
    8.9008  -14.3305    0.0000 C   0  0  0  0  0  0  0  0  0  0  0  0
    9.6151  -13.9171    0.0000 C   0  0  0  0  0  0  0  0  0  0  0  0
   10.3342  -14.3517    0.0000 C   0  0  0  0  0  0  0  0  0  0  0  0
   11.0354  -13.8974    0.0000 C   0  0  0  0  0  0  0  0  0  0  0  0
   11.0240  -13.0731    0.0000 C   0  0  0  0  0  0  0  0  0  0  0  0
   10.3008  -12.6755    0.0000 C   0  0  0  0  0  0  0  0  0  0  0  0
    9.5978  -13.0987    0.0000 C   0  0  0  0  0  0  0  0  0  0  0  0
    8.8764  -12.7012    0.0000 O   0  0  0  0  0  0  0  0  0  0  0  0
    8.1712  -13.1271    0.0000 C   0  0  0  0  0  0  0  0  0  0  0  0
   10.3471  -15.1717    0.0000 O   0  0  0  0  0  0  0  0  0  0  0  0
   11.0668  -15.5724    0.0000 C   0  0  0  0  0  0  0  0  0  0  0  0
 12 14  2  3
  1  2  2  0
 14 15  1  0
  5  4  2  0
 15 16  2  0
  6  7  1  0
 16 17  1  0
  7  8  1  0
 17 18  2  0
  8  9  2  0
 18 19  1  0
  9  5  1  0
 19 20  2  0
 20 15  1  0
  4  1  1  0
  7 10  1  0
  5  6  1  0
  9 11  1  0
 11 12  1  0
  2  3  1  0
 21 22  1  0
 20 21  1  0
 11 13  2  0
  3  6  2  0
 23 24  1  0
 16 23  1  0
M  END
>  <Classification>  (125) 
1

>  <pchembl>  (125) 
6.57

>  <InChI_steorem>  (125) 
InChI=1S/C20H19NO3/c1-21-13-16(14-7-4-5-8-17(14)21)18(22)12-11-15-19(23-2)9-6-10-20(15)24-3/h4-13H,1-3H3

>  <source>  (125) 
ChEMBL25

>  <source_id>  (125) 
25

>  <optional_reference>  (125) 
10.1021/jm2016528

>  <optional_origin>  (125) 
None

>  <target>  (125) 
BCRP

$$$$

     RDKit          2D

 26 28  0  0  0  0  0  0  0  0999 V2000
    5.3545  -15.9583    0.0000 C   0  0  0  0  0  0  0  0  0  0  0  0
    5.5679  -16.7543    0.0000 C   0  0  0  0  0  0  0  0  0  0  0  0
    6.3665  -16.9660    0.0000 C   0  0  0  0  0  0  0  0  0  0  0  0
    5.9307  -15.3741    0.0000 C   0  0  0  0  0  0  0  0  0  0  0  0
    6.7288  -15.5841    0.0000 C   0  0  0  0  0  0  0  0  0  0  0  0
    6.9481  -16.3831    0.0000 C   0  0  0  0  0  0  0  0  0  0  0  0
    7.7788  -16.4171    0.0000 N   0  0  0  0  0  0  0  0  0  0  0  0
    8.0693  -15.6395    0.0000 C   0  0  0  0  0  0  0  0  0  0  0  0
    7.4187  -15.1238    0.0000 C   0  0  0  0  0  0  0  0  0  0  0  0
    8.2350  -17.1044    0.0000 C   0  0  0  0  0  0  0  0  0  0  0  0
    7.4565  -14.3010    0.0000 C   0  0  0  0  0  0  0  0  0  0  0  0
    8.1852  -13.9201    0.0000 C   0  0  0  0  0  0  0  0  0  0  0  0
    6.7407  -13.8905    0.0000 O   0  0  0  0  0  0  0  0  0  0  0  0
    8.9008  -14.3305    0.0000 C   0  0  0  0  0  0  0  0  0  0  0  0
    9.6151  -13.9171    0.0000 C   0  0  0  0  0  0  0  0  0  0  0  0
   10.3342  -14.3517    0.0000 C   0  0  0  0  0  0  0  0  0  0  0  0
   11.0354  -13.8974    0.0000 C   0  0  0  0  0  0  0  0  0  0  0  0
   11.0240  -13.0731    0.0000 C   0  0  0  0  0  0  0  0  0  0  0  0
   10.3008  -12.6755    0.0000 C   0  0  0  0  0  0  0  0  0  0  0  0
    9.5978  -13.0987    0.0000 C   0  0  0  0  0  0  0  0  0  0  0  0
    8.8764  -12.7012    0.0000 O   0  0  0  0  0  0  0  0  0  0  0  0
    8.1712  -13.1271    0.0000 C   0  0  0  0  0  0  0  0  0  0  0  0
   10.3471  -15.1717    0.0000 O   0  0  0  0  0  0  0  0  0  0  0  0
   11.0668  -15.5724    0.0000 C   0  0  0  0  0  0  0  0  0  0  0  0
   11.7279  -12.6528    0.0000 O   0  0  0  0  0  0  0  0  0  0  0  0
   11.7136  -11.8289    0.0000 C   0  0  0  0  0  0  0  0  0  0  0  0
 14 15  1  0
  5  4  1  0
 15 16  2  0
  6  7  1  0
 16 17  1  0
  7  8  1  0
 17 18  2  0
  8  9  2  0
 18 19  1  0
  9  5  1  0
 19 20  2  0
 20 15  1  0
  4  1  2  0
  7 10  1  0
  5  6  2  0
  9 11  1  0
 11 12  1  0
  2  3  2  0
 21 22  1  0
 20 21  1  0
 11 13  2  0
  3  6  1  0
 23 24  1  0
 16 23  1  0
 12 14  2  3
  1  2  1  0
 25 26  1  0
 18 25  1  0
M  END
>  <Classification>  (126) 
1

>  <pchembl>  (126) 
6.35

>  <InChI_steorem>  (126) 
InChI=1S/C21H21NO4/c1-22-13-17(15-7-5-6-8-18(15)22)19(23)10-9-16-20(25-3)11-14(24-2)12-21(16)26-4/h5-13H,1-4H3

>  <source>  (126) 
ChEMBL25

>  <source_id>  (126) 
25

>  <optional_reference>  (126) 
10.1021/jm2016528

>  <optional_origin>  (126) 
None

>  <target>  (126) 
BCRP

$$$$

     RDKit          2D

 28 30  0  0  0  0  0  0  0  0999 V2000
   -0.0623   -0.1850    0.0000 C   0  0  0  0  0  0  0  0  0  0  0  0
    0.6728    0.1895    0.0000 C   0  0  0  0  0  0  0  0  0  0  0  0
    1.3872   -0.2231    0.0000 C   0  0  0  0  0  0  0  0  0  0  0  0
    1.3871   -1.0481    0.0000 C   0  0  0  0  0  0  0  0  0  0  0  0
    2.1015   -1.4607    0.0000 C   0  0  0  0  0  0  0  0  0  0  0  0
    2.8161   -1.0483    0.0000 C   0  0  0  0  0  0  0  0  0  0  0  0
    2.8161   -0.2233    0.0000 C   0  0  0  0  0  0  0  0  0  0  0  0
    2.1017    0.1893    0.0000 C   0  0  0  0  0  0  0  0  0  0  0  0
    2.1018    1.0143    0.0000 O   0  0  0  0  0  0  0  0  0  0  0  0
    2.8163    1.4267    0.0000 C   0  0  0  0  0  0  0  0  0  0  0  0
    3.5305   -1.4608    0.0000 O   0  0  0  0  0  0  0  0  0  0  0  0
    4.2450   -1.0484    0.0000 C   0  0  0  0  0  0  0  0  0  0  0  0
    0.6726   -1.4605    0.0000 O   0  0  0  0  0  0  0  0  0  0  0  0
    0.6725   -2.2855    0.0000 C   0  0  0  0  0  0  0  0  0  0  0  0
   -2.4333   -1.0539    0.0000 N   0  0  0  0  0  0  0  0  0  0  0  0
   -1.6185   -0.9249    0.0000 C   0  0  0  0  0  0  0  0  0  0  0  0
   -1.4893   -0.1101    0.0000 C   0  0  0  0  0  0  0  0  0  0  0  0
   -2.2244    0.2645    0.0000 C   0  0  0  0  0  0  0  0  0  0  0  0
   -2.4378    1.0614    0.0000 C   0  0  0  0  0  0  0  0  0  0  0  0
   -3.2347    1.2750    0.0000 C   0  0  0  0  0  0  0  0  0  0  0  0
   -3.8181    0.6917    0.0000 C   0  0  0  0  0  0  0  0  0  0  0  0
   -3.6047   -0.1052    0.0000 C   0  0  0  0  0  0  0  0  0  0  0  0
   -2.8078   -0.3188    0.0000 C   0  0  0  0  0  0  0  0  0  0  0  0
   -2.8079   -1.7889    0.0000 C   0  0  0  0  0  0  0  0  0  0  0  0
   -3.4481    2.0719    0.0000 O   0  0  0  0  0  0  0  0  0  0  0  0
   -4.2450    2.2855    0.0000 C   0  0  0  0  0  0  0  0  0  0  0  0
   -0.7542    1.0894    0.0000 O   0  0  0  0  0  0  0  0  0  0  0  0
   -0.7542    0.2644    0.0000 C   0  0  0  0  0  0  0  0  0  0  0  0
 28  1  1  0
  1  2  2  3
  3  4  2  0
  4  5  1  0
  5  6  2  0
  6  7  1  0
  7  8  2  0
  3  8  1  0
  9 10  1  0
  8  9  1  0
 11 12  1  0
  6 11  1  0
 13 14  1  0
  4 13  1  0
  2  3  1  0
 15 16  1  0
 16 17  2  0
 17 18  1  0
 18 19  2  0
 19 20  1  0
 20 21  2  0
 21 22  1  0
 22 23  2  0
 15 23  1  0
 18 23  1  0
 15 24  1  0
 25 26  1  0
 20 25  1  0
 28 17  1  0
 28 27  2  0
M  END
>  <Classification>  (127) 
1

>  <pchembl>  (127) 
6.46

>  <InChI_steorem>  (127) 
InChI=1S/C22H23NO5/c1-23-13-18(17-10-14(25-2)6-8-19(17)23)20(24)9-7-16-21(27-4)11-15(26-3)12-22(16)28-5/h6-13H,1-5H3

>  <source>  (127) 
ChEMBL25

>  <source_id>  (127) 
25

>  <optional_reference>  (127) 
10.1021/jm2016528

>  <optional_origin>  (127) 
None

>  <target>  (127) 
BCRP

$$$$

     RDKit          2D

 20 21  0  0  0  0  0  0  0  0999 V2000
    4.9372   -1.3609    0.0000 C   0  0  0  0  0  0  0  0  0  0  0  0
    3.8999   -0.7576    0.0000 C   0  0  0  0  0  0  0  0  0  0  0  0
    2.5973   -1.5031    0.0000 C   0  0  0  0  0  0  0  0  0  0  0  0
    1.2990   -0.7500    0.0000 C   0  0  0  0  0  0  0  0  0  0  0  0
    1.2990    0.7500    0.0000 C   0  0  0  0  0  0  0  0  0  0  0  0
    0.0000    1.5000    0.0000 C   0  0  0  0  0  0  0  0  0  0  0  0
   -1.2990    0.7500    0.0000 C   0  0  0  0  0  0  0  0  0  0  0  0
   -2.3383    1.3500    0.0000 O   0  0  0  0  0  0  0  0  0  0  0  0
   -1.2990   -0.7500    0.0000 C   0  0  0  0  0  0  0  0  0  0  0  0
    0.0000   -1.5000    0.0000 C   0  0  0  0  0  0  0  0  0  0  0  0
    2.5951   -3.0039    0.0000 C   0  0  0  0  0  0  0  0  0  0  0  0
    3.8933   -3.7570    0.0000 C   0  0  0  0  0  0  0  0  0  0  0  0
    3.8934   -5.2570    0.0000 C   0  0  0  0  0  0  0  0  0  0  0  0
    5.1924   -6.0070    0.0000 C   0  0  0  0  0  0  0  0  0  0  0  0
    6.4915   -5.2571    0.0000 C   0  0  0  0  0  0  0  0  0  0  0  0
    7.5307   -5.8571    0.0000 O   0  0  0  0  0  0  0  0  0  0  0  0
    6.4915   -3.7571    0.0000 C   0  0  0  0  0  0  0  0  0  0  0  0
    5.1925   -3.0070    0.0000 C   0  0  0  0  0  0  0  0  0  0  0  0
    1.2925   -3.7494    0.0000 C   0  0  0  0  0  0  0  0  0  0  0  0
    0.2552   -3.1461    0.0000 C   0  0  0  0  0  0  0  0  0  0  0  0
  2  1  1  0
  3  2  1  0
  4  3  1  0
 11  3  2  3
  5  4  2  0
 10  4  1  0
  5  6  1  0
  6  7  2  0
  7  8  1  0
  7  9  1  0
  9 10  2  0
 12 11  1  0
 11 19  1  0
 13 12  2  0
 18 12  1  0
 14 13  1  0
 15 14  2  0
 15 16  1  0
 17 15  1  0
 18 17  2  0
 19 20  1  0
M  END
>  <Classification>  (128) 
1

>  <pchembl>  (128) 
6.3

>  <InChI_steorem>  (128) 
InChI=1S/C18H20O2/c1-3-17(13-5-9-15(19)10-6-13)18(4-2)14-7-11-16(20)12-8-14/h5-12,19-20H,3-4H2,1-2H3

>  <source>  (128) 
ChEMBL25

>  <source_id>  (128) 
25

>  <optional_reference>  (128) 
None

>  <optional_origin>  (128) 
None

>  <target>  (128) 
BCRP

$$$$

     RDKit          2D

 50 53  0  0  0  0  0  0  0  0999 V2000
   -7.6913    6.1464    0.0000 N   0  0  0  0  0  0  0  0  0  0  0  0
   -5.1920    1.5249    0.0000 C   0  0  0  0  0  0  0  0  0  0  0  0
   -7.2212    7.5708    0.0000 C   0  0  0  0  0  0  0  0  0  0  0  0
   -3.8946    0.7703    0.0000 N   0  0  0  0  0  0  0  0  0  0  0  0
   -2.6010   -1.4850    0.0000 C   0  0  0  0  0  0  0  0  0  0  0  0
   -6.4817    5.2810    0.0000 C   0  0  0  0  0  0  0  0  0  0  0  0
   -5.7213    7.5640    0.0000 S   0  0  0  0  0  0  0  0  0  0  0  0
   -3.8984   -0.7305    0.0000 C   0  0  0  0  0  0  0  0  0  0  0  0
    3.9044   -0.7576    0.0000 C   0  0  0  0  0  0  0  0  0  0  0  0
   -5.1882    3.0257    0.0000 N   0  0  0  0  0  0  0  0  0  0  0  0
   -2.6048   -2.9858    0.0000 N   0  0  0  0  0  0  0  0  0  0  0  0
    4.4757    5.2776    0.0000 N   0  0  0  0  0  0  0  0  0  0  0  0
    2.6018   -1.5031    0.0000 N   0  0  0  0  0  0  0  0  0  0  0  0
    5.2203    2.9895    0.0000 C   0  0  0  0  0  0  0  0  0  0  0  0
   -5.2643    6.1353    0.0000 C   0  0  0  0  0  0  0  0  0  0  0  0
    2.5951   -3.0039    0.0000 C   0  0  0  0  0  0  0  0  0  0  0  0
    6.4358    3.8464    0.0000 S   0  0  0  0  0  0  0  0  0  0  0  0
    5.9757    5.2741    0.0000 C   0  0  0  0  0  0  0  0  0  0  0  0
   -6.4855    3.7802    0.0000 C   0  0  0  0  0  0  0  0  0  0  0  0
   -0.0048   -2.9949    0.0000 C   0  0  0  0  0  0  0  0  0  0  0  0
   -1.3074   -3.7403    0.0000 C   0  0  0  0  0  0  0  0  0  0  0  0
    4.0088    3.8522    0.0000 C   0  0  0  0  0  0  0  0  0  0  0  0
    1.2925   -3.7494    0.0000 C   0  0  0  0  0  0  0  0  0  0  0  0
   -6.2329    0.9278    0.0000 O   0  0  0  0  0  0  0  0  0  0  0  0
   -1.5601   -0.8880    0.0000 O   0  0  0  0  0  0  0  0  0  0  0  0
    4.9411   -1.3619    0.0000 O   0  0  0  0  0  0  0  0  0  0  0  0
    3.8902   -3.7623    0.0000 C   0  0  0  0  0  0  0  0  0  0  0  0
    3.9110    0.7432    0.0000 O   0  0  0  0  0  0  0  0  0  0  0  0
   -8.0938    8.7888    0.0000 C   0  0  0  0  0  0  0  0  0  0  0  0
    5.2136    1.4886    0.0000 C   0  0  0  0  0  0  0  0  0  0  0  0
   -1.3157   -5.2412    0.0000 C   0  0  0  0  0  0  0  0  0  0  0  0
   -5.2018   -1.4745    0.0000 C   0  0  0  0  0  0  0  0  0  0  0  0
    3.8819   -5.2632    0.0000 C   0  0  0  0  0  0  0  0  0  0  0  0
    1.2884   -4.9494    0.0000 O   0  0  0  0  0  0  0  0  0  0  0  0
   -2.6192   -5.9852    0.0000 C   0  0  0  0  0  0  0  0  0  0  0  0
   -4.1472    3.6227    0.0000 C   0  0  0  0  0  0  0  0  0  0  0  0
   -7.5991    9.8821    0.0000 C   0  0  0  0  0  0  0  0  0  0  0  0
   -9.2880    8.6709    0.0000 C   0  0  0  0  0  0  0  0  0  0  0  0
   -6.2385   -0.8701    0.0000 C   0  0  0  0  0  0  0  0  0  0  0  0
   -5.2073   -2.6745    0.0000 C   0  0  0  0  0  0  0  0  0  0  0  0
    5.1752   -6.0230    0.0000 C   0  0  0  0  0  0  0  0  0  0  0  0
    2.5772   -6.0033    0.0000 C   0  0  0  0  0  0  0  0  0  0  0  0
   -2.6297   -7.4852    0.0000 C   0  0  0  0  0  0  0  0  0  0  0  0
   -3.9131   -5.2262    0.0000 C   0  0  0  0  0  0  0  0  0  0  0  0
   -5.2173   -5.9672    0.0000 C   0  0  0  0  0  0  0  0  0  0  0  0
    5.1638   -7.5230    0.0000 C   0  0  0  0  0  0  0  0  0  0  0  0
    2.5658   -7.5032    0.0000 C   0  0  0  0  0  0  0  0  0  0  0  0
   -3.9339   -8.2261    0.0000 C   0  0  0  0  0  0  0  0  0  0  0  0
   -5.2277   -7.4672    0.0000 C   0  0  0  0  0  0  0  0  0  0  0  0
    3.8591   -8.2631    0.0000 C   0  0  0  0  0  0  0  0  0  0  0  0
  2 10  1  0
  3  1  2  0
  4  2  1  0
  5  8  1  0
  6  1  1  0
  7  3  1  0
  8  4  1  0
  9 13  1  0
 10 19  1  0
 11  5  1  0
 12 22  1  0
 13 16  1  0
 14 30  1  0
 15  6  2  0
 16 23  1  0
 17 14  1  0
 18 17  1  0
 19  6  1  0
 20 21  1  0
 21 11  1  0
 22 14  2  0
 23 20  1  0
 24  2  2  0
 25  5  2  0
 26  9  2  0
 16 27  1  0
 28  9  1  0
 29  3  1  0
 30 28  1  0
 31 21  1  0
 32  8  1  0
 33 27  1  0
 23 34  1  0
 35 31  1  0
 36 10  1  0
 37 29  1  0
 38 29  1  0
 39 32  1  0
 40 32  1  0
 41 33  2  0
 42 33  1  0
 43 35  2  0
 44 35  1  0
 45 44  2  0
 46 41  1  0
 47 42  2  0
 48 43  1  0
 49 45  1  0
 50 47  1  0
  7 15  1  0
 48 49  2  0
 46 50  2  0
 18 12  2  0
M  END
>  <Classification>  (129) 
0

>  <pchembl>  (129) 
4.71

>  <InChI_steorem>  (129) 
InChI=1S/C37H48N6O5S2/c1-24(2)33(42-36(46)43(5)20-29-22-49-35(40-29)25(3)4)34(45)39-28(16-26-12-8-6-9-13-26)18-32(44)31(17-27-14-10-7-11-15-27)41-37(47)48-21-30-19-38-23-50-30/h6-15,19,22-25,28,31-33,44H,16-18,20-21H2,1-5H3,(H,39,45)(H,41,47)(H,42,46)

>  <source>  (129) 
ChEMBL25

>  <source_id>  (129) 
25

>  <optional_reference>  (129) 
10.1124/jpet.104.065342

>  <optional_origin>  (129) 
None

>  <target>  (129) 
BCRP

$$$$

     RDKit          2D

 49 53  0  0  0  0  0  0  0  0999 V2000
    3.9112   12.0085    0.0000 C   0  0  0  0  0  0  0  0  0  0  0  0
    5.2100   12.7535    0.0000 C   0  0  0  0  0  0  0  0  0  0  0  0
    6.5135   11.9855    0.0000 C   0  0  0  0  0  0  0  0  0  0  0  0
    3.9159   10.4957    0.0000 C   0  0  0  0  0  0  0  0  0  0  0  0
    5.2103    9.7435    0.0000 C   0  0  0  0  0  0  0  0  0  0  0  0
    6.5091   10.4885    0.0000 C   0  0  0  0  0  0  0  0  0  0  0  0
    7.8036    9.7364    0.0000 C   0  0  0  0  0  0  0  0  0  0  0  0
    7.7992    8.2393    0.0000 C   0  0  0  0  0  0  0  0  0  0  0  0
    6.5003    7.4944    0.0000 C   0  0  0  0  0  0  0  0  0  0  0  0
    5.2059    8.2465    0.0000 N   0  0  0  0  0  0  0  0  0  0  0  0
    6.4992    5.9935    0.0000 C   0  0  0  0  0  0  0  0  0  0  0  0
    5.4593    5.3947    0.0000 O   0  0  0  0  0  0  0  0  0  0  0  0
    7.7966    3.7404    0.0000 C   0  0  0  0  0  0  0  0  0  0  0  0
    9.0953    2.9882    0.0000 C   0  0  0  0  0  0  0  0  0  0  0  0
    6.4945    2.9941    0.0000 C   0  0  0  0  0  0  0  0  0  0  0  0
    5.1967    3.7478    0.0000 C   0  0  0  0  0  0  0  0  0  0  0  0
    4.1555    3.1511    0.0000 O   0  0  0  0  0  0  0  0  0  0  0  0
   10.1352    3.5870    0.0000 O   0  0  0  0  0  0  0  0  0  0  0  0
   10.3928    0.7351    0.0000 C   0  0  0  0  0  0  0  0  0  0  0  0
   11.6941    1.4828    0.0000 C   0  0  0  0  0  0  0  0  0  0  0  0
   10.3871   -0.7658    0.0000 C   0  0  0  0  0  0  0  0  0  0  0  0
    9.0850   -1.5121    0.0000 C   0  0  0  0  0  0  0  0  0  0  0  0
    9.0771   -3.0121    0.0000 C   0  0  0  0  0  0  0  0  0  0  0  0
    7.7742   -3.7553    0.0000 C   0  0  0  0  0  0  0  0  0  0  0  0
    6.4791   -2.9985    0.0000 C   0  0  0  0  0  0  0  0  0  0  0  0
    6.4869   -1.4986    0.0000 C   0  0  0  0  0  0  0  0  0  0  0  0
    7.7898   -0.7553    0.0000 C   0  0  0  0  0  0  0  0  0  0  0  0
   12.9928    0.7305    0.0000 C   0  0  0  0  0  0  0  0  0  0  0  0
   14.2941    1.4783    0.0000 N   0  0  0  0  0  0  0  0  0  0  0  0
   15.5911    0.7298    0.0000 C   0  0  0  0  0  0  0  0  0  0  0  0
   16.8960    1.4954    0.0000 C   0  0  0  0  0  0  0  0  0  0  0  0
   14.3011    2.9899    0.0000 C   0  0  0  0  0  0  0  0  0  0  0  0
   15.5968    3.7397    0.0000 C   0  0  0  0  0  0  0  0  0  0  0  0
   16.8943    2.9924    0.0000 C   0  0  0  0  0  0  0  0  0  0  0  0
   18.1901    3.7422    0.0000 C   0  0  0  0  0  0  0  0  0  0  0  0
   18.1883    5.2393    0.0000 C   0  0  0  0  0  0  0  0  0  0  0  0
   16.8909    5.9866    0.0000 C   0  0  0  0  0  0  0  0  0  0  0  0
   15.5951    5.2368    0.0000 C   0  0  0  0  0  0  0  0  0  0  0  0
   15.5894   -0.7709    0.0000 C   0  0  0  0  0  0  0  0  0  0  0  0
   16.6280   -1.3719    0.0000 O   0  0  0  0  0  0  0  0  0  0  0  0
   14.2873   -3.0214    0.0000 C   0  0  0  0  0  0  0  0  0  0  0  0
   13.2477   -3.6207    0.0000 C   0  0  0  0  0  0  0  0  0  0  0  0
   14.2864   -4.2214    0.0000 C   0  0  0  0  0  0  0  0  0  0  0  0
   15.3260   -3.6223    0.0000 C   0  0  0  0  0  0  0  0  0  0  0  0
    7.7978    5.2412    0.0000 N   0  0  0  0  0  0  0  0  0  0  0  0
    5.2001    4.9478    0.0000 N   0  0  0  0  0  0  0  0  0  0  0  0
    9.0941    1.4873    0.0000 N   0  0  0  0  0  0  0  0  0  0  0  0
   11.6962    2.6828    0.0000 O   0  0  0  0  0  0  0  0  0  0  0  0
   14.2892   -1.5205    0.0000 N   0  0  0  0  0  0  0  0  0  0  0  0
  9 10  2  0
 10  5  1  0
  9 11  1  0
 11 12  2  0
 13 14  1  0
 13 15  1  0
 15 16  1  0
 16 17  2  0
 14 18  2  0
 19 20  1  0
 19 21  1  0
 21 22  1  0
 22 23  2  0
 23 24  1  0
 24 25  2  0
 25 26  1  0
 26 27  2  0
 27 22  1  0
 20 28  1  0
 28 29  1  0
 29 30  1  0
 29 32  1  0
 30 31  1  0
 31 34  1  0
 33 32  1  0
 33 34  1  0
 33 38  1  0
 34 35  1  0
 35 36  1  0
 36 37  1  0
 37 38  1  0
 30 39  1  0
 39 40  2  0
 41 42  1  0
 41 43  1  0
 41 44  1  0
  1  2  2  0
  2  3  1  0
  3  6  2  0
  5  4  2  0
 11 45  1  0
 45 13  1  0
 14 47  1  0
 47 19  1  0
 20 48  1  0
 16 46  1  0
 39 49  1  0
 49 41  1  0
  4  1  1  0
  5  6  1  0
  6  7  1  0
  7  8  2  0
  8  9  1  0
M  END
>  <Classification>  (130) 
0

>  <pchembl>  (130) 
4.71

>  <InChI_steorem>  (130) 
InChI=1S/C38H50N6O5/c1-38(2,3)43-37(49)32-20-26-14-7-8-15-27(26)22-44(32)23-33(45)30(19-24-11-5-4-6-12-24)41-36(48)31(21-34(39)46)42-35(47)29-18-17-25-13-9-10-16-28(25)40-29/h4-6,9-13,16-18,26-27,30-33,45H,7-8,14-15,19-23H2,1-3H3,(H2,39,46)(H,41,48)(H,42,47)(H,43,49)

>  <source>  (130) 
ChEMBL25

>  <source_id>  (130) 
25

>  <optional_reference>  (130) 
10.1124/jpet.104.065342

>  <optional_origin>  (130) 
None

>  <target>  (130) 
BCRP

$$$$

     RDKit          2D

 20 21  0  0  0  0  0  0  0  0999 V2000
   -4.3431  -11.6791    0.0000 C   0  0  0  0  0  0  0  0  0  0  0  0
   -4.3443  -12.5065    0.0000 C   0  0  0  0  0  0  0  0  0  0  0  0
   -3.6294  -12.9194    0.0000 C   0  0  0  0  0  0  0  0  0  0  0  0
   -2.9130  -12.5060    0.0000 C   0  0  0  0  0  0  0  0  0  0  0  0
   -2.9159  -11.6755    0.0000 C   0  0  0  0  0  0  0  0  0  0  0  0
   -3.6312  -11.2664    0.0000 C   0  0  0  0  0  0  0  0  0  0  0  0
   -5.0577  -11.2668    0.0000 O   0  0  0  0  0  0  0  0  0  0  0  0
   -2.2029  -11.2603    0.0000 O   0  0  0  0  0  0  0  0  0  0  0  0
   -2.1979  -12.9174    0.0000 C   0  0  0  0  0  0  0  0  0  0  0  0
   -2.1966  -13.7424    0.0000 O   0  0  0  0  0  0  0  0  0  0  0  0
   -1.4841  -12.5038    0.0000 C   0  0  0  0  0  0  0  0  0  0  0  0
   -0.7689  -12.9152    0.0000 C   0  0  0  0  0  0  0  0  0  0  0  0
   -0.0551  -12.5015    0.0000 C   0  0  0  0  0  0  0  0  0  0  0  0
    0.6587  -12.9143    0.0000 C   0  0  0  0  0  0  0  0  0  0  0  0
    1.3720  -12.5013    0.0000 C   0  0  0  0  0  0  0  0  0  0  0  0
    1.3712  -11.6755    0.0000 C   0  0  0  0  0  0  0  0  0  0  0  0
    0.6510  -11.2643    0.0000 C   0  0  0  0  0  0  0  0  0  0  0  0
   -0.0594  -11.6795    0.0000 C   0  0  0  0  0  0  0  0  0  0  0  0
    2.0844  -11.2609    0.0000 O   0  0  0  0  0  0  0  0  0  0  0  0
    2.8001  -11.6713    0.0000 C   0  0  0  0  0  0  0  0  0  0  0  0
  9 10  2  0
  2  3  2  0
  9 11  1  0
  5  6  1  0
 11 12  2  3
  6  1  2  0
 12 13  1  0
  1  2  1  0
 13 14  2  0
  1  7  1  0
 14 15  1  0
  3  4  1  0
 15 16  2  0
  5  8  1  0
 16 17  1  0
 17 18  2  0
 18 13  1  0
  4  9  1  0
 16 19  1  0
  4  5  2  0
 19 20  1  0
M  END
>  <Classification>  (131) 
0

>  <pchembl>  (131) 
4.48

>  <InChI_steorem>  (131) 
InChI=1S/C16H14O4/c1-20-13-6-2-11(3-7-13)4-9-15(18)14-8-5-12(17)10-16(14)19/h2-10,17,19H,1H3

>  <source>  (131) 
ChEMBL25

>  <source_id>  (131) 
25

>  <optional_reference>  (131) 
10.1016/j.bmc.2011.10.074

>  <optional_origin>  (131) 
None

>  <target>  (131) 
BCRP

$$$$

     RDKit          2D

 21 23  0  0  0  0  0  0  0  0999 V2000
   -0.9742  -19.2262    0.0000 C   0  0  0  0  0  0  0  0  0  0  0  0
   -0.9820  -20.0547    0.0000 C   0  0  0  0  0  0  0  0  0  0  0  0
   -0.2707  -20.4723    0.0000 C   0  0  0  0  0  0  0  0  0  0  0  0
   -0.2615  -18.8180    0.0000 C   0  0  0  0  0  0  0  0  0  0  0  0
    0.4507  -19.2341    0.0000 C   0  0  0  0  0  0  0  0  0  0  0  0
    0.4498  -20.0671    0.0000 C   0  0  0  0  0  0  0  0  0  0  0  0
    1.1634  -20.4865    0.0000 C   0  0  0  0  0  0  0  0  0  0  0  0
    1.8891  -20.0717    0.0000 C   0  0  0  0  0  0  0  0  0  0  0  0
    1.8942  -19.2386    0.0000 C   0  0  0  0  0  0  0  0  0  0  0  0
    1.1735  -18.8164    0.0000 O   0  0  0  0  0  0  0  0  0  0  0  0
    1.1609  -21.3115    0.0000 O   0  0  0  0  0  0  0  0  0  0  0  0
    2.6090  -18.8316    0.0000 C   0  0  0  0  0  0  0  0  0  0  0  0
    3.3204  -19.2484    0.0000 C   0  0  0  0  0  0  0  0  0  0  0  0
    4.0386  -18.8424    0.0000 C   0  0  0  0  0  0  0  0  0  0  0  0
    4.0413  -18.0162    0.0000 C   0  0  0  0  0  0  0  0  0  0  0  0
    3.3252  -17.5985    0.0000 C   0  0  0  0  0  0  0  0  0  0  0  0
    2.6115  -18.0081    0.0000 C   0  0  0  0  0  0  0  0  0  0  0  0
   -1.6850  -18.8095    0.0000 O   0  0  0  0  0  0  0  0  0  0  0  0
   -1.6794  -17.9845    0.0000 C   0  0  0  0  0  0  0  0  0  0  0  0
    0.4314  -21.7168    0.0000 C   0  0  0  0  0  0  0  0  0  0  0  0
   -0.2789  -21.2972    0.0000 O   0  0  0  0  0  0  0  0  0  0  0  0
  2  3  2  0
  3  6  1  0
  5  4  1  0
  4  1  2  0
  5  6  2  0
  5 10  1  0
  6  7  1  0
  7  8  1  0
  8  9  1  0
  9 10  1  0
  7 11  2  0
  9 12  1  0
 12 13  2  0
 13 14  1  0
 14 15  2  0
 15 16  1  0
 16 17  2  0
 17 12  1  0
  1 18  1  0
 18 19  1  0
  1  2  1  0
  3 21  1  0
 21 20  1  0
M  END
>  <Classification>  (132) 
0

>  <pchembl>  (132) 
4.77

>  <InChI_steorem>  (132) 
InChI=1S/C17H16O4/c1-19-12-8-15(20-2)17-13(18)10-14(21-16(17)9-12)11-6-4-3-5-7-11/h3-9,14H,10H2,1-2H3

>  <source>  (132) 
ChEMBL25

>  <source_id>  (132) 
25

>  <optional_reference>  (132) 
10.1016/j.bmc.2010.12.043

>  <optional_origin>  (132) 
None

>  <target>  (132) 
BCRP

$$$$

     RDKit          2D

 44 49  0  0  0  0  0  0  0  0999 V2000
   -1.7429   -4.6672    0.0000 C   0  0  0  0  0  0  0  0  0  0  0  0
   -1.7440   -5.4967    0.0000 C   0  0  0  0  0  0  0  0  0  0  0  0
   -1.0268   -5.9127    0.0000 C   0  0  0  0  0  0  0  0  0  0  0  0
   -1.0286   -4.2556    0.0000 C   0  0  0  0  0  0  0  0  0  0  0  0
   -0.3109   -4.6637    0.0000 C   0  0  0  0  0  0  0  0  0  0  0  0
   -0.3113   -5.4930    0.0000 C   0  0  0  0  0  0  0  0  0  0  0  0
    0.4783   -5.7513    0.0000 N   0  0  0  0  0  0  0  0  0  0  0  0
    0.4780   -4.4103    0.0000 C   0  0  0  0  0  0  0  0  0  0  0  0
    0.9581   -5.0759    0.0000 C   0  0  0  0  0  0  0  0  0  0  0  0
    1.6252   -3.5765    0.0000 C   0  0  0  0  0  0  0  0  0  0  0  0
    0.8064   -3.6601    0.0000 C   0  0  0  0  0  0  0  0  0  0  0  0
    2.1094   -4.2422    0.0000 N   0  0  0  0  0  0  0  0  0  0  0  0
    1.7723   -4.9873    0.0000 C   0  0  0  0  0  0  0  0  0  0  0  0
    2.2491   -5.6468    0.0000 C   0  0  0  0  0  0  0  0  0  0  0  0
    2.9192   -4.1564    0.0000 C   0  0  0  0  0  0  0  0  0  0  0  0
    3.3941   -4.8218    0.0000 C   0  0  0  0  0  0  0  0  0  0  0  0
    3.0597   -5.5600    0.0000 C   0  0  0  0  0  0  0  0  0  0  0  0
    3.5333   -6.2191    0.0000 C   0  0  0  0  0  0  0  0  0  0  0  0
    4.3438   -6.1417    0.0000 C   0  0  0  0  0  0  0  0  0  0  0  0
    4.6779   -5.3996    0.0000 C   0  0  0  0  0  0  0  0  0  0  0  0
    4.2020   -4.7343    0.0000 C   0  0  0  0  0  0  0  0  0  0  0  0
    5.5050   -5.3899    0.0000 O   0  0  0  0  0  0  0  0  0  0  0  0
    5.9123   -4.6683    0.0000 C   0  0  0  0  0  0  0  0  0  0  0  0
    6.7393   -4.6588    0.0000 C   0  0  0  0  0  0  0  0  0  0  0  0
    5.4884   -3.9605    0.0000 O   0  0  0  0  0  0  0  0  0  0  0  0
    7.1544   -5.3731    0.0000 C   0  0  0  0  0  0  0  0  0  0  0  0
    7.9807   -5.3638    0.0000 C   0  0  0  0  0  0  0  0  0  0  0  0
    8.3888   -4.6417    0.0000 C   0  0  0  0  0  0  0  0  0  0  0  0
    7.9605   -3.9274    0.0000 C   0  0  0  0  0  0  0  0  0  0  0  0
    7.1356   -3.9402    0.0000 C   0  0  0  0  0  0  0  0  0  0  0  0
    8.3610   -3.2115    0.0000 O   0  0  0  0  0  0  0  0  0  0  0  0
    7.9387   -2.5010    0.0000 C   0  0  0  0  0  0  0  0  0  0  0  0
    9.2107   -4.6317    0.0000 O   0  0  0  0  0  0  0  0  0  0  0  0
    9.6128   -3.9096    0.0000 C   0  0  0  0  0  0  0  0  0  0  0  0
    8.4009   -6.0717    0.0000 O   0  0  0  0  0  0  0  0  0  0  0  0
    9.2279   -6.0625    0.0000 C   0  0  0  0  0  0  0  0  0  0  0  0
    4.8223   -6.8154    0.0000 O   0  0  0  0  0  0  0  0  0  0  0  0
    5.6455   -6.7356    0.0000 C   0  0  0  0  0  0  0  0  0  0  0  0
    3.1093   -6.9311    0.0000 C   0  0  0  0  0  0  0  0  0  0  0  0
    2.2823   -6.9214    0.0000 O   0  0  0  0  0  0  0  0  0  0  0  0
    3.5166   -7.6527    0.0000 O   0  0  0  0  0  0  0  0  0  0  0  0
    1.8625   -7.6333    0.0000 C   0  0  0  0  0  0  0  0  0  0  0  0
   -2.4592   -5.9080    0.0000 O   0  0  0  0  0  0  0  0  0  0  0  0
   -2.4599   -6.7350    0.0000 C   0  0  0  0  0  0  0  0  0  0  0  0
  5  6  1  0
 20 22  1  0
  8 11  1  0
 22 23  1  0
  9 13  1  0
 23 24  1  0
 12 10  1  0
 23 25  2  0
 10 11  1  0
 24 26  2  0
 12 13  1  0
 26 27  1  0
 27 28  2  0
  2  3  1  0
 28 29  1  0
  3  6  2  0
 29 30  2  0
 30 24  1  0
  8  5  1  0
 12 15  1  0
 31 32  1  0
 29 31  1  0
 13 14  1  0
 14 17  1  0
 33 34  1  0
 28 33  1  0
 16 15  1  0
 16 17  1  0
 35 36  1  0
 27 35  1  0
  6  7  1  0
  7  9  1  0
 19 37  1  0
  8  9  2  0
 37 38  1  0
  1  2  2  0
 18 39  1  0
  5  4  2  0
 39 40  1  0
  4  1  1  0
 39 41  2  0
 16 21  1  0
 40 42  1  0
 17 18  1  0
 18 19  1  0
 19 20  1  0
 20 21  1  0
 43 44  1  0
  2 43  1  0
M  END
>  <Classification>  (133) 
0

>  <pchembl>  (133) 
4.58

>  <InChI_steorem>  (133) 
InChI=1S/C33H40N2O9/c1-38-19-7-8-20-21-9-10-35-16-18-13-27(44-32(36)17-11-25(39-2)30(41-4)26(12-17)40-3)31(42-5)28(33(37)43-6)22(18)15-24(35)29(21)34-23(20)14-19/h7-8,11-12,14,18,22,24,27-28,31,34H,9-10,13,15-16H2,1-6H3

>  <source>  (133) 
ChEMBL25

>  <source_id>  (133) 
25

>  <optional_reference>  (133) 
10.1016/j.bmc.2008.07.034

>  <optional_origin>  (133) 
None

>  <target>  (133) 
BCRP

$$$$

     RDKit          2D

 30 32  0  0  0  0  0  0  0  0999 V2000
   -1.9487   -0.5160    0.0000 C   0  0  0  0  0  0  0  0  0  0  0  0
   -1.9487    0.3084    0.0000 C   0  0  0  0  0  0  0  0  0  0  0  0
   -2.6642    0.7248    0.0000 C   0  0  0  0  0  0  0  0  0  0  0  0
   -1.2292    0.7248    0.0000 C   0  0  0  0  0  0  0  0  0  0  0  0
   -1.2292    1.5492    0.0000 C   0  0  0  0  0  0  0  0  0  0  0  0
   -1.9487    1.9656    0.0000 C   0  0  0  0  0  0  0  0  0  0  0  0
   -1.9487    2.7901    0.0000 C   0  0  0  0  0  0  0  0  0  0  0  0
   -2.6642    3.2064    0.0000 C   0  0  0  0  0  0  0  0  0  0  0  0
   -1.2292    3.2064    0.0000 C   0  0  0  0  0  0  0  0  0  0  0  0
   -2.6628   -0.9283    0.0000 C   0  0  0  0  0  0  0  0  0  0  0  0
   -2.6628   -1.7527    0.0000 C   0  0  0  0  0  0  0  0  0  0  0  0
   -3.3783   -2.1651    0.0000 C   0  0  0  0  0  0  0  0  0  0  0  0
   -3.3795   -2.9919    0.0000 C   0  0  0  0  0  0  0  0  0  0  0  0
   -2.6651   -3.4045    0.0000 C   0  0  0  0  0  0  0  0  0  0  0  0
   -1.9520   -2.1615    0.0000 C   0  0  0  0  0  0  0  0  0  0  0  0
   -1.9486   -2.9894    0.0000 C   0  0  0  0  0  0  0  0  0  0  0  0
   -1.2338   -3.3981    0.0000 C   0  0  0  0  0  0  0  0  0  0  0  0
   -0.5179   -2.9835    0.0000 C   0  0  0  0  0  0  0  0  0  0  0  0
   -0.5213   -2.1556    0.0000 C   0  0  0  0  0  0  0  0  0  0  0  0
   -1.2406   -1.7423    0.0000 O   0  0  0  0  0  0  0  0  0  0  0  0
    0.1914   -1.7412    0.0000 C   0  0  0  0  0  0  0  0  0  0  0  0
    0.9056   -2.1536    0.0000 C   0  0  0  0  0  0  0  0  0  0  0  0
    1.6178   -1.7399    0.0000 C   0  0  0  0  0  0  0  0  0  0  0  0
    1.6157   -0.9146    0.0000 C   0  0  0  0  0  0  0  0  0  0  0  0
    0.8954   -0.5048    0.0000 C   0  0  0  0  0  0  0  0  0  0  0  0
    0.1862   -0.9209    0.0000 C   0  0  0  0  0  0  0  0  0  0  0  0
   -4.0924   -1.7531    0.0000 O   0  0  0  0  0  0  0  0  0  0  0  0
   -2.6646   -4.2290    0.0000 O   0  0  0  0  0  0  0  0  0  0  0  0
   -1.2316   -4.2226    0.0000 O   0  0  0  0  0  0  0  0  0  0  0  0
    2.3278   -0.4993    0.0000 O   0  0  0  0  0  0  0  0  0  0  0  0
 15 16  1  0
  5  6  1  0
  6  7  2  3
  7  8  1  0
  7  9  1  0
  1 10  1  0
 15 20  1  0
 16 17  1  0
 17 18  1  0
 18 19  1  0
 19 20  1  0
  1  2  2  3
 19 21  1  0
 10 11  1  0
 21 22  2  0
  2  3  1  0
 22 23  1  0
  2  4  1  0
 23 24  2  0
 12 13  2  0
 24 25  1  0
  4  5  1  0
 25 26  2  0
 26 21  1  0
 13 14  1  0
 12 27  1  0
 14 16  2  0
 14 28  1  0
 15 11  2  0
 17 29  2  0
 11 12  1  0
 24 30  1  0
M  END
>  <Classification>  (134) 
0

>  <pchembl>  (134) 
4.91

>  <InChI_steorem>  (134) 
InChI=1S/C25H28O5/c1-15(2)5-4-6-16(3)7-12-19-20(27)13-21(28)24-22(29)14-23(30-25(19)24)17-8-10-18(26)11-9-17/h5,7-11,13,23,26-28H,4,6,12,14H2,1-3H3

>  <source>  (134) 
ChEMBL25

>  <source_id>  (134) 
25

>  <optional_reference>  (134) 
10.1021/np100797y

>  <optional_origin>  (134) 
None

>  <target>  (134) 
BCRP

$$$$

     RDKit          2D

 20 21  0  0  0  0  0  0  0  0999 V2000
   -4.6264   -7.5541    0.0000 C   0  0  0  0  0  0  0  0  0  0  0  0
   -4.6276   -8.3815    0.0000 C   0  0  0  0  0  0  0  0  0  0  0  0
   -3.9128   -8.7944    0.0000 C   0  0  0  0  0  0  0  0  0  0  0  0
   -3.1963   -8.3810    0.0000 C   0  0  0  0  0  0  0  0  0  0  0  0
   -3.1992   -7.5505    0.0000 C   0  0  0  0  0  0  0  0  0  0  0  0
   -3.9146   -7.1414    0.0000 C   0  0  0  0  0  0  0  0  0  0  0  0
   -5.3410   -7.1418    0.0000 O   0  0  0  0  0  0  0  0  0  0  0  0
   -2.4863   -7.1353    0.0000 O   0  0  0  0  0  0  0  0  0  0  0  0
   -2.4812   -8.7924    0.0000 C   0  0  0  0  0  0  0  0  0  0  0  0
   -2.4799   -9.6174    0.0000 O   0  0  0  0  0  0  0  0  0  0  0  0
   -1.7674   -8.3788    0.0000 C   0  0  0  0  0  0  0  0  0  0  0  0
   -1.0523   -8.7902    0.0000 C   0  0  0  0  0  0  0  0  0  0  0  0
   -0.3385   -8.3765    0.0000 C   0  0  0  0  0  0  0  0  0  0  0  0
    0.3754   -8.7893    0.0000 C   0  0  0  0  0  0  0  0  0  0  0  0
    1.0887   -8.3763    0.0000 C   0  0  0  0  0  0  0  0  0  0  0  0
    1.0878   -7.5505    0.0000 C   0  0  0  0  0  0  0  0  0  0  0  0
    0.3677   -7.1393    0.0000 C   0  0  0  0  0  0  0  0  0  0  0  0
   -0.3427   -7.5545    0.0000 C   0  0  0  0  0  0  0  0  0  0  0  0
    0.3635   -6.3143    0.0000 O   0  0  0  0  0  0  0  0  0  0  0  0
    1.0759   -5.8981    0.0000 C   0  0  0  0  0  0  0  0  0  0  0  0
  9 10  2  0
  2  3  2  0
  9 11  1  0
  5  6  1  0
 11 12  2  3
  6  1  2  0
 12 13  1  0
  1  2  1  0
 13 14  2  0
  1  7  1  0
 14 15  1  0
  3  4  1  0
 15 16  2  0
  5  8  1  0
 16 17  1  0
 17 18  2  0
 18 13  1  0
  4  9  1  0
 17 19  1  0
  4  5  2  0
 19 20  1  0
M  END
>  <Classification>  (135) 
1

>  <pchembl>  (135) 
5.55

>  <InChI_steorem>  (135) 
InChI=1S/C16H14O4/c1-20-13-4-2-3-11(9-13)5-8-15(18)14-7-6-12(17)10-16(14)19/h2-10,17,19H,1H3

>  <source>  (135) 
ChEMBL25

>  <source_id>  (135) 
25

>  <optional_reference>  (135) 
10.1016/j.bmc.2011.10.074

>  <optional_origin>  (135) 
None

>  <target>  (135) 
BCRP

$$$$

     RDKit          2D

 22 23  0  0  0  0  0  0  0  0999 V2000
    3.8694   -8.6791    0.0000 C   0  0  0  0  0  0  0  0  0  0  0  0
    3.8682   -9.5065    0.0000 C   0  0  0  0  0  0  0  0  0  0  0  0
    4.5831   -9.9194    0.0000 C   0  0  0  0  0  0  0  0  0  0  0  0
    5.2995   -9.5060    0.0000 C   0  0  0  0  0  0  0  0  0  0  0  0
    5.2966   -8.6755    0.0000 C   0  0  0  0  0  0  0  0  0  0  0  0
    4.5813   -8.2664    0.0000 C   0  0  0  0  0  0  0  0  0  0  0  0
    3.1548   -8.2668    0.0000 O   0  0  0  0  0  0  0  0  0  0  0  0
    6.0096   -8.2603    0.0000 O   0  0  0  0  0  0  0  0  0  0  0  0
    6.0146   -9.9174    0.0000 C   0  0  0  0  0  0  0  0  0  0  0  0
    6.0159  -10.7424    0.0000 O   0  0  0  0  0  0  0  0  0  0  0  0
    6.7284   -9.5038    0.0000 C   0  0  0  0  0  0  0  0  0  0  0  0
    7.4436   -9.9152    0.0000 C   0  0  0  0  0  0  0  0  0  0  0  0
    8.1574   -9.5015    0.0000 C   0  0  0  0  0  0  0  0  0  0  0  0
    8.8712   -9.9143    0.0000 C   0  0  0  0  0  0  0  0  0  0  0  0
    9.5845   -9.5013    0.0000 C   0  0  0  0  0  0  0  0  0  0  0  0
    9.5837   -8.6755    0.0000 C   0  0  0  0  0  0  0  0  0  0  0  0
    8.8635   -8.2643    0.0000 C   0  0  0  0  0  0  0  0  0  0  0  0
    8.1531   -8.6795    0.0000 C   0  0  0  0  0  0  0  0  0  0  0  0
    8.8593   -7.4393    0.0000 O   0  0  0  0  0  0  0  0  0  0  0  0
   10.2969   -8.2609    0.0000 O   0  0  0  0  0  0  0  0  0  0  0  0
   11.0126   -8.6713    0.0000 C   0  0  0  0  0  0  0  0  0  0  0  0
    8.1428   -7.0304    0.0000 C   0  0  0  0  0  0  0  0  0  0  0  0
  9 11  1  0
  5  6  1  0
 11 12  2  3
  6  1  2  0
 12 13  1  0
  1  2  1  0
 13 14  2  0
  1  7  1  0
 14 15  1  0
  3  4  1  0
 15 16  2  0
  5  8  1  0
 16 17  1  0
 17 18  2  0
 18 13  1  0
  4  9  1  0
 17 19  1  0
  4  5  2  0
 16 20  1  0
  9 10  2  0
 20 21  1  0
  2  3  2  0
 19 22  1  0
M  END
>  <Classification>  (136) 
1

>  <pchembl>  (136) 
6.03

>  <InChI_steorem>  (136) 
InChI=1S/C17H16O5/c1-21-16-8-4-11(9-17(16)22-2)3-7-14(19)13-6-5-12(18)10-15(13)20/h3-10,18,20H,1-2H3

>  <source>  (136) 
ChEMBL25

>  <source_id>  (136) 
25

>  <optional_reference>  (136) 
10.1016/j.bmc.2011.10.074

>  <optional_origin>  (136) 
None

>  <target>  (136) 
BCRP

$$$$

     RDKit          2D

 27 30  0  0  0  0  0  0  0  0999 V2000
    8.6181   -4.4187    0.0000 F   0  0  0  0  0  0  0  0  0  0  0  0
    7.7478   -3.9261    0.0000 C   0  0  0  0  0  0  0  0  0  0  0  0
    7.2553   -4.7964    0.0000 F   0  0  0  0  0  0  0  0  0  0  0  0
    8.2404   -3.0558    0.0000 F   0  0  0  0  0  0  0  0  0  0  0  0
    6.8775   -3.4336    0.0000 C   0  0  0  0  0  0  0  0  0  0  0  0
    6.8719   -2.4284    0.0000 C   0  0  0  0  0  0  0  0  0  0  0  0
    6.0016   -1.9358    0.0000 C   0  0  0  0  0  0  0  0  0  0  0  0
    5.1369   -2.4381    0.0000 C   0  0  0  0  0  0  0  0  0  0  0  0
    5.1426   -3.4433    0.0000 C   0  0  0  0  0  0  0  0  0  0  0  0
    4.2779   -3.9456    0.0000 N   0  0  0  0  0  0  0  0  0  0  0  0
    4.2806   -4.9456    0.0000 C   0  0  0  0  0  0  0  0  0  0  0  0
    5.1529   -5.4501    0.0000 N   0  0  0  0  0  0  0  0  0  0  0  0
    5.1542   -6.4558    0.0000 C   0  0  0  0  0  0  0  0  0  0  0  0
    4.2832   -6.9569    0.0000 N   0  0  0  0  0  0  0  0  0  0  0  0
    3.4165   -6.4580    0.0000 C   0  0  0  0  0  0  0  0  0  0  0  0
    2.5473   -6.9558    0.0000 N   0  0  0  0  0  0  0  0  0  0  0  0
    1.6794   -6.4580    0.0000 C   0  0  0  0  0  0  0  0  0  0  0  0
    1.6794   -5.4523    0.0000 C   0  0  0  0  0  0  0  0  0  0  0  0
    2.5473   -4.9445    0.0000 C   0  0  0  0  0  0  0  0  0  0  0  0
    3.4152   -5.4523    0.0000 C   0  0  0  0  0  0  0  0  0  0  0  0
    6.0201   -6.9559    0.0000 C   0  0  0  0  0  0  0  0  0  0  0  0
    6.8892   -6.4509    0.0000 C   0  0  0  0  0  0  0  0  0  0  0  0
    7.7552   -6.9509    0.0000 C   0  0  0  0  0  0  0  0  0  0  0  0
    7.7610   -7.9510    0.0000 C   0  0  0  0  0  0  0  0  0  0  0  0
    6.8919   -8.4560    0.0000 C   0  0  0  0  0  0  0  0  0  0  0  0
    6.0170   -7.9611    0.0000 C   0  0  0  0  0  0  0  0  0  0  0  0
    6.0129   -3.9461    0.0000 C   0  0  0  0  0  0  0  0  0  0  0  0
  1  2  1  0
  2  3  1  0
  2  4  1  0
  2  5  1  0
  5 27  2  0
  5  6  1  0
  6  7  2  0
  7  8  1  0
  8  9  2  0
  9 10  1  0
 10 11  1  0
 11 20  1  0
 11 12  2  0
 12 13  1  0
 13 14  2  0
 14 15  1  0
 15 20  2  0
 15 16  1  0
 16 17  2  0
 17 18  1  0
 18 19  2  0
 19 20  1  0
 13 21  1  0
 21 26  1  0
 21 22  2  0
 22 23  1  0
 23 24  2  0
 24 25  1  0
 25 26  2  0
  9 27  1  0
M  END
>  <Classification>  (137) 
1

>  <pchembl>  (137) 
6.75

>  <InChI_steorem>  (137) 
InChI=1S/C20H13F3N4/c21-20(22,23)14-8-4-9-15(12-14)25-19-16-10-5-11-24-18(16)26-17(27-19)13-6-2-1-3-7-13/h1-12H,(H,24,25,26,27)

>  <source>  (137) 
ChEMBL25

>  <source_id>  (137) 
25

>  <optional_reference>  (137) 
10.1021/acs.jmedchem.7b01012

>  <optional_origin>  (137) 
None

>  <target>  (137) 
BCRP

$$$$

     RDKit          2D

 22 24  0  0  0  0  0  0  0  0999 V2000
    7.4069    0.4334    0.0000 C   0  0  0  0  0  0  0  0  0  0  0  0
    7.4057   -0.3940    0.0000 C   0  0  0  0  0  0  0  0  0  0  0  0
    8.1206   -0.8069    0.0000 C   0  0  0  0  0  0  0  0  0  0  0  0
    8.1188    0.8461    0.0000 C   0  0  0  0  0  0  0  0  0  0  0  0
    8.8341    0.4370    0.0000 C   0  0  0  0  0  0  0  0  0  0  0  0
    8.8349   -0.3898    0.0000 C   0  0  0  0  0  0  0  0  0  0  0  0
    9.5502   -0.8008    0.0000 C   0  0  0  0  0  0  0  0  0  0  0  0
   10.2652   -0.3860    0.0000 C   0  0  0  0  0  0  0  0  0  0  0  0
    9.5446    0.8512    0.0000 C   0  0  0  0  0  0  0  0  0  0  0  0
   10.2606    0.4432    0.0000 C   0  0  0  0  0  0  0  0  0  0  0  0
   10.9697    0.8593    0.0000 C   0  0  0  0  0  0  0  0  0  0  0  0
   10.9641    1.6831    0.0000 C   0  0  0  0  0  0  0  0  0  0  0  0
   10.2434    2.0890    0.0000 C   0  0  0  0  0  0  0  0  0  0  0  0
    9.5372    1.6707    0.0000 O   0  0  0  0  0  0  0  0  0  0  0  0
   11.6870    0.4517    0.0000 O   0  0  0  0  0  0  0  0  0  0  0  0
    6.6909   -0.8059    0.0000 O   0  0  0  0  0  0  0  0  0  0  0  0
    8.1163    1.6711    0.0000 O   0  0  0  0  0  0  0  0  0  0  0  0
    8.8295    2.0858    0.0000 C   0  0  0  0  0  0  0  0  0  0  0  0
   10.2344    2.9140    0.0000 C   0  0  0  0  0  0  0  0  0  0  0  0
   10.9813   -0.7958    0.0000 O   0  0  0  0  0  0  0  0  0  0  0  0
    9.5519   -1.6258    0.0000 O   0  0  0  0  0  0  0  0  0  0  0  0
   10.2673   -2.0368    0.0000 C   0  0  0  0  0  0  0  0  0  0  0  0
 10 11  1  0
  2  3  1  0
 11 12  1  0
  5  6  1  0
 12 13  2  0
  3  6  2  0
 13 14  1  0
 14  9  1  0
  6  7  1  0
 11 15  2  0
  1  2  2  0
  2 16  1  0
  7  8  2  0
  4 17  1  0
  8 10  1  0
 17 18  1  0
  9  5  1  0
 13 19  1  0
  5  4  2  0
  8 20  1  0
  4  1  1  0
  7 21  1  0
  9 10  2  0
 21 22  1  0
M  END
>  <Classification>  (138) 
0

>  <pchembl>  (138) 
4.92

>  <InChI_steorem>  (138) 
InChI=1S/C16H14O6/c1-7-4-10(18)13-14(19)15(21-3)9-5-8(17)6-11(20-2)12(9)16(13)22-7/h4-6,17,19H,1-3H3

>  <source>  (138) 
ChEMBL25

>  <source_id>  (138) 
25

>  <optional_reference>  (138) 
10.1016/j.bmcl.2010.05.057

>  <optional_origin>  (138) 
None

>  <target>  (138) 
BCRP

$$$$

     RDKit          2D

 23 25  0  0  0  0  0  0  0  0999 V2000
   10.8277   -9.0166    0.0000 C   0  0  0  0  0  0  0  0  0  0  0  0
   10.8266   -9.8440    0.0000 C   0  0  0  0  0  0  0  0  0  0  0  0
   11.5414  -10.2569    0.0000 C   0  0  0  0  0  0  0  0  0  0  0  0
   11.5396   -8.6039    0.0000 C   0  0  0  0  0  0  0  0  0  0  0  0
   12.2550   -9.0130    0.0000 C   0  0  0  0  0  0  0  0  0  0  0  0
   12.2557   -9.8398    0.0000 C   0  0  0  0  0  0  0  0  0  0  0  0
   12.9710  -10.2508    0.0000 C   0  0  0  0  0  0  0  0  0  0  0  0
   13.6861   -9.8360    0.0000 C   0  0  0  0  0  0  0  0  0  0  0  0
   12.9654   -8.5988    0.0000 C   0  0  0  0  0  0  0  0  0  0  0  0
   13.6814   -9.0068    0.0000 C   0  0  0  0  0  0  0  0  0  0  0  0
   14.3905   -8.5907    0.0000 C   0  0  0  0  0  0  0  0  0  0  0  0
   14.3849   -7.7669    0.0000 C   0  0  0  0  0  0  0  0  0  0  0  0
   13.6642   -7.3610    0.0000 C   0  0  0  0  0  0  0  0  0  0  0  0
   12.9580   -7.7793    0.0000 O   0  0  0  0  0  0  0  0  0  0  0  0
   15.1078   -8.9983    0.0000 O   0  0  0  0  0  0  0  0  0  0  0  0
   10.1118  -10.2559    0.0000 O   0  0  0  0  0  0  0  0  0  0  0  0
   11.5371   -7.7789    0.0000 O   0  0  0  0  0  0  0  0  0  0  0  0
   12.2504   -7.3642    0.0000 C   0  0  0  0  0  0  0  0  0  0  0  0
   13.6552   -6.5360    0.0000 C   0  0  0  0  0  0  0  0  0  0  0  0
   14.3651   -6.1157    0.0000 C   0  0  0  0  0  0  0  0  0  0  0  0
   15.0841   -6.5204    0.0000 C   0  0  0  0  0  0  0  0  0  0  0  0
   14.4021  -10.2458    0.0000 O   0  0  0  0  0  0  0  0  0  0  0  0
   14.4053  -11.0708    0.0000 C   0  0  0  0  0  0  0  0  0  0  0  0
 10 11  1  0
  2  3  1  0
 11 12  1  0
  5  6  1  0
 12 13  2  0
  3  6  2  0
 13 14  1  0
 14  9  1  0
  6  7  1  0
 11 15  2  0
  1  2  2  0
  2 16  1  0
  7  8  2  0
  4 17  1  0
  8 10  1  0
 17 18  1  0
  9  5  1  0
 13 19  1  0
  5  4  2  0
 19 20  1  0
  4  1  1  0
 20 21  1  0
  9 10  2  0
  8 22  1  0
 22 23  1  0
M  END
>  <Classification>  (139) 
1

>  <pchembl>  (139) 
5.23

>  <InChI_steorem>  (139) 
InChI=1S/C18H18O5/c1-4-5-12-9-13(20)17-14(21-2)7-10-6-11(19)8-15(22-3)16(10)18(17)23-12/h6-9,19H,4-5H2,1-3H3

>  <source>  (139) 
ChEMBL25

>  <source_id>  (139) 
25

>  <optional_reference>  (139) 
10.1016/j.bmcl.2010.05.057

>  <optional_origin>  (139) 
None

>  <target>  (139) 
BCRP

$$$$

     RDKit          2D

 21 23  0  0  0  0  0  0  0  0999 V2000
   -1.6872   -4.7272    0.0000 C   0  0  0  0  0  0  0  0  0  0  0  0
   -1.6950   -5.5556    0.0000 C   0  0  0  0  0  0  0  0  0  0  0  0
   -0.9838   -5.9733    0.0000 C   0  0  0  0  0  0  0  0  0  0  0  0
   -0.9746   -4.3189    0.0000 C   0  0  0  0  0  0  0  0  0  0  0  0
   -0.2624   -4.7351    0.0000 C   0  0  0  0  0  0  0  0  0  0  0  0
   -0.2633   -5.5680    0.0000 C   0  0  0  0  0  0  0  0  0  0  0  0
    0.4504   -5.9875    0.0000 C   0  0  0  0  0  0  0  0  0  0  0  0
    1.1760   -5.5726    0.0000 C   0  0  0  0  0  0  0  0  0  0  0  0
    1.1811   -4.7396    0.0000 C   0  0  0  0  0  0  0  0  0  0  0  0
    0.4605   -4.3173    0.0000 O   0  0  0  0  0  0  0  0  0  0  0  0
    0.4479   -6.8124    0.0000 O   0  0  0  0  0  0  0  0  0  0  0  0
    1.8959   -4.3325    0.0000 C   0  0  0  0  0  0  0  0  0  0  0  0
    2.6074   -4.7494    0.0000 C   0  0  0  0  0  0  0  0  0  0  0  0
    3.3255   -4.3434    0.0000 C   0  0  0  0  0  0  0  0  0  0  0  0
    3.3282   -3.5172    0.0000 C   0  0  0  0  0  0  0  0  0  0  0  0
    2.6122   -3.0995    0.0000 C   0  0  0  0  0  0  0  0  0  0  0  0
    1.8984   -3.5091    0.0000 C   0  0  0  0  0  0  0  0  0  0  0  0
   -2.3981   -4.3104    0.0000 O   0  0  0  0  0  0  0  0  0  0  0  0
   -2.3925   -3.4855    0.0000 C   0  0  0  0  0  0  0  0  0  0  0  0
   -0.2816   -7.2178    0.0000 C   0  0  0  0  0  0  0  0  0  0  0  0
   -0.9920   -6.7982    0.0000 O   0  0  0  0  0  0  0  0  0  0  0  0
  2  3  2  0
  3  6  1  0
  5  4  1  0
  4  1  2  0
  5  6  2  0
  5 10  1  0
  6  7  1  0
  7  8  1  0
  8  9  2  0
  9 10  1  0
  7 11  2  0
  9 12  1  0
 12 13  2  0
 13 14  1  0
 14 15  2  0
 15 16  1  0
 16 17  2  0
 17 12  1  0
  1 18  1  0
 18 19  1  0
  1  2  1  0
  3 21  1  0
 21 20  1  0
M  END
>  <Classification>  (140) 
1

>  <pchembl>  (140) 
5.04

>  <InChI_steorem>  (140) 
InChI=1S/C17H14O4/c1-19-12-8-15(20-2)17-13(18)10-14(21-16(17)9-12)11-6-4-3-5-7-11/h3-10H,1-2H3

>  <source>  (140) 
ChEMBL25

>  <source_id>  (140) 
25

>  <optional_reference>  (140) 
10.1016/j.bmc.2010.12.043

>  <optional_origin>  (140) 
None

>  <target>  (140) 
BCRP

$$$$

     RDKit          2D

 24 27  0  0  0  0  0  0  0  0999 V2000
   16.7014   -1.1218    0.0000 C   0  0  0  0  0  0  0  0  0  0  0  0
   16.7001   -1.9500    0.0000 C   0  0  0  0  0  0  0  0  0  0  0  0
   17.4156   -2.3632    0.0000 C   0  0  0  0  0  0  0  0  0  0  0  0
   17.4138   -0.7086    0.0000 C   0  0  0  0  0  0  0  0  0  0  0  0
   18.1299   -1.1182    0.0000 C   0  0  0  0  0  0  0  0  0  0  0  0
   18.1307   -1.9458    0.0000 C   0  0  0  0  0  0  0  0  0  0  0  0
   18.8466   -2.3572    0.0000 N   0  0  0  0  0  0  0  0  0  0  0  0
   19.5623   -1.9420    0.0000 C   0  0  0  0  0  0  0  0  0  0  0  0
   19.5575   -1.1112    0.0000 N   0  0  0  0  0  0  0  0  0  0  0  0
   18.8409   -0.7036    0.0000 C   0  0  0  0  0  0  0  0  0  0  0  0
   20.2754   -2.3479    0.0000 C   0  0  0  0  0  0  0  0  0  0  0  0
   20.2773   -3.1748    0.0000 C   0  0  0  0  0  0  0  0  0  0  0  0
   20.9932   -3.5849    0.0000 C   0  0  0  0  0  0  0  0  0  0  0  0
   21.7076   -3.1691    0.0000 C   0  0  0  0  0  0  0  0  0  0  0  0
   21.7018   -2.3391    0.0000 C   0  0  0  0  0  0  0  0  0  0  0  0
   20.9854   -1.9329    0.0000 C   0  0  0  0  0  0  0  0  0  0  0  0
   18.8366    0.1221    0.0000 N   0  0  0  0  0  0  0  0  0  0  0  0
   19.5495    0.5388    0.0000 C   0  0  0  0  0  0  0  0  0  0  0  0
   20.2622    0.1262    0.0000 C   0  0  0  0  0  0  0  0  0  0  0  0
   20.9747    0.5422    0.0000 C   0  0  0  0  0  0  0  0  0  0  0  0
   20.9706    1.3688    0.0000 C   0  0  0  0  0  0  0  0  0  0  0  0
   20.2484    1.7777    0.0000 C   0  0  0  0  0  0  0  0  0  0  0  0
   19.5388    1.3594    0.0000 C   0  0  0  0  0  0  0  0  0  0  0  0
   21.6830    1.7864    0.0000 Br  0  0  0  0  0  0  0  0  0  0  0  0
 11 12  2  0
  5  6  1  0
 12 13  1  0
  3  6  2  0
 13 14  2  0
  6  7  1  0
 14 15  1  0
  1  2  2  0
 15 16  2  0
 16 11  1  0
  8 11  1  0
  7  8  2  0
 10 17  1  0
  5  4  2  0
 17 18  1  0
  8  9  1  0
 18 19  2  0
  4  1  1  0
 19 20  1  0
  9 10  2  0
 20 21  2  0
 10  5  1  0
 21 22  1  0
 22 23  2  0
 23 18  1  0
  2  3  1  0
 21 24  1  0
M  END
>  <Classification>  (141) 
1

>  <pchembl>  (141) 
5.17

>  <InChI_steorem>  (141) 
InChI=1S/C20H14BrN3/c21-15-10-12-16(13-11-15)22-20-17-8-4-5-9-18(17)23-19(24-20)14-6-2-1-3-7-14/h1-13H,(H,22,23,24)

>  <source>  (141) 
ChEMBL25

>  <source_id>  (141) 
25

>  <optional_reference>  (141) 
10.1016/j.bmcl.2012.08.024

>  <optional_origin>  (141) 
None

>  <target>  (141) 
BCRP

$$$$

     RDKit          2D

 24 27  0  0  0  0  0  0  0  0999 V2000
    2.2632   -0.7673    0.0000 C   0  0  0  0  0  0  0  0  0  0  0  0
    2.2620   -1.5955    0.0000 C   0  0  0  0  0  0  0  0  0  0  0  0
    2.9774   -2.0087    0.0000 C   0  0  0  0  0  0  0  0  0  0  0  0
    2.9756   -0.3542    0.0000 C   0  0  0  0  0  0  0  0  0  0  0  0
    3.6917   -0.7637    0.0000 C   0  0  0  0  0  0  0  0  0  0  0  0
    3.6925   -1.5913    0.0000 C   0  0  0  0  0  0  0  0  0  0  0  0
    4.4084   -2.0026    0.0000 N   0  0  0  0  0  0  0  0  0  0  0  0
    5.1241   -1.5874    0.0000 C   0  0  0  0  0  0  0  0  0  0  0  0
    5.1193   -0.7568    0.0000 N   0  0  0  0  0  0  0  0  0  0  0  0
    4.4027   -0.3491    0.0000 C   0  0  0  0  0  0  0  0  0  0  0  0
    5.8372   -1.9934    0.0000 C   0  0  0  0  0  0  0  0  0  0  0  0
    5.8391   -2.8204    0.0000 C   0  0  0  0  0  0  0  0  0  0  0  0
    6.5550   -3.2303    0.0000 C   0  0  0  0  0  0  0  0  0  0  0  0
    7.2694   -2.8147    0.0000 C   0  0  0  0  0  0  0  0  0  0  0  0
    7.2636   -1.9846    0.0000 C   0  0  0  0  0  0  0  0  0  0  0  0
    6.5472   -1.5783    0.0000 C   0  0  0  0  0  0  0  0  0  0  0  0
    4.3984    0.4765    0.0000 N   0  0  0  0  0  0  0  0  0  0  0  0
    5.1113    0.8932    0.0000 C   0  0  0  0  0  0  0  0  0  0  0  0
    5.8240    0.4807    0.0000 C   0  0  0  0  0  0  0  0  0  0  0  0
    6.5365    0.8967    0.0000 C   0  0  0  0  0  0  0  0  0  0  0  0
    6.5325    1.7234    0.0000 C   0  0  0  0  0  0  0  0  0  0  0  0
    5.8102    2.1322    0.0000 C   0  0  0  0  0  0  0  0  0  0  0  0
    5.1007    1.7139    0.0000 C   0  0  0  0  0  0  0  0  0  0  0  0
    4.3810    2.1188    0.0000 Br  0  0  0  0  0  0  0  0  0  0  0  0
 11 12  2  0
  5  6  1  0
 12 13  1  0
  3  6  2  0
 13 14  2  0
  6  7  1  0
 14 15  1  0
  1  2  2  0
 15 16  2  0
 16 11  1  0
  8 11  1  0
  7  8  2  0
 10 17  1  0
  5  4  2  0
 17 18  1  0
  8  9  1  0
 18 19  2  0
  4  1  1  0
 19 20  1  0
  9 10  2  0
 20 21  2  0
 10  5  1  0
 21 22  1  0
 22 23  2  0
 23 18  1  0
  2  3  1  0
 23 24  1  0
M  END
>  <Classification>  (142) 
1

>  <pchembl>  (142) 
5.43

>  <InChI_steorem>  (142) 
InChI=1S/C20H14BrN3/c21-16-11-5-7-13-18(16)23-20-15-10-4-6-12-17(15)22-19(24-20)14-8-2-1-3-9-14/h1-13H,(H,22,23,24)

>  <source>  (142) 
ChEMBL25

>  <source_id>  (142) 
25

>  <optional_reference>  (142) 
10.1016/j.bmcl.2012.08.024

>  <optional_origin>  (142) 
None

>  <target>  (142) 
BCRP

$$$$

     RDKit          2D

 24 27  0  0  0  0  0  0  0  0999 V2000
    9.5406   -0.8216    0.0000 C   0  0  0  0  0  0  0  0  0  0  0  0
    9.5394   -1.6497    0.0000 C   0  0  0  0  0  0  0  0  0  0  0  0
   10.2550   -2.0629    0.0000 C   0  0  0  0  0  0  0  0  0  0  0  0
   10.2532   -0.4084    0.0000 C   0  0  0  0  0  0  0  0  0  0  0  0
   10.9691   -0.8179    0.0000 C   0  0  0  0  0  0  0  0  0  0  0  0
   10.9699   -1.6455    0.0000 C   0  0  0  0  0  0  0  0  0  0  0  0
   11.6859   -2.0569    0.0000 N   0  0  0  0  0  0  0  0  0  0  0  0
   12.4015   -1.6417    0.0000 C   0  0  0  0  0  0  0  0  0  0  0  0
   12.3968   -0.8109    0.0000 N   0  0  0  0  0  0  0  0  0  0  0  0
   11.6803   -0.4034    0.0000 C   0  0  0  0  0  0  0  0  0  0  0  0
   13.1147   -2.0477    0.0000 C   0  0  0  0  0  0  0  0  0  0  0  0
   13.1166   -2.8745    0.0000 C   0  0  0  0  0  0  0  0  0  0  0  0
   13.8324   -3.2846    0.0000 C   0  0  0  0  0  0  0  0  0  0  0  0
   14.5470   -2.8688    0.0000 C   0  0  0  0  0  0  0  0  0  0  0  0
   14.5411   -2.0389    0.0000 C   0  0  0  0  0  0  0  0  0  0  0  0
   13.8246   -1.6326    0.0000 C   0  0  0  0  0  0  0  0  0  0  0  0
   11.6759    0.4224    0.0000 N   0  0  0  0  0  0  0  0  0  0  0  0
   12.3888    0.8391    0.0000 C   0  0  0  0  0  0  0  0  0  0  0  0
   13.1015    0.4265    0.0000 C   0  0  0  0  0  0  0  0  0  0  0  0
   13.8139    0.8425    0.0000 C   0  0  0  0  0  0  0  0  0  0  0  0
   13.8100    1.6691    0.0000 C   0  0  0  0  0  0  0  0  0  0  0  0
   13.0877    2.0780    0.0000 C   0  0  0  0  0  0  0  0  0  0  0  0
   12.3782    1.6597    0.0000 C   0  0  0  0  0  0  0  0  0  0  0  0
   13.0803    2.9038    0.0000 Br  0  0  0  0  0  0  0  0  0  0  0  0
 11 12  2  0
  5  6  1  0
 12 13  1  0
  3  6  2  0
 13 14  2  0
  6  7  1  0
 14 15  1  0
  1  2  2  0
 15 16  2  0
 16 11  1  0
  8 11  1  0
  7  8  2  0
 10 17  1  0
  5  4  2  0
 17 18  1  0
  8  9  1  0
 18 19  2  0
  4  1  1  0
 19 20  1  0
  9 10  2  0
 20 21  2  0
 10  5  1  0
 21 22  1  0
 22 23  2  0
 23 18  1  0
  2  3  1  0
 22 24  1  0
M  END
>  <Classification>  (143) 
1

>  <pchembl>  (143) 
6.24

>  <InChI_steorem>  (143) 
InChI=1S/C20H14BrN3/c21-15-9-6-10-16(13-15)22-20-17-11-4-5-12-18(17)23-19(24-20)14-7-2-1-3-8-14/h1-13H,(H,22,23,24)

>  <source>  (143) 
ChEMBL25

>  <source_id>  (143) 
25

>  <optional_reference>  (143) 
10.1016/j.bmcl.2012.08.024

>  <optional_origin>  (143) 
None

>  <target>  (143) 
BCRP

$$$$

     RDKit          2D

 25 28  0  0  0  0  0  0  0  0999 V2000
    2.3799   -8.8038    0.0000 C   0  0  0  0  0  0  0  0  0  0  0  0
    2.3788   -9.6320    0.0000 C   0  0  0  0  0  0  0  0  0  0  0  0
    3.0942  -10.0452    0.0000 C   0  0  0  0  0  0  0  0  0  0  0  0
    3.0924   -8.3907    0.0000 C   0  0  0  0  0  0  0  0  0  0  0  0
    3.8085   -8.8002    0.0000 C   0  0  0  0  0  0  0  0  0  0  0  0
    3.8092   -9.6278    0.0000 C   0  0  0  0  0  0  0  0  0  0  0  0
    4.5251  -10.0392    0.0000 N   0  0  0  0  0  0  0  0  0  0  0  0
    5.2409   -9.6240    0.0000 C   0  0  0  0  0  0  0  0  0  0  0  0
    5.2361   -8.7932    0.0000 N   0  0  0  0  0  0  0  0  0  0  0  0
    4.5195   -8.3857    0.0000 C   0  0  0  0  0  0  0  0  0  0  0  0
    5.9540  -10.0300    0.0000 C   0  0  0  0  0  0  0  0  0  0  0  0
    5.9558  -10.8568    0.0000 C   0  0  0  0  0  0  0  0  0  0  0  0
    6.6717  -11.2669    0.0000 C   0  0  0  0  0  0  0  0  0  0  0  0
    7.3862  -10.8511    0.0000 C   0  0  0  0  0  0  0  0  0  0  0  0
    7.3803  -10.0212    0.0000 C   0  0  0  0  0  0  0  0  0  0  0  0
    6.6639   -9.6149    0.0000 C   0  0  0  0  0  0  0  0  0  0  0  0
    4.5151   -7.5599    0.0000 N   0  0  0  0  0  0  0  0  0  0  0  0
    5.2281   -7.1432    0.0000 C   0  0  0  0  0  0  0  0  0  0  0  0
    5.9407   -7.5558    0.0000 C   0  0  0  0  0  0  0  0  0  0  0  0
    6.6532   -7.1398    0.0000 C   0  0  0  0  0  0  0  0  0  0  0  0
    6.6493   -6.3132    0.0000 C   0  0  0  0  0  0  0  0  0  0  0  0
    5.9269   -5.9043    0.0000 C   0  0  0  0  0  0  0  0  0  0  0  0
    5.2175   -6.3226    0.0000 C   0  0  0  0  0  0  0  0  0  0  0  0
    5.9196   -5.0785    0.0000 Cl  0  0  0  0  0  0  0  0  0  0  0  0
    7.3616   -5.8956    0.0000 F   0  0  0  0  0  0  0  0  0  0  0  0
  5  6  1  0
 12 13  2  0
  3  6  2  0
 13 14  1  0
  6  7  1  0
 14 15  2  0
  1  2  2  0
 15 16  1  0
 16 11  2  0
  8 11  1  0
  7  8  2  0
 10 17  1  0
  5  4  2  0
 17 18  1  0
  8  9  1  0
 18 19  2  0
  4  1  1  0
 19 20  1  0
  9 10  2  0
 20 21  2  0
 10  5  1  0
 21 22  1  0
 22 23  2  0
 23 18  1  0
  2  3  1  0
 22 24  1  0
 11 12  1  0
 21 25  1  0
M  END
>  <Classification>  (144) 
1

>  <pchembl>  (144) 
5.78

>  <InChI_steorem>  (144) 
InChI=1S/C20H13ClFN3/c21-16-12-14(10-11-17(16)22)23-20-15-8-4-5-9-18(15)24-19(25-20)13-6-2-1-3-7-13/h1-12H,(H,23,24,25)

>  <source>  (144) 
ChEMBL25

>  <source_id>  (144) 
25

>  <optional_reference>  (144) 
10.1016/j.bmcl.2012.08.024

>  <optional_origin>  (144) 
None

>  <target>  (144) 
BCRP

$$$$

     RDKit          2D

 25 28  0  0  0  0  0  0  0  0999 V2000
    9.5739  -24.8685    0.0000 C   0  0  0  0  0  0  0  0  0  0  0  0
    9.5728  -25.6967    0.0000 C   0  0  0  0  0  0  0  0  0  0  0  0
   10.2883  -26.1098    0.0000 C   0  0  0  0  0  0  0  0  0  0  0  0
   10.2865  -24.4553    0.0000 C   0  0  0  0  0  0  0  0  0  0  0  0
   11.0025  -24.8649    0.0000 C   0  0  0  0  0  0  0  0  0  0  0  0
   11.0032  -25.6925    0.0000 C   0  0  0  0  0  0  0  0  0  0  0  0
   11.7192  -26.1038    0.0000 N   0  0  0  0  0  0  0  0  0  0  0  0
   12.4350  -25.6887    0.0000 C   0  0  0  0  0  0  0  0  0  0  0  0
   12.4302  -24.8579    0.0000 N   0  0  0  0  0  0  0  0  0  0  0  0
   11.7136  -24.4503    0.0000 C   0  0  0  0  0  0  0  0  0  0  0  0
   13.1481  -26.0946    0.0000 C   0  0  0  0  0  0  0  0  0  0  0  0
   13.1499  -26.9215    0.0000 C   0  0  0  0  0  0  0  0  0  0  0  0
   13.8658  -27.3316    0.0000 C   0  0  0  0  0  0  0  0  0  0  0  0
   14.5803  -26.9158    0.0000 C   0  0  0  0  0  0  0  0  0  0  0  0
   14.5744  -26.0858    0.0000 C   0  0  0  0  0  0  0  0  0  0  0  0
   13.8580  -25.6795    0.0000 C   0  0  0  0  0  0  0  0  0  0  0  0
   11.7092  -23.6246    0.0000 N   0  0  0  0  0  0  0  0  0  0  0  0
   12.4221  -23.2079    0.0000 C   0  0  0  0  0  0  0  0  0  0  0  0
   13.1348  -23.6205    0.0000 C   0  0  0  0  0  0  0  0  0  0  0  0
   13.8472  -23.2045    0.0000 C   0  0  0  0  0  0  0  0  0  0  0  0
   13.8433  -22.3778    0.0000 C   0  0  0  0  0  0  0  0  0  0  0  0
   13.1210  -21.9690    0.0000 C   0  0  0  0  0  0  0  0  0  0  0  0
   12.4115  -22.3872    0.0000 C   0  0  0  0  0  0  0  0  0  0  0  0
   13.1104  -21.1452    0.0000 C   0  0  0  0  0  0  0  0  0  0  0  0
   13.1031  -20.3195    0.0000 N   0  0  0  0  0  0  0  0  0  0  0  0
  5  6  1  0
 12 13  2  0
  3  6  2  0
 13 14  1  0
  6  7  1  0
 14 15  2  0
  1  2  2  0
 15 16  1  0
 16 11  2  0
  8 11  1  0
  7  8  2  0
 10 17  1  0
  5  4  2  0
 17 18  1  0
  8  9  1  0
 18 19  2  0
  4  1  1  0
 19 20  1  0
  9 10  2  0
 20 21  2  0
 10  5  1  0
 21 22  1  0
 22 23  2  0
 23 18  1  0
  2  3  1  0
 11 12  1  0
 24 25  3  0
 22 24  1  0
M  END
>  <Classification>  (145) 
1

>  <pchembl>  (145) 
6.85

>  <InChI_steorem>  (145) 
InChI=1S/C21H14N4/c22-14-15-7-6-10-17(13-15)23-21-18-11-4-5-12-19(18)24-20(25-21)16-8-2-1-3-9-16/h1-13H,(H,23,24,25)

>  <source>  (145) 
ChEMBL25

>  <source_id>  (145) 
25

>  <optional_reference>  (145) 
10.1016/j.bmcl.2012.08.024

>  <optional_origin>  (145) 
None

>  <target>  (145) 
BCRP

$$$$

     RDKit          2D

 26 29  0  0  0  0  0  0  0  0999 V2000
   -5.1145  -24.0678    0.0000 C   0  0  0  0  0  0  0  0  0  0  0  0
   -5.1156  -24.8959    0.0000 C   0  0  0  0  0  0  0  0  0  0  0  0
   -4.4001  -25.3091    0.0000 C   0  0  0  0  0  0  0  0  0  0  0  0
   -4.4019  -23.6546    0.0000 C   0  0  0  0  0  0  0  0  0  0  0  0
   -3.6859  -24.0642    0.0000 C   0  0  0  0  0  0  0  0  0  0  0  0
   -3.6852  -24.8917    0.0000 C   0  0  0  0  0  0  0  0  0  0  0  0
   -2.9692  -25.3031    0.0000 N   0  0  0  0  0  0  0  0  0  0  0  0
   -2.2535  -24.8879    0.0000 C   0  0  0  0  0  0  0  0  0  0  0  0
   -2.2583  -24.0572    0.0000 N   0  0  0  0  0  0  0  0  0  0  0  0
   -2.9748  -23.6496    0.0000 C   0  0  0  0  0  0  0  0  0  0  0  0
   -1.5403  -25.2939    0.0000 C   0  0  0  0  0  0  0  0  0  0  0  0
   -1.5385  -26.1208    0.0000 C   0  0  0  0  0  0  0  0  0  0  0  0
   -0.8227  -26.5308    0.0000 C   0  0  0  0  0  0  0  0  0  0  0  0
   -0.1081  -26.1150    0.0000 C   0  0  0  0  0  0  0  0  0  0  0  0
   -0.1140  -25.2851    0.0000 C   0  0  0  0  0  0  0  0  0  0  0  0
   -0.8305  -24.8788    0.0000 C   0  0  0  0  0  0  0  0  0  0  0  0
   -2.9792  -22.8238    0.0000 N   0  0  0  0  0  0  0  0  0  0  0  0
   -2.2663  -22.4072    0.0000 C   0  0  0  0  0  0  0  0  0  0  0  0
   -1.5536  -22.8197    0.0000 C   0  0  0  0  0  0  0  0  0  0  0  0
   -0.8412  -22.4038    0.0000 C   0  0  0  0  0  0  0  0  0  0  0  0
   -0.8451  -21.5771    0.0000 C   0  0  0  0  0  0  0  0  0  0  0  0
   -1.5674  -21.1682    0.0000 C   0  0  0  0  0  0  0  0  0  0  0  0
   -2.2769  -21.5865    0.0000 C   0  0  0  0  0  0  0  0  0  0  0  0
   -0.1298  -21.1586    0.0000 N   0  0  0  0  0  0  0  0  0  0  0  0
   -0.1352  -20.3329    0.0000 O   0  0  0  0  0  0  0  0  0  0  0  0
    0.5880  -21.5668    0.0000 O   0  0  0  0  0  0  0  0  0  0  0  0
 12 13  2  0
  3  6  2  0
 13 14  1  0
  6  7  1  0
 14 15  2  0
  1  2  2  0
 15 16  1  0
 16 11  2  0
  8 11  1  0
  7  8  2  0
 10 17  1  0
  5  4  2  0
 17 18  1  0
  8  9  1  0
 18 19  2  0
  4  1  1  0
 19 20  1  0
  9 10  2  0
 20 21  2  0
 10  5  1  0
 21 22  1  0
 22 23  2  0
 23 18  1  0
  2  3  1  0
 11 12  1  0
  5  6  1  0
 24 25  2  0
 24 26  1  0
 21 24  1  0
M  CHG  2  24   1  26  -1
M  END
>  <Classification>  (146) 
1

>  <pchembl>  (146) 
6.01

>  <InChI_steorem>  (146) 
InChI=1S/C20H14N4O2/c25-24(26)16-12-10-15(11-13-16)21-20-17-8-4-5-9-18(17)22-19(23-20)14-6-2-1-3-7-14/h1-13H,(H,21,22,23)

>  <source>  (146) 
ChEMBL25

>  <source_id>  (146) 
25

>  <optional_reference>  (146) 
10.1016/j.bmcl.2012.08.024

>  <optional_origin>  (146) 
None

>  <target>  (146) 
BCRP

$$$$

     RDKit          2D

 26 29  0  0  0  0  0  0  0  0999 V2000
    9.9160  -16.9195    0.0000 C   0  0  0  0  0  0  0  0  0  0  0  0
    9.9148  -17.7477    0.0000 C   0  0  0  0  0  0  0  0  0  0  0  0
   10.6303  -18.1610    0.0000 C   0  0  0  0  0  0  0  0  0  0  0  0
   10.6285  -16.5065    0.0000 C   0  0  0  0  0  0  0  0  0  0  0  0
   11.3445  -16.9159    0.0000 C   0  0  0  0  0  0  0  0  0  0  0  0
   11.3453  -17.7435    0.0000 C   0  0  0  0  0  0  0  0  0  0  0  0
   12.0612  -18.1549    0.0000 N   0  0  0  0  0  0  0  0  0  0  0  0
   12.7769  -17.7397    0.0000 C   0  0  0  0  0  0  0  0  0  0  0  0
   12.7722  -16.9090    0.0000 N   0  0  0  0  0  0  0  0  0  0  0  0
   12.0556  -16.5014    0.0000 C   0  0  0  0  0  0  0  0  0  0  0  0
   13.4900  -18.1457    0.0000 C   0  0  0  0  0  0  0  0  0  0  0  0
   13.4919  -18.9726    0.0000 C   0  0  0  0  0  0  0  0  0  0  0  0
   14.2078  -19.3826    0.0000 C   0  0  0  0  0  0  0  0  0  0  0  0
   14.9223  -18.9669    0.0000 C   0  0  0  0  0  0  0  0  0  0  0  0
   14.9164  -18.1369    0.0000 C   0  0  0  0  0  0  0  0  0  0  0  0
   14.2000  -17.7306    0.0000 C   0  0  0  0  0  0  0  0  0  0  0  0
   12.0512  -15.6757    0.0000 N   0  0  0  0  0  0  0  0  0  0  0  0
   12.7642  -15.2590    0.0000 C   0  0  0  0  0  0  0  0  0  0  0  0
   13.4768  -15.6715    0.0000 C   0  0  0  0  0  0  0  0  0  0  0  0
   14.1893  -15.2555    0.0000 C   0  0  0  0  0  0  0  0  0  0  0  0
   14.1854  -14.4289    0.0000 C   0  0  0  0  0  0  0  0  0  0  0  0
   13.4630  -14.0200    0.0000 C   0  0  0  0  0  0  0  0  0  0  0  0
   12.7535  -14.4384    0.0000 C   0  0  0  0  0  0  0  0  0  0  0  0
   12.0297  -14.0308    0.0000 N   0  0  0  0  0  0  0  0  0  0  0  0
   11.3192  -14.4516    0.0000 O   0  0  0  0  0  0  0  0  0  0  0  0
   12.0206  -13.2052    0.0000 O   0  0  0  0  0  0  0  0  0  0  0  0
 12 13  2  0
  3  6  2  0
 13 14  1  0
  6  7  1  0
 14 15  2  0
  1  2  2  0
 15 16  1  0
 16 11  2  0
  8 11  1  0
  7  8  2  0
 10 17  1  0
  5  4  2  0
 17 18  1  0
  8  9  1  0
 18 19  2  0
  4  1  1  0
 19 20  1  0
  9 10  2  0
 20 21  2  0
 10  5  1  0
 21 22  1  0
 22 23  2  0
 23 18  1  0
  2  3  1  0
 11 12  1  0
  5  6  1  0
 24 25  2  0
 24 26  1  0
 23 24  1  0
M  CHG  2  24   1  26  -1
M  END
>  <Classification>  (147) 
1

>  <pchembl>  (147) 
5.23

>  <InChI_steorem>  (147) 
InChI=1S/C20H14N4O2/c25-24(26)18-13-7-6-12-17(18)22-20-15-10-4-5-11-16(15)21-19(23-20)14-8-2-1-3-9-14/h1-13H,(H,21,22,23)

>  <source>  (147) 
ChEMBL25

>  <source_id>  (147) 
25

>  <optional_reference>  (147) 
10.1016/j.bmcl.2012.08.024

>  <optional_origin>  (147) 
None

>  <target>  (147) 
BCRP

$$$$

     RDKit          2D

 27 30  0  0  0  0  0  0  0  0999 V2000
   17.1750  -24.9270    0.0000 C   0  0  0  0  0  0  0  0  0  0  0  0
   17.1738  -25.7544    0.0000 C   0  0  0  0  0  0  0  0  0  0  0  0
   17.8887  -26.1673    0.0000 C   0  0  0  0  0  0  0  0  0  0  0  0
   17.8869  -24.5142    0.0000 C   0  0  0  0  0  0  0  0  0  0  0  0
   18.6023  -24.9233    0.0000 C   0  0  0  0  0  0  0  0  0  0  0  0
   18.6031  -25.7503    0.0000 C   0  0  0  0  0  0  0  0  0  0  0  0
   19.3185  -26.1612    0.0000 N   0  0  0  0  0  0  0  0  0  0  0  0
   20.0335  -25.7465    0.0000 C   0  0  0  0  0  0  0  0  0  0  0  0
   20.0287  -24.9164    0.0000 N   0  0  0  0  0  0  0  0  0  0  0  0
   19.3128  -24.5092    0.0000 C   0  0  0  0  0  0  0  0  0  0  0  0
   20.7461  -26.1521    0.0000 C   0  0  0  0  0  0  0  0  0  0  0  0
   20.7480  -26.9783    0.0000 C   0  0  0  0  0  0  0  0  0  0  0  0
   21.4633  -27.3879    0.0000 C   0  0  0  0  0  0  0  0  0  0  0  0
   22.1771  -26.9726    0.0000 C   0  0  0  0  0  0  0  0  0  0  0  0
   22.1713  -26.1433    0.0000 C   0  0  0  0  0  0  0  0  0  0  0  0
   21.4555  -25.7373    0.0000 C   0  0  0  0  0  0  0  0  0  0  0  0
   19.3085  -23.6841    0.0000 N   0  0  0  0  0  0  0  0  0  0  0  0
   20.0207  -23.2678    0.0000 C   0  0  0  0  0  0  0  0  0  0  0  0
   20.7329  -23.6799    0.0000 C   0  0  0  0  0  0  0  0  0  0  0  0
   21.4448  -23.2643    0.0000 C   0  0  0  0  0  0  0  0  0  0  0  0
   21.4408  -22.4384    0.0000 C   0  0  0  0  0  0  0  0  0  0  0  0
   20.7191  -22.0298    0.0000 C   0  0  0  0  0  0  0  0  0  0  0  0
   20.0101  -22.4478    0.0000 C   0  0  0  0  0  0  0  0  0  0  0  0
   20.7118  -21.2048    0.0000 C   0  0  0  0  0  0  0  0  0  0  0  0
   21.4227  -20.7860    0.0000 F   0  0  0  0  0  0  0  0  0  0  0  0
   19.9936  -20.7986    0.0000 F   0  0  0  0  0  0  0  0  0  0  0  0
   20.7059  -20.3767    0.0000 F   0  0  0  0  0  0  0  0  0  0  0  0
  3  6  2  0
 13 14  2  0
  6  7  1  0
 14 15  1  0
  1  2  2  0
 15 16  2  0
 16 11  1  0
  8 11  1  0
  7  8  2  0
 10 17  1  0
  5  4  2  0
 17 18  1  0
  8  9  1  0
 18 19  2  0
  4  1  1  0
 19 20  1  0
  9 10  2  0
 20 21  2  0
 10  5  1  0
 21 22  1  0
 22 23  2  0
 23 18  1  0
  2  3  1  0
 22 24  1  0
 11 12  2  0
 24 25  1  0
  5  6  1  0
 24 26  1  0
 12 13  1  0
 24 27  1  0
M  END
>  <Classification>  (148) 
1

>  <pchembl>  (148) 
6.6

>  <InChI_steorem>  (148) 
InChI=1S/C21H14F3N3/c22-21(23,24)15-9-6-10-16(13-15)25-20-17-11-4-5-12-18(17)26-19(27-20)14-7-2-1-3-8-14/h1-13H,(H,25,26,27)

>  <source>  (148) 
ChEMBL25

>  <source_id>  (148) 
25

>  <optional_reference>  (148) 
10.1016/j.bmcl.2012.08.024

>  <optional_origin>  (148) 
None

>  <target>  (148) 
BCRP

$$$$

     RDKit          2D

 27 30  0  0  0  0  0  0  0  0999 V2000
    2.0454  -24.7701    0.0000 C   0  0  0  0  0  0  0  0  0  0  0  0
    2.0442  -25.5979    0.0000 C   0  0  0  0  0  0  0  0  0  0  0  0
    2.7594  -26.0109    0.0000 C   0  0  0  0  0  0  0  0  0  0  0  0
    2.7576  -24.3571    0.0000 C   0  0  0  0  0  0  0  0  0  0  0  0
    3.4733  -24.7665    0.0000 C   0  0  0  0  0  0  0  0  0  0  0  0
    3.4741  -25.5937    0.0000 C   0  0  0  0  0  0  0  0  0  0  0  0
    4.1897  -26.0049    0.0000 N   0  0  0  0  0  0  0  0  0  0  0  0
    4.9050  -25.5899    0.0000 C   0  0  0  0  0  0  0  0  0  0  0  0
    4.9003  -24.7595    0.0000 N   0  0  0  0  0  0  0  0  0  0  0  0
    4.1841  -24.3521    0.0000 C   0  0  0  0  0  0  0  0  0  0  0  0
    5.6179  -25.9957    0.0000 C   0  0  0  0  0  0  0  0  0  0  0  0
    5.6198  -26.8222    0.0000 C   0  0  0  0  0  0  0  0  0  0  0  0
    6.3353  -27.2321    0.0000 C   0  0  0  0  0  0  0  0  0  0  0  0
    7.0496  -26.8165    0.0000 C   0  0  0  0  0  0  0  0  0  0  0  0
    7.0437  -25.9869    0.0000 C   0  0  0  0  0  0  0  0  0  0  0  0
    6.3275  -25.5808    0.0000 C   0  0  0  0  0  0  0  0  0  0  0  0
    4.1797  -23.5267    0.0000 N   0  0  0  0  0  0  0  0  0  0  0  0
    4.8923  -23.1102    0.0000 C   0  0  0  0  0  0  0  0  0  0  0  0
    5.6047  -23.5226    0.0000 C   0  0  0  0  0  0  0  0  0  0  0  0
    6.3168  -23.1068    0.0000 C   0  0  0  0  0  0  0  0  0  0  0  0
    6.3129  -22.2805    0.0000 C   0  0  0  0  0  0  0  0  0  0  0  0
    5.5909  -21.8718    0.0000 C   0  0  0  0  0  0  0  0  0  0  0  0
    4.8817  -22.2899    0.0000 C   0  0  0  0  0  0  0  0  0  0  0  0
    5.5836  -21.0425    0.0000 N   0  0  0  0  0  0  0  0  0  0  0  0
    4.8651  -20.6361    0.0000 O   0  0  0  0  0  0  0  0  0  0  0  0
    6.2947  -20.6235    0.0000 O   0  0  0  0  0  0  0  0  0  0  0  0
    7.0249  -21.8631    0.0000 F   0  0  0  0  0  0  0  0  0  0  0  0
  3  6  2  0
 13 14  2  0
  6  7  1  0
 14 15  1  0
  1  2  2  0
 15 16  2  0
 16 11  1  0
  8 11  1  0
  7  8  2  0
 10 17  1  0
  5  4  2  0
 17 18  1  0
  8  9  1  0
 18 19  2  0
  4  1  1  0
 19 20  1  0
  9 10  2  0
 20 21  2  0
 10  5  1  0
 21 22  1  0
 22 23  2  0
 23 18  1  0
  2  3  1  0
 11 12  2  0
  5  6  1  0
 24 25  2  0
 24 26  1  0
 22 24  1  0
 12 13  1  0
 21 27  1  0
M  CHG  2  24   1  26  -1
M  END
>  <Classification>  (149) 
1

>  <pchembl>  (149) 
5.61

>  <InChI_steorem>  (149) 
InChI=1S/C20H13FN4O2/c21-16-11-10-14(12-18(16)25(26)27)22-20-15-8-4-5-9-17(15)23-19(24-20)13-6-2-1-3-7-13/h1-12H,(H,22,23,24)

>  <source>  (149) 
ChEMBL25

>  <source_id>  (149) 
25

>  <optional_reference>  (149) 
10.1016/j.bmcl.2012.08.024

>  <optional_origin>  (149) 
None

>  <target>  (149) 
BCRP

$$$$

     RDKit          2D

 27 30  0  0  0  0  0  0  0  0999 V2000
    2.4248  -16.7040    0.0000 C   0  0  0  0  0  0  0  0  0  0  0  0
    2.4236  -17.5318    0.0000 C   0  0  0  0  0  0  0  0  0  0  0  0
    3.1387  -17.9448    0.0000 C   0  0  0  0  0  0  0  0  0  0  0  0
    3.1369  -16.2910    0.0000 C   0  0  0  0  0  0  0  0  0  0  0  0
    3.8527  -16.7004    0.0000 C   0  0  0  0  0  0  0  0  0  0  0  0
    3.8535  -17.5276    0.0000 C   0  0  0  0  0  0  0  0  0  0  0  0
    4.5691  -17.9388    0.0000 N   0  0  0  0  0  0  0  0  0  0  0  0
    5.2845  -17.5238    0.0000 C   0  0  0  0  0  0  0  0  0  0  0  0
    5.2797  -16.6934    0.0000 N   0  0  0  0  0  0  0  0  0  0  0  0
    4.5634  -16.2860    0.0000 C   0  0  0  0  0  0  0  0  0  0  0  0
    5.9973  -17.9296    0.0000 C   0  0  0  0  0  0  0  0  0  0  0  0
    5.9992  -18.7561    0.0000 C   0  0  0  0  0  0  0  0  0  0  0  0
    6.7148  -19.1660    0.0000 C   0  0  0  0  0  0  0  0  0  0  0  0
    7.4289  -18.7504    0.0000 C   0  0  0  0  0  0  0  0  0  0  0  0
    7.4231  -17.9208    0.0000 C   0  0  0  0  0  0  0  0  0  0  0  0
    6.7070  -17.5147    0.0000 C   0  0  0  0  0  0  0  0  0  0  0  0
    4.5591  -15.4606    0.0000 N   0  0  0  0  0  0  0  0  0  0  0  0
    5.2717  -15.0441    0.0000 C   0  0  0  0  0  0  0  0  0  0  0  0
    5.9841  -15.4565    0.0000 C   0  0  0  0  0  0  0  0  0  0  0  0
    6.6963  -15.0407    0.0000 C   0  0  0  0  0  0  0  0  0  0  0  0
    6.6923  -14.2144    0.0000 C   0  0  0  0  0  0  0  0  0  0  0  0
    5.9703  -13.8057    0.0000 C   0  0  0  0  0  0  0  0  0  0  0  0
    5.2611  -14.2238    0.0000 C   0  0  0  0  0  0  0  0  0  0  0  0
    5.9630  -12.9803    0.0000 O   0  0  0  0  0  0  0  0  0  0  0  0
    7.4043  -13.7970    0.0000 O   0  0  0  0  0  0  0  0  0  0  0  0
    8.1219  -14.2049    0.0000 C   0  0  0  0  0  0  0  0  0  0  0  0
    5.2446  -12.5739    0.0000 C   0  0  0  0  0  0  0  0  0  0  0  0
  3  6  2  0
 13 14  2  0
  6  7  1  0
 14 15  1  0
  1  2  2  0
 15 16  2  0
 16 11  1  0
  8 11  1  0
  7  8  2  0
 10 17  1  0
  5  4  2  0
 17 18  1  0
  8  9  1  0
 18 19  2  0
  4  1  1  0
 19 20  1  0
  9 10  2  0
 20 21  2  0
 10  5  1  0
 21 22  1  0
 22 23  2  0
 23 18  1  0
  2  3  1  0
 22 24  1  0
 11 12  2  0
 21 25  1  0
  5  6  1  0
 25 26  1  0
 12 13  1  0
 24 27  1  0
M  END
>  <Classification>  (150) 
1

>  <pchembl>  (150) 
6.72

>  <InChI_steorem>  (150) 
InChI=1S/C22H19N3O2/c1-26-19-13-12-16(14-20(19)27-2)23-22-17-10-6-7-11-18(17)24-21(25-22)15-8-4-3-5-9-15/h3-14H,1-2H3,(H,23,24,25)

>  <source>  (150) 
ChEMBL25

>  <source_id>  (150) 
25

>  <optional_reference>  (150) 
10.1016/j.bmcl.2012.08.024

>  <optional_origin>  (150) 
None

>  <target>  (150) 
BCRP

$$$$

     RDKit          2D

 27 30  0  0  0  0  0  0  0  0999 V2000
   -4.7223   -1.7375    0.0000 C   0  0  0  0  0  0  0  0  0  0  0  0
   -4.7234   -2.5648    0.0000 C   0  0  0  0  0  0  0  0  0  0  0  0
   -4.0086   -2.9777    0.0000 C   0  0  0  0  0  0  0  0  0  0  0  0
   -4.0104   -1.3247    0.0000 C   0  0  0  0  0  0  0  0  0  0  0  0
   -3.2950   -1.7338    0.0000 C   0  0  0  0  0  0  0  0  0  0  0  0
   -3.2943   -2.5607    0.0000 C   0  0  0  0  0  0  0  0  0  0  0  0
   -2.5790   -2.9716    0.0000 N   0  0  0  0  0  0  0  0  0  0  0  0
   -1.8639   -2.5569    0.0000 C   0  0  0  0  0  0  0  0  0  0  0  0
   -1.8687   -1.7269    0.0000 N   0  0  0  0  0  0  0  0  0  0  0  0
   -2.5846   -1.3197    0.0000 C   0  0  0  0  0  0  0  0  0  0  0  0
   -1.1514   -2.9625    0.0000 C   0  0  0  0  0  0  0  0  0  0  0  0
   -1.1496   -3.7886    0.0000 C   0  0  0  0  0  0  0  0  0  0  0  0
   -0.4344   -4.1982    0.0000 C   0  0  0  0  0  0  0  0  0  0  0  0
    0.2795   -3.7829    0.0000 C   0  0  0  0  0  0  0  0  0  0  0  0
    0.2736   -2.9537    0.0000 C   0  0  0  0  0  0  0  0  0  0  0  0
   -0.4422   -2.5477    0.0000 C   0  0  0  0  0  0  0  0  0  0  0  0
   -2.5890   -0.4947    0.0000 N   0  0  0  0  0  0  0  0  0  0  0  0
   -1.8767   -0.0784    0.0000 C   0  0  0  0  0  0  0  0  0  0  0  0
   -1.1647   -0.4905    0.0000 C   0  0  0  0  0  0  0  0  0  0  0  0
   -0.4529   -0.0749    0.0000 C   0  0  0  0  0  0  0  0  0  0  0  0
   -0.4568    0.7509    0.0000 C   0  0  0  0  0  0  0  0  0  0  0  0
   -1.1785    1.1595    0.0000 C   0  0  0  0  0  0  0  0  0  0  0  0
   -1.8873    0.7415    0.0000 C   0  0  0  0  0  0  0  0  0  0  0  0
    0.2549    1.1682    0.0000 C   0  0  0  0  0  0  0  0  0  0  0  0
    0.9721    0.7604    0.0000 F   0  0  0  0  0  0  0  0  0  0  0  0
    0.2494    1.9932    0.0000 F   0  0  0  0  0  0  0  0  0  0  0  0
    0.9667    1.5875    0.0000 F   0  0  0  0  0  0  0  0  0  0  0  0
  3  6  2  0
 13 14  2  0
  6  7  1  0
 14 15  1  0
  1  2  2  0
 15 16  2  0
 16 11  1  0
  8 11  1  0
  7  8  2  0
 10 17  1  0
  5  4  2  0
 17 18  1  0
  8  9  1  0
 18 19  2  0
  4  1  1  0
 19 20  1  0
  9 10  2  0
 20 21  2  0
 10  5  1  0
 21 22  1  0
 22 23  2  0
 23 18  1  0
  2  3  1  0
 21 24  1  0
 11 12  2  0
 24 25  1  0
  5  6  1  0
 24 26  1  0
 12 13  1  0
 24 27  1  0
M  END
>  <Classification>  (151) 
1

>  <pchembl>  (151) 
5.82

>  <InChI_steorem>  (151) 
InChI=1S/C21H14F3N3/c22-21(23,24)15-10-12-16(13-11-15)25-20-17-8-4-5-9-18(17)26-19(27-20)14-6-2-1-3-7-14/h1-13H,(H,25,26,27)

>  <source>  (151) 
ChEMBL25

>  <source_id>  (151) 
25

>  <optional_reference>  (151) 
10.1016/j.bmcl.2012.08.024

>  <optional_origin>  (151) 
None

>  <target>  (151) 
BCRP

$$$$

     RDKit          2D

 29 33  0  0  0  0  0  0  0  0999 V2000
   10.0611   -3.8000    0.0000 C   0  0  0  0  0  0  0  0  0  0  0  0
   10.0599   -4.6273    0.0000 C   0  0  0  0  0  0  0  0  0  0  0  0
   10.7747   -5.0402    0.0000 C   0  0  0  0  0  0  0  0  0  0  0  0
   10.7729   -3.3872    0.0000 C   0  0  0  0  0  0  0  0  0  0  0  0
   11.4883   -3.7963    0.0000 C   0  0  0  0  0  0  0  0  0  0  0  0
   11.4891   -4.6232    0.0000 C   0  0  0  0  0  0  0  0  0  0  0  0
   12.2044   -5.0341    0.0000 N   0  0  0  0  0  0  0  0  0  0  0  0
   12.9194   -4.6194    0.0000 C   0  0  0  0  0  0  0  0  0  0  0  0
   12.9146   -3.7894    0.0000 N   0  0  0  0  0  0  0  0  0  0  0  0
   12.1987   -3.3822    0.0000 C   0  0  0  0  0  0  0  0  0  0  0  0
   13.6319   -5.0250    0.0000 C   0  0  0  0  0  0  0  0  0  0  0  0
   13.6338   -5.8511    0.0000 C   0  0  0  0  0  0  0  0  0  0  0  0
   14.3490   -6.2607    0.0000 C   0  0  0  0  0  0  0  0  0  0  0  0
   15.0628   -5.8454    0.0000 C   0  0  0  0  0  0  0  0  0  0  0  0
   15.0570   -5.0162    0.0000 C   0  0  0  0  0  0  0  0  0  0  0  0
   14.3412   -4.6102    0.0000 C   0  0  0  0  0  0  0  0  0  0  0  0
   12.1944   -2.5572    0.0000 N   0  0  0  0  0  0  0  0  0  0  0  0
   12.9111   -2.1441    0.0000 C   0  0  0  0  0  0  0  0  0  0  0  0
   12.9087   -1.3227    0.0000 C   0  0  0  0  0  0  0  0  0  0  0  0
   12.1938   -0.9101    0.0000 N   0  0  0  0  0  0  0  0  0  0  0  0
   11.4797   -1.3251    0.0000 C   0  0  0  0  0  0  0  0  0  0  0  0
   11.4805   -2.1528    0.0000 C   0  0  0  0  0  0  0  0  0  0  0  0
   12.1922   -0.0880    0.0000 C   0  0  0  0  0  0  0  0  0  0  0  0
   12.9077    0.3250    0.0000 C   0  0  0  0  0  0  0  0  0  0  0  0
   12.9068    1.1492    0.0000 C   0  0  0  0  0  0  0  0  0  0  0  0
   12.1911    1.5614    0.0000 C   0  0  0  0  0  0  0  0  0  0  0  0
   11.4749    1.1434    0.0000 C   0  0  0  0  0  0  0  0  0  0  0  0
   11.4794    0.3206    0.0000 C   0  0  0  0  0  0  0  0  0  0  0  0
   10.7584    1.5523    0.0000 Br  0  0  0  0  0  0  0  0  0  0  0  0
  6  7  1  0
 14 15  1  0
  1  2  2  0
 15 16  2  0
 16 11  1  0
  8 11  1  0
  7  8  2  0
 10 17  1  0
 17 18  1  0
  5  4  2  0
  8  9  1  0
  4  1  1  0
  9 10  2  0
 10  5  1  0
 17 22  1  0
 18 19  1  0
 19 20  1  0
 20 21  1  0
 21 22  1  0
  2  3  1  0
 23 24  2  0
 11 12  2  0
 24 25  1  0
  5  6  1  0
 25 26  2  0
 12 13  1  0
 26 27  1  0
  3  6  2  0
 27 28  2  0
 28 23  1  0
 20 23  1  0
 13 14  2  0
 27 29  1  0
M  END
>  <Classification>  (152) 
1

>  <pchembl>  (152) 
5.29

>  <InChI_steorem>  (152) 
InChI=1S/C24H21BrN4/c25-19-9-6-10-20(17-19)28-13-15-29(16-14-28)24-21-11-4-5-12-22(21)26-23(27-24)18-7-2-1-3-8-18/h1-12,17H,13-16H2

>  <source>  (152) 
ChEMBL25

>  <source_id>  (152) 
25

>  <optional_reference>  (152) 
10.1016/j.bmcl.2012.08.024

>  <optional_origin>  (152) 
None

>  <target>  (152) 
BCRP

$$$$

     RDKit          2D

 29 33  0  0  0  0  0  0  0  0999 V2000
   16.4683   -3.8747    0.0000 C   0  0  0  0  0  0  0  0  0  0  0  0
   16.4671   -4.7020    0.0000 C   0  0  0  0  0  0  0  0  0  0  0  0
   17.1820   -5.1149    0.0000 C   0  0  0  0  0  0  0  0  0  0  0  0
   17.1802   -3.4620    0.0000 C   0  0  0  0  0  0  0  0  0  0  0  0
   17.8954   -3.8710    0.0000 C   0  0  0  0  0  0  0  0  0  0  0  0
   17.8962   -4.6979    0.0000 C   0  0  0  0  0  0  0  0  0  0  0  0
   18.6115   -5.1088    0.0000 N   0  0  0  0  0  0  0  0  0  0  0  0
   19.3264   -4.6941    0.0000 C   0  0  0  0  0  0  0  0  0  0  0  0
   19.3217   -3.8641    0.0000 N   0  0  0  0  0  0  0  0  0  0  0  0
   18.6059   -3.4570    0.0000 C   0  0  0  0  0  0  0  0  0  0  0  0
   20.0389   -5.0997    0.0000 C   0  0  0  0  0  0  0  0  0  0  0  0
   20.0408   -5.9257    0.0000 C   0  0  0  0  0  0  0  0  0  0  0  0
   20.7559   -6.3353    0.0000 C   0  0  0  0  0  0  0  0  0  0  0  0
   21.4698   -5.9200    0.0000 C   0  0  0  0  0  0  0  0  0  0  0  0
   21.4639   -5.0909    0.0000 C   0  0  0  0  0  0  0  0  0  0  0  0
   20.7481   -4.6849    0.0000 C   0  0  0  0  0  0  0  0  0  0  0  0
   18.6015   -2.6320    0.0000 N   0  0  0  0  0  0  0  0  0  0  0  0
   19.3181   -2.2190    0.0000 C   0  0  0  0  0  0  0  0  0  0  0  0
   19.3157   -1.3976    0.0000 C   0  0  0  0  0  0  0  0  0  0  0  0
   18.6010   -0.9850    0.0000 N   0  0  0  0  0  0  0  0  0  0  0  0
   17.8869   -1.4000    0.0000 C   0  0  0  0  0  0  0  0  0  0  0  0
   17.8876   -2.2277    0.0000 C   0  0  0  0  0  0  0  0  0  0  0  0
   18.5993   -0.1630    0.0000 C   0  0  0  0  0  0  0  0  0  0  0  0
   19.3147    0.2500    0.0000 C   0  0  0  0  0  0  0  0  0  0  0  0
   19.3138    1.0741    0.0000 C   0  0  0  0  0  0  0  0  0  0  0  0
   18.5983    1.4863    0.0000 C   0  0  0  0  0  0  0  0  0  0  0  0
   17.8821    1.0683    0.0000 C   0  0  0  0  0  0  0  0  0  0  0  0
   17.8865    0.2456    0.0000 C   0  0  0  0  0  0  0  0  0  0  0  0
   17.1656    1.4772    0.0000 Cl  0  0  0  0  0  0  0  0  0  0  0  0
  6  7  1  0
 14 15  1  0
  1  2  2  0
 15 16  2  0
 16 11  1  0
  8 11  1  0
  7  8  2  0
 10 17  1  0
 17 18  1  0
  5  4  2  0
  8  9  1  0
  4  1  1  0
  9 10  2  0
 10  5  1  0
 17 22  1  0
 18 19  1  0
 19 20  1  0
 20 21  1  0
 21 22  1  0
  2  3  1  0
 23 24  2  0
 11 12  2  0
 24 25  1  0
  5  6  1  0
 25 26  2  0
 12 13  1  0
 26 27  1  0
  3  6  2  0
 27 28  2  0
 28 23  1  0
 20 23  1  0
 13 14  2  0
 27 29  1  0
M  END
>  <Classification>  (153) 
1

>  <pchembl>  (153) 
5.23

>  <InChI_steorem>  (153) 
InChI=1S/C24H21ClN4/c25-19-9-6-10-20(17-19)28-13-15-29(16-14-28)24-21-11-4-5-12-22(21)26-23(27-24)18-7-2-1-3-8-18/h1-12,17H,13-16H2

>  <source>  (153) 
ChEMBL25

>  <source_id>  (153) 
25

>  <optional_reference>  (153) 
10.1016/j.bmcl.2012.08.024

>  <optional_origin>  (153) 
None

>  <target>  (153) 
BCRP

$$$$

     RDKit          2D

 30 34  0  0  0  0  0  0  0  0999 V2000
    1.9111  -13.9083    0.0000 C   0  0  0  0  0  0  0  0  0  0  0  0
    1.9099  -14.7357    0.0000 C   0  0  0  0  0  0  0  0  0  0  0  0
    2.6247  -15.1485    0.0000 C   0  0  0  0  0  0  0  0  0  0  0  0
    2.6229  -13.4955    0.0000 C   0  0  0  0  0  0  0  0  0  0  0  0
    3.3383  -13.9047    0.0000 C   0  0  0  0  0  0  0  0  0  0  0  0
    3.3391  -14.7315    0.0000 C   0  0  0  0  0  0  0  0  0  0  0  0
    4.0544  -15.1425    0.0000 N   0  0  0  0  0  0  0  0  0  0  0  0
    4.7694  -14.7277    0.0000 C   0  0  0  0  0  0  0  0  0  0  0  0
    4.7646  -13.8977    0.0000 N   0  0  0  0  0  0  0  0  0  0  0  0
    4.0487  -13.4905    0.0000 C   0  0  0  0  0  0  0  0  0  0  0  0
    5.4819  -15.1333    0.0000 C   0  0  0  0  0  0  0  0  0  0  0  0
    5.4838  -15.9594    0.0000 C   0  0  0  0  0  0  0  0  0  0  0  0
    6.1990  -16.3691    0.0000 C   0  0  0  0  0  0  0  0  0  0  0  0
    6.9128  -15.9537    0.0000 C   0  0  0  0  0  0  0  0  0  0  0  0
    6.9070  -15.1245    0.0000 C   0  0  0  0  0  0  0  0  0  0  0  0
    6.1912  -14.7186    0.0000 C   0  0  0  0  0  0  0  0  0  0  0  0
    4.0444  -12.6655    0.0000 N   0  0  0  0  0  0  0  0  0  0  0  0
    4.7611  -12.2524    0.0000 C   0  0  0  0  0  0  0  0  0  0  0  0
    4.7587  -11.4310    0.0000 C   0  0  0  0  0  0  0  0  0  0  0  0
    4.0438  -11.0184    0.0000 N   0  0  0  0  0  0  0  0  0  0  0  0
    3.3297  -11.4335    0.0000 C   0  0  0  0  0  0  0  0  0  0  0  0
    3.3305  -12.2611    0.0000 C   0  0  0  0  0  0  0  0  0  0  0  0
    4.0422  -10.1963    0.0000 C   0  0  0  0  0  0  0  0  0  0  0  0
    4.7577   -9.7834    0.0000 C   0  0  0  0  0  0  0  0  0  0  0  0
    4.7568   -8.9591    0.0000 C   0  0  0  0  0  0  0  0  0  0  0  0
    4.0411   -8.5469    0.0000 C   0  0  0  0  0  0  0  0  0  0  0  0
    3.3249   -8.9649    0.0000 C   0  0  0  0  0  0  0  0  0  0  0  0
    3.3294   -9.7878    0.0000 C   0  0  0  0  0  0  0  0  0  0  0  0
    2.6084   -8.5560    0.0000 O   0  0  0  0  0  0  0  0  0  0  0  0
    2.6042   -7.7310    0.0000 C   0  0  0  0  0  0  0  0  0  0  0  0
 14 15  1  0
  1  2  2  0
 15 16  2  0
 16 11  1  0
  8 11  1  0
  7  8  2  0
 10 17  1  0
 17 18  1  0
  5  4  2  0
  8  9  1  0
  4  1  1  0
  9 10  2  0
 10  5  1  0
 17 22  1  0
 18 19  1  0
 19 20  1  0
 20 21  1  0
 21 22  1  0
  2  3  1  0
 23 24  2  0
 11 12  2  0
 24 25  1  0
  5  6  1  0
 25 26  2  0
 12 13  1  0
 26 27  1  0
  3  6  2  0
 27 28  2  0
 28 23  1  0
 20 23  1  0
 13 14  2  0
 27 29  1  0
  6  7  1  0
 29 30  1  0
M  END
>  <Classification>  (154) 
1

>  <pchembl>  (154) 
5.05

>  <InChI_steorem>  (154) 
InChI=1S/C25H24N4O/c1-30-21-11-7-10-20(18-21)28-14-16-29(17-15-28)25-22-12-5-6-13-23(22)26-24(27-25)19-8-3-2-4-9-19/h2-13,18H,14-17H2,1H3

>  <source>  (154) 
ChEMBL25

>  <source_id>  (154) 
25

>  <optional_reference>  (154) 
10.1016/j.bmcl.2012.08.024

>  <optional_origin>  (154) 
None

>  <target>  (154) 
BCRP

$$$$

     RDKit          2D

 30 34  0  0  0  0  0  0  0  0999 V2000
   -4.4764  -13.7333    0.0000 C   0  0  0  0  0  0  0  0  0  0  0  0
   -4.4776  -14.5607    0.0000 C   0  0  0  0  0  0  0  0  0  0  0  0
   -3.7628  -14.9735    0.0000 C   0  0  0  0  0  0  0  0  0  0  0  0
   -3.7646  -13.3205    0.0000 C   0  0  0  0  0  0  0  0  0  0  0  0
   -3.0492  -13.7297    0.0000 C   0  0  0  0  0  0  0  0  0  0  0  0
   -3.0484  -14.5565    0.0000 C   0  0  0  0  0  0  0  0  0  0  0  0
   -2.3331  -14.9675    0.0000 N   0  0  0  0  0  0  0  0  0  0  0  0
   -1.6181  -14.5527    0.0000 C   0  0  0  0  0  0  0  0  0  0  0  0
   -1.6229  -13.7227    0.0000 N   0  0  0  0  0  0  0  0  0  0  0  0
   -2.3388  -13.3155    0.0000 C   0  0  0  0  0  0  0  0  0  0  0  0
   -0.9056  -14.9583    0.0000 C   0  0  0  0  0  0  0  0  0  0  0  0
   -0.9037  -15.7844    0.0000 C   0  0  0  0  0  0  0  0  0  0  0  0
   -0.1885  -16.1941    0.0000 C   0  0  0  0  0  0  0  0  0  0  0  0
    0.5253  -15.7787    0.0000 C   0  0  0  0  0  0  0  0  0  0  0  0
    0.5195  -14.9495    0.0000 C   0  0  0  0  0  0  0  0  0  0  0  0
   -0.1963  -14.5436    0.0000 C   0  0  0  0  0  0  0  0  0  0  0  0
   -2.3431  -12.4905    0.0000 N   0  0  0  0  0  0  0  0  0  0  0  0
   -1.6264  -12.0774    0.0000 C   0  0  0  0  0  0  0  0  0  0  0  0
   -1.6288  -11.2560    0.0000 C   0  0  0  0  0  0  0  0  0  0  0  0
   -2.3437  -10.8434    0.0000 N   0  0  0  0  0  0  0  0  0  0  0  0
   -3.0578  -11.2585    0.0000 C   0  0  0  0  0  0  0  0  0  0  0  0
   -3.0570  -12.0861    0.0000 C   0  0  0  0  0  0  0  0  0  0  0  0
   -2.3453  -10.0213    0.0000 C   0  0  0  0  0  0  0  0  0  0  0  0
   -1.6298   -9.6084    0.0000 C   0  0  0  0  0  0  0  0  0  0  0  0
   -1.6307   -8.7841    0.0000 C   0  0  0  0  0  0  0  0  0  0  0  0
   -2.3464   -8.3719    0.0000 C   0  0  0  0  0  0  0  0  0  0  0  0
   -3.0626   -8.7899    0.0000 C   0  0  0  0  0  0  0  0  0  0  0  0
   -3.0581   -9.6128    0.0000 C   0  0  0  0  0  0  0  0  0  0  0  0
   -3.7791   -8.3810    0.0000 Cl  0  0  0  0  0  0  0  0  0  0  0  0
   -2.3487   -7.5469    0.0000 F   0  0  0  0  0  0  0  0  0  0  0  0
 14 15  1  0
  1  2  2  0
 15 16  2  0
 16 11  1  0
  8 11  1  0
  7  8  2  0
 10 17  1  0
 17 18  1  0
  5  4  2  0
  8  9  1  0
  4  1  1  0
  9 10  2  0
 10  5  1  0
 17 22  1  0
 18 19  1  0
 19 20  1  0
 20 21  1  0
 21 22  1  0
  2  3  1  0
 23 24  2  0
 11 12  2  0
 24 25  1  0
  5  6  1  0
 25 26  2  0
 12 13  1  0
 26 27  1  0
  3  6  2  0
 27 28  2  0
 28 23  1  0
 20 23  1  0
 13 14  2  0
 27 29  1  0
  6  7  1  0
 26 30  1  0
M  END
>  <Classification>  (155) 
1

>  <pchembl>  (155) 
5.08

>  <InChI_steorem>  (155) 
InChI=1S/C24H20ClFN4/c25-20-16-18(10-11-21(20)26)29-12-14-30(15-13-29)24-19-8-4-5-9-22(19)27-23(28-24)17-6-2-1-3-7-17/h1-11,16H,12-15H2

>  <source>  (155) 
ChEMBL25

>  <source_id>  (155) 
25

>  <optional_reference>  (155) 
10.1016/j.bmcl.2012.08.024

>  <optional_origin>  (155) 
None

>  <target>  (155) 
BCRP

$$$$

     RDKit          2D

 31 35  0  0  0  0  0  0  0  0999 V2000
   15.5681  -14.6071    0.0000 C   0  0  0  0  0  0  0  0  0  0  0  0
   15.5669  -15.4344    0.0000 C   0  0  0  0  0  0  0  0  0  0  0  0
   16.2818  -15.8472    0.0000 C   0  0  0  0  0  0  0  0  0  0  0  0
   16.2800  -14.1943    0.0000 C   0  0  0  0  0  0  0  0  0  0  0  0
   16.9952  -14.6035    0.0000 C   0  0  0  0  0  0  0  0  0  0  0  0
   16.9960  -15.4302    0.0000 C   0  0  0  0  0  0  0  0  0  0  0  0
   17.7112  -15.8412    0.0000 N   0  0  0  0  0  0  0  0  0  0  0  0
   18.4262  -15.4264    0.0000 C   0  0  0  0  0  0  0  0  0  0  0  0
   18.4215  -14.5965    0.0000 N   0  0  0  0  0  0  0  0  0  0  0  0
   17.7056  -14.1893    0.0000 C   0  0  0  0  0  0  0  0  0  0  0  0
   19.1386  -15.8320    0.0000 C   0  0  0  0  0  0  0  0  0  0  0  0
   19.1405  -16.6580    0.0000 C   0  0  0  0  0  0  0  0  0  0  0  0
   19.8557  -17.0677    0.0000 C   0  0  0  0  0  0  0  0  0  0  0  0
   20.5695  -16.6523    0.0000 C   0  0  0  0  0  0  0  0  0  0  0  0
   20.5636  -15.8232    0.0000 C   0  0  0  0  0  0  0  0  0  0  0  0
   19.8479  -15.4173    0.0000 C   0  0  0  0  0  0  0  0  0  0  0  0
   17.7012  -13.3644    0.0000 N   0  0  0  0  0  0  0  0  0  0  0  0
   18.4179  -12.9513    0.0000 C   0  0  0  0  0  0  0  0  0  0  0  0
   18.4155  -12.1300    0.0000 C   0  0  0  0  0  0  0  0  0  0  0  0
   17.7007  -11.7174    0.0000 N   0  0  0  0  0  0  0  0  0  0  0  0
   16.9867  -12.1325    0.0000 C   0  0  0  0  0  0  0  0  0  0  0  0
   16.9874  -12.9600    0.0000 C   0  0  0  0  0  0  0  0  0  0  0  0
   17.6990  -10.8954    0.0000 C   0  0  0  0  0  0  0  0  0  0  0  0
   18.4145  -10.4825    0.0000 C   0  0  0  0  0  0  0  0  0  0  0  0
   18.4136   -9.6583    0.0000 C   0  0  0  0  0  0  0  0  0  0  0  0
   17.6980   -9.2461    0.0000 C   0  0  0  0  0  0  0  0  0  0  0  0
   16.9819   -9.6641    0.0000 C   0  0  0  0  0  0  0  0  0  0  0  0
   16.9863  -10.4869    0.0000 C   0  0  0  0  0  0  0  0  0  0  0  0
   17.6950   -8.4195    0.0000 N   0  0  0  0  0  0  0  0  0  0  0  0
   16.9794   -8.0090    0.0000 O   0  0  0  0  0  0  0  0  0  0  0  0
   18.4082   -8.0049    0.0000 O   0  0  0  0  0  0  0  0  0  0  0  0
  1  2  2  0
 15 16  2  0
 16 11  1  0
  8 11  1  0
  7  8  2  0
 10 17  1  0
 17 18  1  0
  5  4  2  0
  8  9  1  0
  4  1  1  0
  9 10  2  0
 10  5  1  0
 17 22  1  0
 18 19  1  0
 19 20  1  0
 20 21  1  0
 21 22  1  0
  2  3  1  0
 23 24  2  0
 11 12  2  0
 24 25  1  0
  5  6  1  0
 25 26  2  0
 12 13  1  0
 26 27  1  0
  3  6  2  0
 27 28  2  0
 28 23  1  0
 20 23  1  0
 13 14  2  0
  6  7  1  0
 14 15  1  0
 29 30  2  0
 29 31  1  0
 26 29  1  0
M  CHG  2  29   1  31  -1
M  END
>  <Classification>  (156) 
1

>  <pchembl>  (156) 
5.03

>  <InChI_steorem>  (156) 
InChI=1S/C24H21N5O2/c30-29(31)20-12-10-19(11-13-20)27-14-16-28(17-15-27)24-21-8-4-5-9-22(21)25-23(26-24)18-6-2-1-3-7-18/h1-13H,14-17H2

>  <source>  (156) 
ChEMBL25

>  <source_id>  (156) 
25

>  <optional_reference>  (156) 
10.1016/j.bmcl.2012.08.024

>  <optional_origin>  (156) 
None

>  <target>  (156) 
BCRP

$$$$

     RDKit          2D

 31 35  0  0  0  0  0  0  0  0999 V2000
    8.6986  -13.7625    0.0000 C   0  0  0  0  0  0  0  0  0  0  0  0
    8.6974  -14.5898    0.0000 C   0  0  0  0  0  0  0  0  0  0  0  0
    9.4122  -15.0027    0.0000 C   0  0  0  0  0  0  0  0  0  0  0  0
    9.4104  -13.3497    0.0000 C   0  0  0  0  0  0  0  0  0  0  0  0
   10.1258  -13.7588    0.0000 C   0  0  0  0  0  0  0  0  0  0  0  0
   10.1266  -14.5857    0.0000 C   0  0  0  0  0  0  0  0  0  0  0  0
   10.8419  -14.9966    0.0000 N   0  0  0  0  0  0  0  0  0  0  0  0
   11.5569  -14.5819    0.0000 C   0  0  0  0  0  0  0  0  0  0  0  0
   11.5521  -13.7519    0.0000 N   0  0  0  0  0  0  0  0  0  0  0  0
   10.8362  -13.3447    0.0000 C   0  0  0  0  0  0  0  0  0  0  0  0
   12.2694  -14.9875    0.0000 C   0  0  0  0  0  0  0  0  0  0  0  0
   12.2713  -15.8136    0.0000 C   0  0  0  0  0  0  0  0  0  0  0  0
   12.9865  -16.2232    0.0000 C   0  0  0  0  0  0  0  0  0  0  0  0
   13.7003  -15.8079    0.0000 C   0  0  0  0  0  0  0  0  0  0  0  0
   13.6945  -14.9787    0.0000 C   0  0  0  0  0  0  0  0  0  0  0  0
   12.9787  -14.5727    0.0000 C   0  0  0  0  0  0  0  0  0  0  0  0
   10.8319  -12.5197    0.0000 N   0  0  0  0  0  0  0  0  0  0  0  0
   11.5486  -12.1066    0.0000 C   0  0  0  0  0  0  0  0  0  0  0  0
   11.5462  -11.2852    0.0000 C   0  0  0  0  0  0  0  0  0  0  0  0
   10.8313  -10.8726    0.0000 N   0  0  0  0  0  0  0  0  0  0  0  0
   10.1172  -11.2876    0.0000 C   0  0  0  0  0  0  0  0  0  0  0  0
   10.1180  -12.1153    0.0000 C   0  0  0  0  0  0  0  0  0  0  0  0
   10.8297  -10.0505    0.0000 C   0  0  0  0  0  0  0  0  0  0  0  0
   11.5452   -9.6375    0.0000 C   0  0  0  0  0  0  0  0  0  0  0  0
   11.5443   -8.8133    0.0000 C   0  0  0  0  0  0  0  0  0  0  0  0
   10.8286   -8.4011    0.0000 C   0  0  0  0  0  0  0  0  0  0  0  0
   10.1124   -8.8191    0.0000 C   0  0  0  0  0  0  0  0  0  0  0  0
   10.1169   -9.6419    0.0000 C   0  0  0  0  0  0  0  0  0  0  0  0
    9.3948   -8.4085    0.0000 N   0  0  0  0  0  0  0  0  0  0  0  0
    8.6824   -8.8246    0.0000 O   0  0  0  0  0  0  0  0  0  0  0  0
    9.3906   -7.5835    0.0000 O   0  0  0  0  0  0  0  0  0  0  0  0
  1  2  2  0
 15 16  2  0
 16 11  1  0
  8 11  1  0
  7  8  2  0
 10 17  1  0
 17 18  1  0
  5  4  2  0
  8  9  1  0
  4  1  1  0
  9 10  2  0
 10  5  1  0
 17 22  1  0
 18 19  1  0
 19 20  1  0
 20 21  1  0
 21 22  1  0
  2  3  1  0
 23 24  2  0
 11 12  2  0
 24 25  1  0
  5  6  1  0
 25 26  2  0
 12 13  1  0
 26 27  1  0
  3  6  2  0
 27 28  2  0
 28 23  1  0
 20 23  1  0
 13 14  2  0
  6  7  1  0
 14 15  1  0
 29 30  2  0
 29 31  1  0
 27 29  1  0
M  CHG  2  29   1  31  -1
M  END
>  <Classification>  (157) 
1

>  <pchembl>  (157) 
5.1

>  <InChI_steorem>  (157) 
InChI=1S/C24H21N5O2/c30-29(31)20-10-6-9-19(17-20)27-13-15-28(16-14-27)24-21-11-4-5-12-22(21)25-23(26-24)18-7-2-1-3-8-18/h1-12,17H,13-16H2

>  <source>  (157) 
ChEMBL25

>  <source_id>  (157) 
25

>  <optional_reference>  (157) 
10.1016/j.bmcl.2012.08.024

>  <optional_origin>  (157) 
None

>  <target>  (157) 
BCRP

$$$$

     RDKit          2D

 28 32  0  0  0  0  0  0  0  0999 V2000
    2.6465   -1.5720    0.0000 C   0  0  0  0  0  0  0  0  0  0  0  0
    2.6453   -2.4001    0.0000 C   0  0  0  0  0  0  0  0  0  0  0  0
    3.3607   -2.8132    0.0000 C   0  0  0  0  0  0  0  0  0  0  0  0
    3.3589   -1.1589    0.0000 C   0  0  0  0  0  0  0  0  0  0  0  0
    4.0748   -1.5684    0.0000 C   0  0  0  0  0  0  0  0  0  0  0  0
    4.0756   -2.3959    0.0000 C   0  0  0  0  0  0  0  0  0  0  0  0
    4.7914   -2.8072    0.0000 N   0  0  0  0  0  0  0  0  0  0  0  0
    5.5070   -2.3921    0.0000 C   0  0  0  0  0  0  0  0  0  0  0  0
    5.5023   -1.5614    0.0000 N   0  0  0  0  0  0  0  0  0  0  0  0
    4.7858   -1.1539    0.0000 C   0  0  0  0  0  0  0  0  0  0  0  0
    4.7814   -0.3283    0.0000 N   0  0  0  0  0  0  0  0  0  0  0  0
    5.4964    0.0892    0.0000 C   0  0  0  0  0  0  0  0  0  0  0  0
    5.4940    0.9111    0.0000 C   0  0  0  0  0  0  0  0  0  0  0  0
    4.7786    1.3240    0.0000 N   0  0  0  0  0  0  0  0  0  0  0  0
    4.0640    0.9087    0.0000 C   0  0  0  0  0  0  0  0  0  0  0  0
    4.0647    0.0804    0.0000 C   0  0  0  0  0  0  0  0  0  0  0  0
    6.2201   -2.7980    0.0000 C   0  0  0  0  0  0  0  0  0  0  0  0
    6.2220   -3.6247    0.0000 C   0  0  0  0  0  0  0  0  0  0  0  0
    6.9377   -4.0348    0.0000 C   0  0  0  0  0  0  0  0  0  0  0  0
    7.6522   -3.6190    0.0000 C   0  0  0  0  0  0  0  0  0  0  0  0
    7.6463   -2.7892    0.0000 C   0  0  0  0  0  0  0  0  0  0  0  0
    6.9299   -2.3830    0.0000 C   0  0  0  0  0  0  0  0  0  0  0  0
    4.7773    2.1497    0.0000 C   0  0  0  0  0  0  0  0  0  0  0  0
    5.4917    2.5619    0.0000 C   0  0  0  0  0  0  0  0  0  0  0  0
    5.4908    3.3868    0.0000 C   0  0  0  0  0  0  0  0  0  0  0  0
    4.7745    3.7994    0.0000 C   0  0  0  0  0  0  0  0  0  0  0  0
    4.0578    3.3810    0.0000 C   0  0  0  0  0  0  0  0  0  0  0  0
    4.0623    2.5575    0.0000 C   0  0  0  0  0  0  0  0  0  0  0  0
  6  7  1  0
  1  2  2  0
 11 16  1  0
 12 13  1  0
 13 14  1  0
 14 15  1  0
 15 16  1  0
  7  8  2  0
  5  4  2  0
 17 18  2  0
  8  9  1  0
 18 19  1  0
  4  1  1  0
 19 20  2  0
  9 10  2  0
 20 21  1  0
 10  5  1  0
 21 22  2  0
 22 17  1  0
  8 17  1  0
 14 23  1  0
 10 11  1  0
 23 24  2  0
 11 12  1  0
 24 25  1  0
  2  3  1  0
 25 26  2  0
  5  6  1  0
 26 27  1  0
  3  6  2  0
 27 28  2  0
 28 23  1  0
M  END
>  <Classification>  (158) 
1

>  <pchembl>  (158) 
5.05

>  <InChI_steorem>  (158) 
InChI=1S/C24H22N4/c1-3-9-19(10-4-1)23-25-22-14-8-7-13-21(22)24(26-23)28-17-15-27(16-18-28)20-11-5-2-6-12-20/h1-14H,15-18H2

>  <source>  (158) 
ChEMBL25

>  <source_id>  (158) 
25

>  <optional_reference>  (158) 
10.1016/j.bmcl.2012.08.024

>  <optional_origin>  (158) 
None

>  <target>  (158) 
BCRP

$$$$

     RDKit          2D

 19 20  0  0  0  0  0  0  0  0999 V2000
   30.8152   -2.5416    0.0000 C   0  0  0  0  0  0  0  0  0  0  0  0
   30.8141   -3.3690    0.0000 C   0  0  0  0  0  0  0  0  0  0  0  0
   31.5289   -3.7819    0.0000 C   0  0  0  0  0  0  0  0  0  0  0  0
   32.2453   -3.3685    0.0000 C   0  0  0  0  0  0  0  0  0  0  0  0
   32.2425   -2.5380    0.0000 C   0  0  0  0  0  0  0  0  0  0  0  0
   31.5271   -2.1289    0.0000 C   0  0  0  0  0  0  0  0  0  0  0  0
   32.9554   -2.1228    0.0000 C   0  0  0  0  0  0  0  0  0  0  0  0
   33.6714   -2.5326    0.0000 C   0  0  0  0  0  0  0  0  0  0  0  0
   32.9523   -1.2978    0.0000 O   0  0  0  0  0  0  0  0  0  0  0  0
   34.3843   -2.1174    0.0000 C   0  0  0  0  0  0  0  0  0  0  0  0
   35.1003   -2.5272    0.0000 C   0  0  0  0  0  0  0  0  0  0  0  0
   35.1003   -3.3511    0.0000 C   0  0  0  0  0  0  0  0  0  0  0  0
   35.8155   -3.7608    0.0000 C   0  0  0  0  0  0  0  0  0  0  0  0
   36.5294   -3.3456    0.0000 C   0  0  0  0  0  0  0  0  0  0  0  0
   36.5236   -2.5163    0.0000 C   0  0  0  0  0  0  0  0  0  0  0  0
   35.8079   -2.1103    0.0000 C   0  0  0  0  0  0  0  0  0  0  0  0
   32.9605   -3.7799    0.0000 O   0  0  0  0  0  0  0  0  0  0  0  0
   30.0993   -3.7809    0.0000 O   0  0  0  0  0  0  0  0  0  0  0  0
   35.8011   -1.2854    0.0000 Cl  0  0  0  0  0  0  0  0  0  0  0  0
  4  5  2  0
  8 10  2  3
  2  3  2  0
 10 11  1  0
  5  6  1  0
 11 12  2  0
  6  1  2  0
 12 13  1  0
  1  2  1  0
 13 14  2  0
  5  7  1  0
 14 15  1  0
  3  4  1  0
 15 16  2  0
 16 11  1  0
  7  8  1  0
  4 17  1  0
  2 18  1  0
  7  9  2  0
 16 19  1  0
M  END
>  <Classification>  (159) 
1

>  <pchembl>  (159) 
5.49

>  <InChI_steorem>  (159) 
InChI=1S/C15H11ClO3/c16-13-4-2-1-3-10(13)5-8-14(18)12-7-6-11(17)9-15(12)19/h1-9,17,19H

>  <source>  (159) 
ChEMBL25

>  <source_id>  (159) 
25

>  <optional_reference>  (159) 
10.1016/j.bmc.2011.10.074

>  <optional_origin>  (159) 
None

>  <target>  (159) 
BCRP

$$$$

     RDKit          2D

 21 22  0  0  0  0  0  0  0  0999 V2000
   22.6736  -19.5000    0.0000 C   0  0  0  0  0  0  0  0  0  0  0  0
   22.6724  -20.3273    0.0000 C   0  0  0  0  0  0  0  0  0  0  0  0
   23.3872  -20.7402    0.0000 C   0  0  0  0  0  0  0  0  0  0  0  0
   24.1037  -20.3269    0.0000 C   0  0  0  0  0  0  0  0  0  0  0  0
   24.1008  -19.4963    0.0000 C   0  0  0  0  0  0  0  0  0  0  0  0
   23.3854  -19.0872    0.0000 C   0  0  0  0  0  0  0  0  0  0  0  0
   24.8137  -19.0811    0.0000 C   0  0  0  0  0  0  0  0  0  0  0  0
   25.5297  -19.4909    0.0000 C   0  0  0  0  0  0  0  0  0  0  0  0
   24.8106  -18.2561    0.0000 O   0  0  0  0  0  0  0  0  0  0  0  0
   26.2427  -19.0758    0.0000 C   0  0  0  0  0  0  0  0  0  0  0  0
   26.9587  -19.4856    0.0000 C   0  0  0  0  0  0  0  0  0  0  0  0
   26.9587  -20.3094    0.0000 C   0  0  0  0  0  0  0  0  0  0  0  0
   27.6738  -20.7191    0.0000 C   0  0  0  0  0  0  0  0  0  0  0  0
   28.3877  -20.3039    0.0000 C   0  0  0  0  0  0  0  0  0  0  0  0
   28.3820  -19.4746    0.0000 C   0  0  0  0  0  0  0  0  0  0  0  0
   27.6662  -19.0687    0.0000 C   0  0  0  0  0  0  0  0  0  0  0  0
   23.3870  -21.5652    0.0000 O   0  0  0  0  0  0  0  0  0  0  0  0
   22.6725  -21.9775    0.0000 C   0  0  0  0  0  0  0  0  0  0  0  0
   21.9576  -20.7393    0.0000 O   0  0  0  0  0  0  0  0  0  0  0  0
   21.2435  -20.3262    0.0000 C   0  0  0  0  0  0  0  0  0  0  0  0
   27.6594  -18.2437    0.0000 Cl  0  0  0  0  0  0  0  0  0  0  0  0
  2  3  2  0
 10 11  1  0
  5  6  1  0
 11 12  2  0
  6  1  2  0
 12 13  1  0
  1  2  1  0
 13 14  2  0
  5  7  1  0
 14 15  1  0
  3  4  1  0
 15 16  2  0
 16 11  1  0
  7  8  1  0
  3 17  1  0
 17 18  1  0
  7  9  2  0
  2 19  1  0
  4  5  2  0
 19 20  1  0
  8 10  2  3
 16 21  1  0
M  END
>  <Classification>  (160) 
0

>  <pchembl>  (160) 
4.96

>  <InChI_steorem>  (160) 
InChI=1S/C17H15ClO3/c1-20-16-10-8-13(11-17(16)21-2)15(19)9-7-12-5-3-4-6-14(12)18/h3-11H,1-2H3

>  <source>  (160) 
ChEMBL25

>  <source_id>  (160) 
25

>  <optional_reference>  (160) 
10.1016/j.bmc.2011.10.074

>  <optional_origin>  (160) 
None

>  <target>  (160) 
BCRP

$$$$

     RDKit          2D

 21 22  0  0  0  0  0  0  0  0999 V2000
   30.7194  -19.2250    0.0000 C   0  0  0  0  0  0  0  0  0  0  0  0
   30.7182  -20.0523    0.0000 C   0  0  0  0  0  0  0  0  0  0  0  0
   31.4331  -20.4652    0.0000 C   0  0  0  0  0  0  0  0  0  0  0  0
   32.1495  -20.0519    0.0000 C   0  0  0  0  0  0  0  0  0  0  0  0
   32.1466  -19.2213    0.0000 C   0  0  0  0  0  0  0  0  0  0  0  0
   31.4313  -18.8122    0.0000 C   0  0  0  0  0  0  0  0  0  0  0  0
   32.8596  -18.8061    0.0000 C   0  0  0  0  0  0  0  0  0  0  0  0
   33.5756  -19.2159    0.0000 C   0  0  0  0  0  0  0  0  0  0  0  0
   32.8564  -17.9811    0.0000 O   0  0  0  0  0  0  0  0  0  0  0  0
   34.2885  -18.8008    0.0000 C   0  0  0  0  0  0  0  0  0  0  0  0
   35.0045  -19.2106    0.0000 C   0  0  0  0  0  0  0  0  0  0  0  0
   35.0045  -20.0344    0.0000 C   0  0  0  0  0  0  0  0  0  0  0  0
   35.7197  -20.4441    0.0000 C   0  0  0  0  0  0  0  0  0  0  0  0
   36.4336  -20.0289    0.0000 C   0  0  0  0  0  0  0  0  0  0  0  0
   36.4278  -19.1996    0.0000 C   0  0  0  0  0  0  0  0  0  0  0  0
   35.7120  -18.7937    0.0000 C   0  0  0  0  0  0  0  0  0  0  0  0
   30.0034  -20.4643    0.0000 O   0  0  0  0  0  0  0  0  0  0  0  0
   29.2893  -20.0512    0.0000 C   0  0  0  0  0  0  0  0  0  0  0  0
   31.4329  -21.2902    0.0000 O   0  0  0  0  0  0  0  0  0  0  0  0
   30.7183  -21.7025    0.0000 C   0  0  0  0  0  0  0  0  0  0  0  0
   37.1501  -20.4378    0.0000 Cl  0  0  0  0  0  0  0  0  0  0  0  0
  2  3  2  0
 10 11  1  0
  5  6  1  0
 11 12  2  0
  6  1  2  0
 12 13  1  0
  1  2  1  0
 13 14  2  0
  5  7  1  0
 14 15  1  0
  3  4  1  0
 15 16  2  0
 16 11  1  0
  7  8  1  0
  2 17  1  0
 17 18  1  0
  7  9  2  0
  3 19  1  0
  4  5  2  0
 19 20  1  0
  8 10  2  3
 14 21  1  0
M  END
>  <Classification>  (161) 
1

>  <pchembl>  (161) 
5.57

>  <InChI_steorem>  (161) 
InChI=1S/C17H15ClO3/c1-20-16-10-6-13(11-17(16)21-2)15(19)9-5-12-3-7-14(18)8-4-12/h3-11H,1-2H3

>  <source>  (161) 
ChEMBL25

>  <source_id>  (161) 
25

>  <optional_reference>  (161) 
10.1016/j.bmc.2011.10.074

>  <optional_origin>  (161) 
None

>  <target>  (161) 
BCRP

$$$$

     RDKit          2D

 21 23  0  0  0  0  0  0  0  0999 V2000
   -2.8961  -10.5922    0.0000 C   0  0  0  0  0  0  0  0  0  0  0  0
   -2.1807  -11.0053    0.0000 C   0  0  0  0  0  0  0  0  0  0  0  0
   -1.4639  -10.5917    0.0000 C   0  0  0  0  0  0  0  0  0  0  0  0
   -1.4668   -9.7607    0.0000 C   0  0  0  0  0  0  0  0  0  0  0  0
   -0.7534   -9.3452    0.0000 C   0  0  0  0  0  0  0  0  0  0  0  0
   -0.0369   -9.7553    0.0000 C   0  0  0  0  0  0  0  0  0  0  0  0
   -0.7566   -8.5197    0.0000 O   0  0  0  0  0  0  0  0  0  0  0  0
    0.6764   -9.3398    0.0000 C   0  0  0  0  0  0  0  0  0  0  0  0
    1.3929   -9.7499    0.0000 C   0  0  0  0  0  0  0  0  0  0  0  0
    1.3929  -10.5743    0.0000 C   0  0  0  0  0  0  0  0  0  0  0  0
    2.1085  -10.9843    0.0000 C   0  0  0  0  0  0  0  0  0  0  0  0
    2.8228  -10.5687    0.0000 C   0  0  0  0  0  0  0  0  0  0  0  0
    2.8170   -9.7390    0.0000 C   0  0  0  0  0  0  0  0  0  0  0  0
    2.1008   -9.3327    0.0000 C   0  0  0  0  0  0  0  0  0  0  0  0
   -0.7484  -11.0034    0.0000 O   0  0  0  0  0  0  0  0  0  0  0  0
   -2.8949   -9.7643    0.0000 C   0  0  0  0  0  0  0  0  0  0  0  0
   -2.1836   -9.3525    0.0000 C   0  0  0  0  0  0  0  0  0  0  0  0
   -2.1856   -8.5325    0.0000 C   0  0  0  0  0  0  0  0  0  0  0  0
   -2.8982   -8.1234    0.0000 C   0  0  0  0  0  0  0  0  0  0  0  0
   -3.6101   -8.5403    0.0000 C   0  0  0  0  0  0  0  0  0  0  0  0
   -3.6046   -9.3589    0.0000 C   0  0  0  0  0  0  0  0  0  0  0  0
  9 10  2  0
  1  2  2  0
 10 11  1  0
  4  5  1  0
 11 12  2  0
 16  1  1  0
 12 13  1  0
  5  6  1  0
 13 14  2  0
 14  9  1  0
  2  3  1  0
  3 15  1  0
  5  7  2  0
 16 17  2  0
  6  8  2  3
 17 18  1  0
  3  4  2  0
 18 19  2  0
  8  9  1  0
 19 20  1  0
  4 17  1  0
 20 21  2  0
 21 16  1  0
M  END
>  <Classification>  (162) 
1

>  <pchembl>  (162) 
5.56

>  <InChI_steorem>  (162) 
InChI=1S/C19H14O2/c20-17(12-10-14-6-2-1-3-7-14)19-16-9-5-4-8-15(16)11-13-18(19)21/h1-13,21H

>  <source>  (162) 
ChEMBL25

>  <source_id>  (162) 
25

>  <optional_reference>  (162) 
10.1016/j.bmc.2011.10.074

>  <optional_origin>  (162) 
None

>  <target>  (162) 
BCRP

$$$$

     RDKit          2D

 21 23  0  0  0  0  0  0  0  0999 V2000
   -3.3931   -0.3250    0.0000 C   0  0  0  0  0  0  0  0  0  0  0  0
   -1.9630   -1.1519    0.0000 C   0  0  0  0  0  0  0  0  0  0  0  0
   -1.9659   -0.3213    0.0000 C   0  0  0  0  0  0  0  0  0  0  0  0
   -2.6812    0.0878    0.0000 C   0  0  0  0  0  0  0  0  0  0  0  0
   -1.2529    0.0939    0.0000 C   0  0  0  0  0  0  0  0  0  0  0  0
   -0.5369   -0.3159    0.0000 C   0  0  0  0  0  0  0  0  0  0  0  0
   -1.2561    0.9189    0.0000 O   0  0  0  0  0  0  0  0  0  0  0  0
    0.1760    0.0992    0.0000 C   0  0  0  0  0  0  0  0  0  0  0  0
    0.8920   -0.3106    0.0000 C   0  0  0  0  0  0  0  0  0  0  0  0
    0.8920   -1.1344    0.0000 C   0  0  0  0  0  0  0  0  0  0  0  0
    1.6072   -1.5441    0.0000 C   0  0  0  0  0  0  0  0  0  0  0  0
    2.3211   -1.1289    0.0000 C   0  0  0  0  0  0  0  0  0  0  0  0
    2.3153   -0.2996    0.0000 C   0  0  0  0  0  0  0  0  0  0  0  0
    1.5995    0.1063    0.0000 C   0  0  0  0  0  0  0  0  0  0  0  0
   -1.2479   -1.5632    0.0000 O   0  0  0  0  0  0  0  0  0  0  0  0
   -2.6794   -1.5652    0.0000 C   0  0  0  0  0  0  0  0  0  0  0  0
   -3.3943   -1.1523    0.0000 C   0  0  0  0  0  0  0  0  0  0  0  0
   -4.1071   -1.5649    0.0000 C   0  0  0  0  0  0  0  0  0  0  0  0
   -4.1063   -2.3901    0.0000 C   0  0  0  0  0  0  0  0  0  0  0  0
   -3.3868   -2.8011    0.0000 C   0  0  0  0  0  0  0  0  0  0  0  0
   -2.6769   -2.3862    0.0000 C   0  0  0  0  0  0  0  0  0  0  0  0
  9 10  2  0
 16  2  2  0
 10 11  1  0
  3  5  1  0
 11 12  2  0
  1 17  2  0
 12 13  1  0
  5  6  1  0
 13 14  2  0
 14  9  1  0
  2  3  1  0
  2 15  1  0
  5  7  2  0
 16 17  1  0
  6  8  2  3
 17 18  1  0
  3  4  2  0
 18 19  2  0
  8  9  1  0
 19 20  1  0
  4  1  1  0
 20 21  2  0
 21 16  1  0
M  END
>  <Classification>  (163) 
0

>  <pchembl>  (163) 
4.61

>  <InChI_steorem>  (163) 
InChI=1S/C19H14O2/c20-18(13-10-14-6-2-1-3-7-14)17-12-11-15-8-4-5-9-16(15)19(17)21/h1-13,21H

>  <source>  (163) 
ChEMBL25

>  <source_id>  (163) 
25

>  <optional_reference>  (163) 
10.1016/j.bmc.2011.10.074

>  <optional_origin>  (163) 
None

>  <target>  (163) 
BCRP

$$$$

     RDKit          2D

 22 24  0  0  0  0  0  0  0  0999 V2000
   -2.6167  -15.5578    0.0000 C   0  0  0  0  0  0  0  0  0  0  0  0
   -1.9015  -15.9708    0.0000 C   0  0  0  0  0  0  0  0  0  0  0  0
   -1.1845  -15.5573    0.0000 C   0  0  0  0  0  0  0  0  0  0  0  0
   -1.1874  -14.7263    0.0000 C   0  0  0  0  0  0  0  0  0  0  0  0
   -0.4741  -14.3108    0.0000 C   0  0  0  0  0  0  0  0  0  0  0  0
    0.2423  -14.7209    0.0000 C   0  0  0  0  0  0  0  0  0  0  0  0
   -0.4772  -13.4853    0.0000 O   0  0  0  0  0  0  0  0  0  0  0  0
    0.9558  -14.3054    0.0000 C   0  0  0  0  0  0  0  0  0  0  0  0
    1.6722  -14.7155    0.0000 C   0  0  0  0  0  0  0  0  0  0  0  0
    1.6722  -15.5399    0.0000 C   0  0  0  0  0  0  0  0  0  0  0  0
    2.3878  -15.9498    0.0000 C   0  0  0  0  0  0  0  0  0  0  0  0
    3.1021  -15.5343    0.0000 C   0  0  0  0  0  0  0  0  0  0  0  0
    3.0964  -14.7045    0.0000 C   0  0  0  0  0  0  0  0  0  0  0  0
    2.3802  -14.2983    0.0000 C   0  0  0  0  0  0  0  0  0  0  0  0
    2.3734  -13.4728    0.0000 Cl  0  0  0  0  0  0  0  0  0  0  0  0
   -0.4690  -15.9689    0.0000 O   0  0  0  0  0  0  0  0  0  0  0  0
   -2.6155  -14.7299    0.0000 C   0  0  0  0  0  0  0  0  0  0  0  0
   -1.9043  -14.3180    0.0000 C   0  0  0  0  0  0  0  0  0  0  0  0
   -1.9064  -13.4981    0.0000 C   0  0  0  0  0  0  0  0  0  0  0  0
   -2.6188  -13.0890    0.0000 C   0  0  0  0  0  0  0  0  0  0  0  0
   -3.3307  -13.5058    0.0000 C   0  0  0  0  0  0  0  0  0  0  0  0
   -3.3252  -14.3244    0.0000 C   0  0  0  0  0  0  0  0  0  0  0  0
  1  2  2  0
 10 11  2  0
  4  5  1  0
 11 12  1  0
 17  1  1  0
 12 13  2  0
  5  6  1  0
 13 14  1  0
 14  9  2  0
  2  3  1  0
 14 15  1  0
  5  7  2  0
  3 16  1  0
  6  8  2  3
 17 18  2  0
  3  4  2  0
 18 19  1  0
  8  9  1  0
 19 20  2  0
  4 18  1  0
 20 21  1  0
  9 10  1  0
 21 22  2  0
 22 17  1  0
M  END
>  <Classification>  (164) 
1

>  <pchembl>  (164) 
5.28

>  <InChI_steorem>  (164) 
InChI=1S/C19H13ClO2/c20-16-8-4-2-6-14(16)10-12-18(22)19-15-7-3-1-5-13(15)9-11-17(19)21/h1-12,21H

>  <source>  (164) 
ChEMBL25

>  <source_id>  (164) 
25

>  <optional_reference>  (164) 
10.1016/j.bmc.2011.10.074

>  <optional_origin>  (164) 
None

>  <target>  (164) 
BCRP

$$$$

     RDKit          2D

 23 25  0  0  0  0  0  0  0  0999 V2000
   15.8902   -4.8416    0.0000 C   0  0  0  0  0  0  0  0  0  0  0  0
   17.3203   -5.6685    0.0000 C   0  0  0  0  0  0  0  0  0  0  0  0
   17.3175   -4.8380    0.0000 C   0  0  0  0  0  0  0  0  0  0  0  0
   16.6021   -4.4289    0.0000 C   0  0  0  0  0  0  0  0  0  0  0  0
   18.0304   -4.4228    0.0000 C   0  0  0  0  0  0  0  0  0  0  0  0
   18.7464   -4.8326    0.0000 C   0  0  0  0  0  0  0  0  0  0  0  0
   18.0273   -3.5978    0.0000 O   0  0  0  0  0  0  0  0  0  0  0  0
   19.4593   -4.4174    0.0000 C   0  0  0  0  0  0  0  0  0  0  0  0
   20.1753   -4.8272    0.0000 C   0  0  0  0  0  0  0  0  0  0  0  0
   20.1753   -5.6511    0.0000 C   0  0  0  0  0  0  0  0  0  0  0  0
   20.8905   -6.0608    0.0000 C   0  0  0  0  0  0  0  0  0  0  0  0
   21.6044   -5.6456    0.0000 C   0  0  0  0  0  0  0  0  0  0  0  0
   21.5986   -4.8163    0.0000 C   0  0  0  0  0  0  0  0  0  0  0  0
   20.8829   -4.4103    0.0000 C   0  0  0  0  0  0  0  0  0  0  0  0
   22.3210   -6.0544    0.0000 Cl  0  0  0  0  0  0  0  0  0  0  0  0
   22.3101   -4.3986    0.0000 Cl  0  0  0  0  0  0  0  0  0  0  0  0
   18.0355   -6.0799    0.0000 O   0  0  0  0  0  0  0  0  0  0  0  0
   16.6039   -6.0819    0.0000 C   0  0  0  0  0  0  0  0  0  0  0  0
   15.8891   -5.6690    0.0000 C   0  0  0  0  0  0  0  0  0  0  0  0
   15.1762   -6.0815    0.0000 C   0  0  0  0  0  0  0  0  0  0  0  0
   15.1770   -6.9068    0.0000 C   0  0  0  0  0  0  0  0  0  0  0  0
   15.8965   -7.3177    0.0000 C   0  0  0  0  0  0  0  0  0  0  0  0
   16.6064   -6.9029    0.0000 C   0  0  0  0  0  0  0  0  0  0  0  0
 10 11  2  0
  3  5  1  0
 11 12  1  0
  1 19  2  0
 12 13  2  0
  5  6  1  0
 13 14  1  0
 14  9  2  0
  2  3  1  0
 12 15  1  0
  5  7  2  0
 13 16  1  0
  2 17  1  0
  6  8  2  3
  3  4  2  0
 18 19  1  0
  8  9  1  0
 19 20  1  0
  4  1  1  0
 20 21  2  0
  9 10  1  0
 21 22  1  0
 18  2  2  0
 22 23  2  0
 23 18  1  0
M  END
>  <Classification>  (165) 
0

>  <pchembl>  (165) 
4.58

>  <InChI_steorem>  (165) 
InChI=1S/C19H12Cl2O2/c20-16-9-5-12(11-17(16)21)6-10-18(22)15-8-7-13-3-1-2-4-14(13)19(15)23/h1-11,23H

>  <source>  (165) 
ChEMBL25

>  <source_id>  (165) 
25

>  <optional_reference>  (165) 
10.1016/j.bmc.2011.10.074

>  <optional_origin>  (165) 
None

>  <target>  (165) 
BCRP

$$$$

     RDKit          2D

 23 25  0  0  0  0  0  0  0  0999 V2000
   16.3947  -15.1074    0.0000 C   0  0  0  0  0  0  0  0  0  0  0  0
   17.1097  -15.5205    0.0000 C   0  0  0  0  0  0  0  0  0  0  0  0
   17.8264  -15.1070    0.0000 C   0  0  0  0  0  0  0  0  0  0  0  0
   17.8236  -14.2762    0.0000 C   0  0  0  0  0  0  0  0  0  0  0  0
   18.5367  -13.8608    0.0000 C   0  0  0  0  0  0  0  0  0  0  0  0
   19.2530  -14.2708    0.0000 C   0  0  0  0  0  0  0  0  0  0  0  0
   18.5336  -13.0355    0.0000 O   0  0  0  0  0  0  0  0  0  0  0  0
   19.9661  -13.8555    0.0000 C   0  0  0  0  0  0  0  0  0  0  0  0
   20.6824  -14.2655    0.0000 C   0  0  0  0  0  0  0  0  0  0  0  0
   20.6824  -15.0895    0.0000 C   0  0  0  0  0  0  0  0  0  0  0  0
   21.3978  -15.4994    0.0000 C   0  0  0  0  0  0  0  0  0  0  0  0
   22.1119  -15.0840    0.0000 C   0  0  0  0  0  0  0  0  0  0  0  0
   22.1061  -14.2545    0.0000 C   0  0  0  0  0  0  0  0  0  0  0  0
   21.3902  -13.8484    0.0000 C   0  0  0  0  0  0  0  0  0  0  0  0
   22.8288  -15.4931    0.0000 Cl  0  0  0  0  0  0  0  0  0  0  0  0
   22.8179  -13.8366    0.0000 Cl  0  0  0  0  0  0  0  0  0  0  0  0
   18.5418  -15.5185    0.0000 O   0  0  0  0  0  0  0  0  0  0  0  0
   16.3958  -14.2799    0.0000 C   0  0  0  0  0  0  0  0  0  0  0  0
   17.1068  -13.8681    0.0000 C   0  0  0  0  0  0  0  0  0  0  0  0
   17.1048  -13.0483    0.0000 C   0  0  0  0  0  0  0  0  0  0  0  0
   16.3925  -12.6393    0.0000 C   0  0  0  0  0  0  0  0  0  0  0  0
   15.6807  -13.0561    0.0000 C   0  0  0  0  0  0  0  0  0  0  0  0
   15.6863  -13.8744    0.0000 C   0  0  0  0  0  0  0  0  0  0  0  0
 10 11  2  0
  4  5  1  0
 11 12  1  0
 18  1  2  0
 12 13  2  0
  5  6  1  0
 13 14  1  0
 14  9  2  0
  2  3  2  0
 12 15  1  0
  5  7  2  0
 13 16  1  0
  3 17  1  0
  6  8  2  3
  3  4  1  0
 18 19  1  0
  8  9  1  0
 19 20  1  0
  4 19  2  0
 20 21  2  0
  9 10  1  0
 21 22  1  0
  1  2  1  0
 22 23  2  0
 23 18  1  0
M  END
>  <Classification>  (166) 
1

>  <pchembl>  (166) 
5.06

>  <InChI_steorem>  (166) 
InChI=1S/C19H12Cl2O2/c20-15-8-5-12(11-16(15)21)6-9-17(22)19-14-4-2-1-3-13(14)7-10-18(19)23/h1-11,23H

>  <source>  (166) 
ChEMBL25

>  <source_id>  (166) 
25

>  <optional_reference>  (166) 
10.1016/j.bmc.2011.10.074

>  <optional_origin>  (166) 
None

>  <target>  (166) 
BCRP

$$$$

     RDKit          2D

 23 25  0  0  0  0  0  0  0  0999 V2000
   26.2569    0.2625    0.0000 C   0  0  0  0  0  0  0  0  0  0  0  0
   27.6870   -0.5644    0.0000 C   0  0  0  0  0  0  0  0  0  0  0  0
   27.6841    0.2662    0.0000 C   0  0  0  0  0  0  0  0  0  0  0  0
   26.9688    0.6753    0.0000 C   0  0  0  0  0  0  0  0  0  0  0  0
   28.3971    0.6814    0.0000 C   0  0  0  0  0  0  0  0  0  0  0  0
   29.1131    0.2716    0.0000 C   0  0  0  0  0  0  0  0  0  0  0  0
   28.3939    1.5064    0.0000 O   0  0  0  0  0  0  0  0  0  0  0  0
   29.8260    0.6867    0.0000 C   0  0  0  0  0  0  0  0  0  0  0  0
   30.5420    0.2769    0.0000 C   0  0  0  0  0  0  0  0  0  0  0  0
   30.5420   -0.5469    0.0000 C   0  0  0  0  0  0  0  0  0  0  0  0
   31.2572   -0.9566    0.0000 C   0  0  0  0  0  0  0  0  0  0  0  0
   31.9711   -0.5414    0.0000 C   0  0  0  0  0  0  0  0  0  0  0  0
   31.9653    0.2879    0.0000 C   0  0  0  0  0  0  0  0  0  0  0  0
   31.2495    0.6938    0.0000 C   0  0  0  0  0  0  0  0  0  0  0  0
   32.6767    0.7056    0.0000 O   0  0  0  0  0  0  0  0  0  0  0  0
   33.3942    0.2983    0.0000 C   0  0  0  0  0  0  0  0  0  0  0  0
   28.4021   -0.9757    0.0000 O   0  0  0  0  0  0  0  0  0  0  0  0
   26.9706   -0.9777    0.0000 C   0  0  0  0  0  0  0  0  0  0  0  0
   26.2557   -0.5648    0.0000 C   0  0  0  0  0  0  0  0  0  0  0  0
   25.5429   -0.9774    0.0000 C   0  0  0  0  0  0  0  0  0  0  0  0
   25.5437   -1.8026    0.0000 C   0  0  0  0  0  0  0  0  0  0  0  0
   26.2632   -2.2136    0.0000 C   0  0  0  0  0  0  0  0  0  0  0  0
   26.9731   -1.7987    0.0000 C   0  0  0  0  0  0  0  0  0  0  0  0
 10 11  2  0
  3  5  1  0
 11 12  1  0
  1 19  2  0
 12 13  2  0
  5  6  1  0
 13 14  1  0
 14  9  2  0
  2  3  1  0
 13 15  1  0
  5  7  2  0
 15 16  1  0
  2 17  1  0
  6  8  2  3
  3  4  2  0
 18 19  1  0
  8  9  1  0
 19 20  1  0
  4  1  1  0
 20 21  2  0
  9 10  1  0
 21 22  1  0
 18  2  2  0
 22 23  2  0
 23 18  1  0
M  END
>  <Classification>  (167) 
0

>  <pchembl>  (167) 
4.92

>  <InChI_steorem>  (167) 
InChI=1S/C20H16O3/c1-23-16-7-4-5-14(13-16)9-12-19(21)18-11-10-15-6-2-3-8-17(15)20(18)22/h2-13,22H,1H3

>  <source>  (167) 
ChEMBL25

>  <source_id>  (167) 
25

>  <optional_reference>  (167) 
10.1016/j.bmc.2011.10.074

>  <optional_origin>  (167) 
None

>  <target>  (167) 
BCRP

$$$$

     RDKit          2D

 23 25  0  0  0  0  0  0  0  0999 V2000
   26.8271   -9.9723    0.0000 C   0  0  0  0  0  0  0  0  0  0  0  0
   27.5422  -10.3853    0.0000 C   0  0  0  0  0  0  0  0  0  0  0  0
   28.2588   -9.9718    0.0000 C   0  0  0  0  0  0  0  0  0  0  0  0
   28.2559   -9.1410    0.0000 C   0  0  0  0  0  0  0  0  0  0  0  0
   28.9692   -8.7257    0.0000 C   0  0  0  0  0  0  0  0  0  0  0  0
   29.6854   -9.1356    0.0000 C   0  0  0  0  0  0  0  0  0  0  0  0
   28.9660   -7.9004    0.0000 O   0  0  0  0  0  0  0  0  0  0  0  0
   30.3985   -8.7203    0.0000 C   0  0  0  0  0  0  0  0  0  0  0  0
   31.1148   -9.1302    0.0000 C   0  0  0  0  0  0  0  0  0  0  0  0
   31.1148   -9.9544    0.0000 C   0  0  0  0  0  0  0  0  0  0  0  0
   31.8302  -10.3642    0.0000 C   0  0  0  0  0  0  0  0  0  0  0  0
   32.5443   -9.9489    0.0000 C   0  0  0  0  0  0  0  0  0  0  0  0
   32.5385   -9.1193    0.0000 C   0  0  0  0  0  0  0  0  0  0  0  0
   31.8225   -8.7132    0.0000 C   0  0  0  0  0  0  0  0  0  0  0  0
   33.2502   -8.7015    0.0000 O   0  0  0  0  0  0  0  0  0  0  0  0
   33.9679   -9.1089    0.0000 C   0  0  0  0  0  0  0  0  0  0  0  0
   28.9742  -10.3833    0.0000 O   0  0  0  0  0  0  0  0  0  0  0  0
   26.8283   -9.1446    0.0000 C   0  0  0  0  0  0  0  0  0  0  0  0
   27.5393   -8.7330    0.0000 C   0  0  0  0  0  0  0  0  0  0  0  0
   27.5373   -7.9132    0.0000 C   0  0  0  0  0  0  0  0  0  0  0  0
   26.8250   -7.5042    0.0000 C   0  0  0  0  0  0  0  0  0  0  0  0
   26.1132   -7.9209    0.0000 C   0  0  0  0  0  0  0  0  0  0  0  0
   26.1187   -8.7393    0.0000 C   0  0  0  0  0  0  0  0  0  0  0  0
 10 11  2  0
  4  5  1  0
 11 12  1  0
 18  1  2  0
 12 13  2  0
  5  6  1  0
 13 14  1  0
 14  9  2  0
  2  3  2  0
 13 15  1  0
  5  7  2  0
 15 16  1  0
  3 17  1  0
  6  8  2  3
  3  4  1  0
 18 19  1  0
  8  9  1  0
 19 20  1  0
  4 19  2  0
 20 21  2  0
  9 10  1  0
 21 22  1  0
  1  2  1  0
 22 23  2  0
 23 18  1  0
M  END
>  <Classification>  (168) 
1

>  <pchembl>  (168) 
5.71

>  <InChI_steorem>  (168) 
InChI=1S/C20H16O3/c1-23-16-7-4-5-14(13-16)9-11-18(21)20-17-8-3-2-6-15(17)10-12-19(20)22/h2-13,22H,1H3

>  <source>  (168) 
ChEMBL25

>  <source_id>  (168) 
25

>  <optional_reference>  (168) 
10.1016/j.bmc.2011.10.074

>  <optional_origin>  (168) 
None

>  <target>  (168) 
BCRP

$$$$

     RDKit          2D

 23 25  0  0  0  0  0  0  0  0999 V2000
    6.4361    0.0084    0.0000 C   0  0  0  0  0  0  0  0  0  0  0  0
    7.8662   -0.8185    0.0000 C   0  0  0  0  0  0  0  0  0  0  0  0
    7.8633    0.0120    0.0000 C   0  0  0  0  0  0  0  0  0  0  0  0
    7.1479    0.4211    0.0000 C   0  0  0  0  0  0  0  0  0  0  0  0
    8.5762    0.4272    0.0000 C   0  0  0  0  0  0  0  0  0  0  0  0
    9.2922    0.0174    0.0000 C   0  0  0  0  0  0  0  0  0  0  0  0
    8.5731    1.2522    0.0000 O   0  0  0  0  0  0  0  0  0  0  0  0
   10.0052    0.4326    0.0000 C   0  0  0  0  0  0  0  0  0  0  0  0
   10.7212    0.0228    0.0000 C   0  0  0  0  0  0  0  0  0  0  0  0
   10.7212   -0.8011    0.0000 C   0  0  0  0  0  0  0  0  0  0  0  0
   11.4363   -1.2108    0.0000 C   0  0  0  0  0  0  0  0  0  0  0  0
   12.1502   -0.7956    0.0000 C   0  0  0  0  0  0  0  0  0  0  0  0
   12.1445    0.0337    0.0000 C   0  0  0  0  0  0  0  0  0  0  0  0
   11.4287    0.4397    0.0000 C   0  0  0  0  0  0  0  0  0  0  0  0
   12.8668   -1.2044    0.0000 O   0  0  0  0  0  0  0  0  0  0  0  0
   12.8710   -2.0294    0.0000 C   0  0  0  0  0  0  0  0  0  0  0  0
    8.5813   -1.2299    0.0000 O   0  0  0  0  0  0  0  0  0  0  0  0
    7.1497   -1.2319    0.0000 C   0  0  0  0  0  0  0  0  0  0  0  0
    6.4349   -0.8190    0.0000 C   0  0  0  0  0  0  0  0  0  0  0  0
    5.7221   -1.2315    0.0000 C   0  0  0  0  0  0  0  0  0  0  0  0
    5.7228   -2.0568    0.0000 C   0  0  0  0  0  0  0  0  0  0  0  0
    6.4424   -2.4677    0.0000 C   0  0  0  0  0  0  0  0  0  0  0  0
    7.1523   -2.0529    0.0000 C   0  0  0  0  0  0  0  0  0  0  0  0
 10 11  2  0
  3  5  1  0
 11 12  1  0
  1 19  2  0
 12 13  2  0
  5  6  1  0
 13 14  1  0
 14  9  2  0
  2  3  1  0
 12 15  1  0
  5  7  2  0
 15 16  1  0
  2 17  1  0
  6  8  2  3
  3  4  2  0
 18 19  1  0
  8  9  1  0
 19 20  1  0
  4  1  1  0
 20 21  2  0
  9 10  1  0
 21 22  1  0
 18  2  2  0
 22 23  2  0
 23 18  1  0
M  END
>  <Classification>  (169) 
0

>  <pchembl>  (169) 
4.77

>  <InChI_steorem>  (169) 
InChI=1S/C20H16O3/c1-23-16-10-6-14(7-11-16)8-13-19(21)18-12-9-15-4-2-3-5-17(15)20(18)22/h2-13,22H,1H3

>  <source>  (169) 
ChEMBL25

>  <source_id>  (169) 
25

>  <optional_reference>  (169) 
10.1016/j.bmc.2011.10.074

>  <optional_origin>  (169) 
None

>  <target>  (169) 
BCRP

$$$$

     RDKit          2D

 23 25  0  0  0  0  0  0  0  0999 V2000
    6.9374  -10.2560    0.0000 C   0  0  0  0  0  0  0  0  0  0  0  0
    7.6525  -10.6691    0.0000 C   0  0  0  0  0  0  0  0  0  0  0  0
    8.3692  -10.2556    0.0000 C   0  0  0  0  0  0  0  0  0  0  0  0
    8.3663   -9.4247    0.0000 C   0  0  0  0  0  0  0  0  0  0  0  0
    9.0795   -9.0094    0.0000 C   0  0  0  0  0  0  0  0  0  0  0  0
    9.7957   -9.4193    0.0000 C   0  0  0  0  0  0  0  0  0  0  0  0
    9.0764   -8.1841    0.0000 O   0  0  0  0  0  0  0  0  0  0  0  0
   10.5090   -9.0041    0.0000 C   0  0  0  0  0  0  0  0  0  0  0  0
   11.2253   -9.4140    0.0000 C   0  0  0  0  0  0  0  0  0  0  0  0
   11.2253  -10.2381    0.0000 C   0  0  0  0  0  0  0  0  0  0  0  0
   11.9406  -10.6480    0.0000 C   0  0  0  0  0  0  0  0  0  0  0  0
   12.6548  -10.2326    0.0000 C   0  0  0  0  0  0  0  0  0  0  0  0
   12.6491   -9.4030    0.0000 C   0  0  0  0  0  0  0  0  0  0  0  0
   11.9330   -8.9970    0.0000 C   0  0  0  0  0  0  0  0  0  0  0  0
   13.3716  -10.6416    0.0000 O   0  0  0  0  0  0  0  0  0  0  0  0
   13.3758  -11.4668    0.0000 C   0  0  0  0  0  0  0  0  0  0  0  0
    9.0846  -10.6671    0.0000 O   0  0  0  0  0  0  0  0  0  0  0  0
    6.9386   -9.4284    0.0000 C   0  0  0  0  0  0  0  0  0  0  0  0
    7.6497   -9.0167    0.0000 C   0  0  0  0  0  0  0  0  0  0  0  0
    7.6476   -8.1969    0.0000 C   0  0  0  0  0  0  0  0  0  0  0  0
    6.9353   -7.7878    0.0000 C   0  0  0  0  0  0  0  0  0  0  0  0
    6.2236   -8.2046    0.0000 C   0  0  0  0  0  0  0  0  0  0  0  0
    6.2291   -9.0230    0.0000 C   0  0  0  0  0  0  0  0  0  0  0  0
 10 11  2  0
  4  5  1  0
 11 12  1  0
 18  1  2  0
 12 13  2  0
  5  6  1  0
 13 14  1  0
 14  9  2  0
  2  3  2  0
 12 15  1  0
  5  7  2  0
 15 16  1  0
  3 17  1  0
  6  8  2  3
  3  4  1  0
 18 19  1  0
  8  9  1  0
 19 20  1  0
  4 19  2  0
 20 21  2  0
  9 10  1  0
 21 22  1  0
  1  2  1  0
 22 23  2  0
 23 18  1  0
M  END
>  <Classification>  (170) 
1

>  <pchembl>  (170) 
5.42

>  <InChI_steorem>  (170) 
InChI=1S/C20H16O3/c1-23-16-10-6-14(7-11-16)8-12-18(21)20-17-5-3-2-4-15(17)9-13-19(20)22/h2-13,22H,1H3

>  <source>  (170) 
ChEMBL25

>  <source_id>  (170) 
25

>  <optional_reference>  (170) 
10.1016/j.bmc.2011.10.074

>  <optional_origin>  (170) 
None

>  <target>  (170) 
BCRP

$$$$

     RDKit          2D

 24 25  0  0  0  0  0  0  0  0999 V2000
   30.1236  -11.3833    0.0000 C   0  0  0  0  0  0  0  0  0  0  0  0
   30.1224  -12.2107    0.0000 C   0  0  0  0  0  0  0  0  0  0  0  0
   30.8372  -12.6235    0.0000 C   0  0  0  0  0  0  0  0  0  0  0  0
   31.5537  -12.2102    0.0000 C   0  0  0  0  0  0  0  0  0  0  0  0
   31.5508  -11.3797    0.0000 C   0  0  0  0  0  0  0  0  0  0  0  0
   30.8354  -10.9705    0.0000 C   0  0  0  0  0  0  0  0  0  0  0  0
   32.2637  -10.9645    0.0000 C   0  0  0  0  0  0  0  0  0  0  0  0
   32.9797  -11.3743    0.0000 C   0  0  0  0  0  0  0  0  0  0  0  0
   32.2606  -10.1395    0.0000 O   0  0  0  0  0  0  0  0  0  0  0  0
   33.6927  -10.9591    0.0000 C   0  0  0  0  0  0  0  0  0  0  0  0
   34.4087  -11.3689    0.0000 C   0  0  0  0  0  0  0  0  0  0  0  0
   34.4087  -12.1928    0.0000 C   0  0  0  0  0  0  0  0  0  0  0  0
   35.1238  -12.6025    0.0000 C   0  0  0  0  0  0  0  0  0  0  0  0
   35.8377  -12.1872    0.0000 C   0  0  0  0  0  0  0  0  0  0  0  0
   35.8320  -11.3580    0.0000 C   0  0  0  0  0  0  0  0  0  0  0  0
   35.1162  -10.9520    0.0000 C   0  0  0  0  0  0  0  0  0  0  0  0
   29.4076  -12.6226    0.0000 O   0  0  0  0  0  0  0  0  0  0  0  0
   29.4070  -13.4476    0.0000 C   0  0  0  0  0  0  0  0  0  0  0  0
   32.2688  -12.6216    0.0000 O   0  0  0  0  0  0  0  0  0  0  0  0
   32.2701  -13.4466    0.0000 C   0  0  0  0  0  0  0  0  0  0  0  0
   36.5543  -12.5961    0.0000 O   0  0  0  0  0  0  0  0  0  0  0  0
   36.5434  -10.9403    0.0000 O   0  0  0  0  0  0  0  0  0  0  0  0
   37.2609  -11.3476    0.0000 C   0  0  0  0  0  0  0  0  0  0  0  0
   37.2667  -12.1800    0.0000 C   0  0  0  0  0  0  0  0  0  0  0  0
 11 12  2  0
  6  1  2  0
 12 13  1  0
  1  2  1  0
 13 14  2  0
  5  7  1  0
 14 15  1  0
  3  4  1  0
 15 16  2  0
 16 11  1  0
  7  8  1  0
  2 17  1  0
 17 18  1  0
  7  9  2  0
  4 19  1  0
  4  5  2  0
 19 20  1  0
  8 10  2  3
 14 21  1  0
  2  3  2  0
 15 22  1  0
 10 11  1  0
 22 23  1  0
  5  6  1  0
 21 24  1  0
M  END
>  <Classification>  (171) 
1

>  <pchembl>  (171) 
5.66

>  <InChI_steorem>  (171) 
InChI=1S/C19H20O5/c1-21-14-7-8-15(18(12-14)23-3)16(20)9-5-13-6-10-17(22-2)19(11-13)24-4/h5-12H,1-4H3

>  <source>  (171) 
ChEMBL25

>  <source_id>  (171) 
25

>  <optional_reference>  (171) 
10.1016/j.bmc.2011.10.074

>  <optional_origin>  (171) 
None

>  <target>  (171) 
BCRP

$$$$

     RDKit          2D

 25 27  0  0  0  0  0  0  0  0999 V2000
   16.2027    0.2917    0.0000 C   0  0  0  0  0  0  0  0  0  0  0  0
   17.6328   -0.5352    0.0000 C   0  0  0  0  0  0  0  0  0  0  0  0
   17.6300    0.2953    0.0000 C   0  0  0  0  0  0  0  0  0  0  0  0
   16.9146    0.7045    0.0000 C   0  0  0  0  0  0  0  0  0  0  0  0
   18.3429    0.7105    0.0000 C   0  0  0  0  0  0  0  0  0  0  0  0
   19.0589    0.3007    0.0000 C   0  0  0  0  0  0  0  0  0  0  0  0
   18.3398    1.5355    0.0000 O   0  0  0  0  0  0  0  0  0  0  0  0
   19.7718    0.7159    0.0000 C   0  0  0  0  0  0  0  0  0  0  0  0
   20.4878    0.3061    0.0000 C   0  0  0  0  0  0  0  0  0  0  0  0
   20.4878   -0.5178    0.0000 C   0  0  0  0  0  0  0  0  0  0  0  0
   21.2030   -0.9275    0.0000 C   0  0  0  0  0  0  0  0  0  0  0  0
   21.9169   -0.5122    0.0000 C   0  0  0  0  0  0  0  0  0  0  0  0
   21.9111    0.3170    0.0000 C   0  0  0  0  0  0  0  0  0  0  0  0
   21.1954    0.7230    0.0000 C   0  0  0  0  0  0  0  0  0  0  0  0
   22.6335   -0.9211    0.0000 O   0  0  0  0  0  0  0  0  0  0  0  0
   22.6226    0.7347    0.0000 O   0  0  0  0  0  0  0  0  0  0  0  0
   23.3400    0.3274    0.0000 C   0  0  0  0  0  0  0  0  0  0  0  0
   23.3458   -0.5049    0.0000 C   0  0  0  0  0  0  0  0  0  0  0  0
   18.3480   -0.9466    0.0000 O   0  0  0  0  0  0  0  0  0  0  0  0
   16.9164   -0.9485    0.0000 C   0  0  0  0  0  0  0  0  0  0  0  0
   16.2016   -0.5357    0.0000 C   0  0  0  0  0  0  0  0  0  0  0  0
   15.4887   -0.9482    0.0000 C   0  0  0  0  0  0  0  0  0  0  0  0
   15.4895   -1.7734    0.0000 C   0  0  0  0  0  0  0  0  0  0  0  0
   16.2090   -2.1844    0.0000 C   0  0  0  0  0  0  0  0  0  0  0  0
   16.9189   -1.7695    0.0000 C   0  0  0  0  0  0  0  0  0  0  0  0
 11 12  2  0
  1 21  2  0
 12 13  1  0
  5  6  1  0
 13 14  2  0
 14  9  1  0
  2  3  1  0
 12 15  1  0
  5  7  2  0
 13 16  1  0
 16 17  1  0
  6  8  2  3
 15 18  1  0
  3  4  2  0
  2 19  1  0
  8  9  1  0
  4  1  1  0
 20 21  1  0
  9 10  2  0
 21 22  1  0
 20  2  2  0
 22 23  2  0
 10 11  1  0
 23 24  1  0
  3  5  1  0
 24 25  2  0
 25 20  1  0
M  END
>  <Classification>  (172) 
1

>  <pchembl>  (172) 
5.6

>  <InChI_steorem>  (172) 
InChI=1S/C21H18O4/c1-24-19-12-8-14(13-20(19)25-2)7-11-18(22)17-10-9-15-5-3-4-6-16(15)21(17)23/h3-13,23H,1-2H3

>  <source>  (172) 
ChEMBL25

>  <source_id>  (172) 
25

>  <optional_reference>  (172) 
10.1016/j.bmc.2011.10.074

>  <optional_origin>  (172) 
None

>  <target>  (172) 
BCRP

$$$$

     RDKit          2D

 25 27  0  0  0  0  0  0  0  0999 V2000
   16.7027   -9.9697    0.0000 C   0  0  0  0  0  0  0  0  0  0  0  0
   17.4176  -10.3826    0.0000 C   0  0  0  0  0  0  0  0  0  0  0  0
   18.1340   -9.9692    0.0000 C   0  0  0  0  0  0  0  0  0  0  0  0
   18.1312   -9.1386    0.0000 C   0  0  0  0  0  0  0  0  0  0  0  0
   18.8442   -8.7234    0.0000 C   0  0  0  0  0  0  0  0  0  0  0  0
   19.5602   -9.1332    0.0000 C   0  0  0  0  0  0  0  0  0  0  0  0
   18.8411   -7.8983    0.0000 O   0  0  0  0  0  0  0  0  0  0  0  0
   20.2732   -8.7180    0.0000 C   0  0  0  0  0  0  0  0  0  0  0  0
   20.9892   -9.1278    0.0000 C   0  0  0  0  0  0  0  0  0  0  0  0
   20.9892   -9.9518    0.0000 C   0  0  0  0  0  0  0  0  0  0  0  0
   21.7045  -10.3615    0.0000 C   0  0  0  0  0  0  0  0  0  0  0  0
   22.4184   -9.9463    0.0000 C   0  0  0  0  0  0  0  0  0  0  0  0
   22.4126   -9.1169    0.0000 C   0  0  0  0  0  0  0  0  0  0  0  0
   21.6969   -8.7109    0.0000 C   0  0  0  0  0  0  0  0  0  0  0  0
   23.1351  -10.3551    0.0000 O   0  0  0  0  0  0  0  0  0  0  0  0
   23.1242   -8.6992    0.0000 O   0  0  0  0  0  0  0  0  0  0  0  0
   23.8416   -9.1065    0.0000 C   0  0  0  0  0  0  0  0  0  0  0  0
   23.8474   -9.9390    0.0000 C   0  0  0  0  0  0  0  0  0  0  0  0
   18.8493  -10.3806    0.0000 O   0  0  0  0  0  0  0  0  0  0  0  0
   16.7038   -9.1422    0.0000 C   0  0  0  0  0  0  0  0  0  0  0  0
   17.4147   -8.7307    0.0000 C   0  0  0  0  0  0  0  0  0  0  0  0
   17.4127   -7.9111    0.0000 C   0  0  0  0  0  0  0  0  0  0  0  0
   16.7005   -7.5022    0.0000 C   0  0  0  0  0  0  0  0  0  0  0  0
   15.9890   -7.9188    0.0000 C   0  0  0  0  0  0  0  0  0  0  0  0
   15.9946   -8.7370    0.0000 C   0  0  0  0  0  0  0  0  0  0  0  0
 11 12  2  0
 20  1  2  0
 12 13  1  0
  5  6  1  0
 13 14  2  0
 14  9  1  0
  2  3  2  0
 12 15  1  0
  5  7  2  0
 13 16  1  0
 16 17  1  0
  6  8  2  3
 15 18  1  0
  3  4  1  0
  3 19  1  0
  8  9  1  0
  4 21  2  0
 20 21  1  0
  9 10  2  0
 21 22  1  0
  1  2  1  0
 22 23  2  0
 10 11  1  0
 23 24  1  0
  4  5  1  0
 24 25  2  0
 25 20  1  0
M  END
>  <Classification>  (173) 
1

>  <pchembl>  (173) 
5.74

>  <InChI_steorem>  (173) 
InChI=1S/C21H18O4/c1-24-19-12-8-14(13-20(19)25-2)7-10-17(22)21-16-6-4-3-5-15(16)9-11-18(21)23/h3-13,23H,1-2H3

>  <source>  (173) 
ChEMBL25

>  <source_id>  (173) 
25

>  <optional_reference>  (173) 
10.1016/j.bmc.2011.10.074

>  <optional_origin>  (173) 
None

>  <target>  (173) 
BCRP

$$$$

     RDKit          2D

 25 28  0  0  0  0  0  0  0  0999 V2000
   -1.4002   -1.9857    0.0000 O   0  0  0  0  0  0  0  0  0  0  0  0
   -2.1146    0.9018    0.0000 N   0  0  0  0  0  0  0  0  0  0  0  0
   -1.4002    2.1393    0.0000 N   0  0  0  0  0  0  0  0  0  0  0  0
   -1.4002   -0.3357    0.0000 N   0  0  0  0  0  0  0  0  0  0  0  0
   -0.6857    0.9018    0.0000 C   0  0  0  0  0  0  0  0  0  0  0  0
   -1.4002    0.4893    0.0000 C   0  0  0  0  0  0  0  0  0  0  0  0
   -0.6857    1.7268    0.0000 C   0  0  0  0  0  0  0  0  0  0  0  0
   -2.1146    1.7268    0.0000 C   0  0  0  0  0  0  0  0  0  0  0  0
   -2.8291    2.1393    0.0000 C   0  0  0  0  0  0  0  0  0  0  0  0
   -0.6857   -0.7482    0.0000 C   0  0  0  0  0  0  0  0  0  0  0  0
    0.0288    0.4893    0.0000 C   0  0  0  0  0  0  0  0  0  0  0  0
    0.0288    2.1393    0.0000 C   0  0  0  0  0  0  0  0  0  0  0  0
   -0.6857   -1.5732    0.0000 C   0  0  0  0  0  0  0  0  0  0  0  0
    0.7432    0.9018    0.0000 C   0  0  0  0  0  0  0  0  0  0  0  0
    0.7432    1.7268    0.0000 C   0  0  0  0  0  0  0  0  0  0  0  0
   -3.5436    1.7268    0.0000 C   0  0  0  0  0  0  0  0  0  0  0  0
   -2.8291    2.9643    0.0000 C   0  0  0  0  0  0  0  0  0  0  0  0
    0.0288   -0.3357    0.0000 C   0  0  0  0  0  0  0  0  0  0  0  0
    0.0288   -1.9857    0.0000 C   0  0  0  0  0  0  0  0  0  0  0  0
    0.7432   -0.7482    0.0000 C   0  0  0  0  0  0  0  0  0  0  0  0
   -4.2581    2.1393    0.0000 C   0  0  0  0  0  0  0  0  0  0  0  0
   -3.5436    3.3768    0.0000 C   0  0  0  0  0  0  0  0  0  0  0  0
    0.7432   -1.5732    0.0000 C   0  0  0  0  0  0  0  0  0  0  0  0
   -4.2581    2.9643    0.0000 C   0  0  0  0  0  0  0  0  0  0  0  0
   -1.4002   -2.8107    0.0000 C   0  0  0  0  0  0  0  0  0  0  0  0
  1 13  1  0
  1 25  1  0
  2  6  2  0
  2  8  1  0
  3  7  1  0
  3  8  2  0
  4  6  1  0
  4 10  1  0
  5  6  1  0
  5  7  2  0
  5 11  1  0
  7 12  1  0
  8  9  1  0
  9 16  2  0
  9 17  1  0
 10 13  2  0
 10 18  1  0
 11 14  2  0
 12 15  2  0
 13 19  1  0
 14 15  1  0
 16 21  1  0
 17 22  2  0
 18 20  2  0
 19 23  2  0
 20 23  1  0
 21 24  2  0
 22 24  1  0
M  END
>  <Classification>  (174) 
1

>  <pchembl>  (174) 
5.65

>  <InChI_steorem>  (174) 
InChI=1S/C21H17N3O/c1-25-19-14-8-7-13-18(19)23-21-16-11-5-6-12-17(16)22-20(24-21)15-9-3-2-4-10-15/h2-14H,1H3,(H,22,23,24)

>  <source>  (174) 
ChEMBL25

>  <source_id>  (174) 
25

>  <optional_reference>  (174) 
10.1016/j.bmcl.2012.08.024

>  <optional_origin>  (174) 
None

>  <target>  (174) 
BCRP

$$$$

     RDKit          2D

 24 27  0  0  0  0  0  0  0  0999 V2000
    3.2054   -2.5844    0.0000 O   0  0  0  0  0  0  0  0  0  0  0  0
   -0.3670   -1.3469    0.0000 N   0  0  0  0  0  0  0  0  0  0  0  0
    0.3475   -0.1094    0.0000 N   0  0  0  0  0  0  0  0  0  0  0  0
    0.3475   -2.5844    0.0000 N   0  0  0  0  0  0  0  0  0  0  0  0
    1.0620   -1.3469    0.0000 C   0  0  0  0  0  0  0  0  0  0  0  0
    0.3475   -1.7594    0.0000 C   0  0  0  0  0  0  0  0  0  0  0  0
    1.0620   -0.5219    0.0000 C   0  0  0  0  0  0  0  0  0  0  0  0
   -0.3670   -0.5219    0.0000 C   0  0  0  0  0  0  0  0  0  0  0  0
   -1.0815   -0.1094    0.0000 C   0  0  0  0  0  0  0  0  0  0  0  0
    1.7764   -1.7594    0.0000 C   0  0  0  0  0  0  0  0  0  0  0  0
    1.7764   -0.1094    0.0000 C   0  0  0  0  0  0  0  0  0  0  0  0
    1.0620   -2.9969    0.0000 C   0  0  0  0  0  0  0  0  0  0  0  0
    2.4909   -1.3469    0.0000 C   0  0  0  0  0  0  0  0  0  0  0  0
    2.4909   -0.5219    0.0000 C   0  0  0  0  0  0  0  0  0  0  0  0
   -1.7959   -0.5219    0.0000 C   0  0  0  0  0  0  0  0  0  0  0  0
   -1.0815    0.7156    0.0000 C   0  0  0  0  0  0  0  0  0  0  0  0
    1.7764   -2.5844    0.0000 C   0  0  0  0  0  0  0  0  0  0  0  0
    1.0620   -3.8219    0.0000 C   0  0  0  0  0  0  0  0  0  0  0  0
    2.4909   -2.9969    0.0000 C   0  0  0  0  0  0  0  0  0  0  0  0
   -2.5104   -0.1094    0.0000 C   0  0  0  0  0  0  0  0  0  0  0  0
   -1.7959    1.1281    0.0000 C   0  0  0  0  0  0  0  0  0  0  0  0
    1.7764   -4.2344    0.0000 C   0  0  0  0  0  0  0  0  0  0  0  0
    2.4909   -3.8219    0.0000 C   0  0  0  0  0  0  0  0  0  0  0  0
   -2.5104    0.7156    0.0000 C   0  0  0  0  0  0  0  0  0  0  0  0
  1 19  1  0
  2  6  2  0
  2  8  1  0
  3  7  1  0
  3  8  2  0
  4  6  1  0
  4 12  1  0
  5  6  1  0
  5  7  2  0
  5 10  1  0
  7 11  1  0
  8  9  1  0
  9 15  2  0
  9 16  1  0
 10 13  2  0
 11 14  2  0
 12 17  2  0
 12 18  1  0
 13 14  1  0
 15 20  1  0
 16 21  2  0
 17 19  1  0
 18 22  2  0
 19 23  2  0
 20 24  2  0
 21 24  1  0
 22 23  1  0
M  END
>  <Classification>  (175) 
1

>  <pchembl>  (175) 
6.82

>  <InChI_steorem>  (175) 
InChI=1S/C20H15N3O/c24-16-10-6-9-15(13-16)21-20-17-11-4-5-12-18(17)22-19(23-20)14-7-2-1-3-8-14/h1-13,24H,(H,21,22,23)

>  <source>  (175) 
ChEMBL25

>  <source_id>  (175) 
25

>  <optional_reference>  (175) 
10.1016/j.bmc.2013.10.007

>  <optional_origin>  (175) 
None

>  <target>  (175) 
BCRP

$$$$

     RDKit          2D

 24 27  0  0  0  0  0  0  0  0999 V2000
    1.1966   -2.2711    0.0000 O   0  0  0  0  0  0  0  0  0  0  0  0
   -2.3758    0.6164    0.0000 N   0  0  0  0  0  0  0  0  0  0  0  0
   -1.6613    1.8539    0.0000 N   0  0  0  0  0  0  0  0  0  0  0  0
   -1.6613   -0.6211    0.0000 N   0  0  0  0  0  0  0  0  0  0  0  0
   -0.9468    0.6164    0.0000 C   0  0  0  0  0  0  0  0  0  0  0  0
   -1.6613    0.2039    0.0000 C   0  0  0  0  0  0  0  0  0  0  0  0
   -0.9468    1.4414    0.0000 C   0  0  0  0  0  0  0  0  0  0  0  0
   -2.3758    1.4414    0.0000 C   0  0  0  0  0  0  0  0  0  0  0  0
   -3.0903    1.8539    0.0000 C   0  0  0  0  0  0  0  0  0  0  0  0
   -0.2324    0.2039    0.0000 C   0  0  0  0  0  0  0  0  0  0  0  0
   -0.2324    1.8539    0.0000 C   0  0  0  0  0  0  0  0  0  0  0  0
   -0.9468   -1.0336    0.0000 C   0  0  0  0  0  0  0  0  0  0  0  0
    0.4821    0.6164    0.0000 C   0  0  0  0  0  0  0  0  0  0  0  0
    0.4821    1.4414    0.0000 C   0  0  0  0  0  0  0  0  0  0  0  0
   -3.8047    1.4414    0.0000 C   0  0  0  0  0  0  0  0  0  0  0  0
   -3.0903    2.6789    0.0000 C   0  0  0  0  0  0  0  0  0  0  0  0
   -0.2324   -0.6211    0.0000 C   0  0  0  0  0  0  0  0  0  0  0  0
   -0.9468   -1.8586    0.0000 C   0  0  0  0  0  0  0  0  0  0  0  0
    0.4821   -1.8586    0.0000 C   0  0  0  0  0  0  0  0  0  0  0  0
    0.4821   -1.0336    0.0000 C   0  0  0  0  0  0  0  0  0  0  0  0
   -0.2324   -2.2711    0.0000 C   0  0  0  0  0  0  0  0  0  0  0  0
   -4.5192    1.8539    0.0000 C   0  0  0  0  0  0  0  0  0  0  0  0
   -3.8047    3.0914    0.0000 C   0  0  0  0  0  0  0  0  0  0  0  0
   -4.5192    2.6789    0.0000 C   0  0  0  0  0  0  0  0  0  0  0  0
  1 19  1  0
  2  6  2  0
  2  8  1  0
  3  7  1  0
  3  8  2  0
  4  6  1  0
  4 12  1  0
  5  6  1  0
  5  7  2  0
  5 10  1  0
  7 11  1  0
  8  9  1  0
  9 15  2  0
  9 16  1  0
 10 13  2  0
 11 14  2  0
 12 17  2  0
 12 18  1  0
 13 14  1  0
 15 22  1  0
 16 23  2  0
 17 20  1  0
 18 21  2  0
 19 20  2  0
 19 21  1  0
 22 24  2  0
 23 24  1  0
M  END
>  <Classification>  (176) 
1

>  <pchembl>  (176) 
6.68

>  <InChI_steorem>  (176) 
InChI=1S/C20H15N3O/c24-16-12-10-15(11-13-16)21-20-17-8-4-5-9-18(17)22-19(23-20)14-6-2-1-3-7-14/h1-13,24H,(H,21,22,23)

>  <source>  (176) 
ChEMBL25

>  <source_id>  (176) 
25

>  <optional_reference>  (176) 
10.1021/acs.jmedchem.7b00441

>  <optional_origin>  (176) 
None

>  <target>  (176) 
BCRP

$$$$

     RDKit          2D

 27 30  0  0  0  0  0  0  0  0999 V2000
   -3.0852   -2.9929    0.0000 O   0  0  0  0  0  0  0  0  0  0  0  0
   -1.6562   -2.9929    0.0000 O   0  0  0  0  0  0  0  0  0  0  0  0
   -1.6562    1.1321    0.0000 N   0  0  0  0  0  0  0  0  0  0  0  0
   -0.9418    2.3696    0.0000 N   0  0  0  0  0  0  0  0  0  0  0  0
   -0.9418   -0.1054    0.0000 N   0  0  0  0  0  0  0  0  0  0  0  0
   -3.7996    3.1946    0.0000 N   0  0  0  0  0  0  0  0  0  0  0  0
   -0.2273    1.1321    0.0000 C   0  0  0  0  0  0  0  0  0  0  0  0
   -0.9418    0.7196    0.0000 C   0  0  0  0  0  0  0  0  0  0  0  0
   -0.2273    1.9571    0.0000 C   0  0  0  0  0  0  0  0  0  0  0  0
   -1.6562    1.9571    0.0000 C   0  0  0  0  0  0  0  0  0  0  0  0
   -2.3707    2.3696    0.0000 C   0  0  0  0  0  0  0  0  0  0  0  0
   -1.6562   -0.5179    0.0000 C   0  0  0  0  0  0  0  0  0  0  0  0
    0.4872    0.7196    0.0000 C   0  0  0  0  0  0  0  0  0  0  0  0
    0.4872    2.3696    0.0000 C   0  0  0  0  0  0  0  0  0  0  0  0
   -1.6562   -1.3429    0.0000 C   0  0  0  0  0  0  0  0  0  0  0  0
   -2.3707   -1.7554    0.0000 C   0  0  0  0  0  0  0  0  0  0  0  0
    1.2016    1.1321    0.0000 C   0  0  0  0  0  0  0  0  0  0  0  0
    1.2016    1.9571    0.0000 C   0  0  0  0  0  0  0  0  0  0  0  0
   -2.3707    3.1946    0.0000 C   0  0  0  0  0  0  0  0  0  0  0  0
   -3.0852    1.9571    0.0000 C   0  0  0  0  0  0  0  0  0  0  0  0
   -2.3707   -0.1054    0.0000 C   0  0  0  0  0  0  0  0  0  0  0  0
   -2.3707   -2.5804    0.0000 C   0  0  0  0  0  0  0  0  0  0  0  0
   -3.0852   -1.3429    0.0000 C   0  0  0  0  0  0  0  0  0  0  0  0
   -3.0852   -0.5179    0.0000 C   0  0  0  0  0  0  0  0  0  0  0  0
   -3.0852    3.6071    0.0000 C   0  0  0  0  0  0  0  0  0  0  0  0
   -3.7996    2.3696    0.0000 C   0  0  0  0  0  0  0  0  0  0  0  0
   -3.0852   -3.8179    0.0000 C   0  0  0  0  0  0  0  0  0  0  0  0
  1 22  1  0
  1 27  1  0
  2 22  2  0
  3  8  2  0
  3 10  1  0
  4  9  1  0
  4 10  2  0
  5  8  1  0
  5 12  1  0
  6 25  2  0
  6 26  1  0
  7  8  1  0
  7  9  2  0
  7 13  1  0
  9 14  1  0
 10 11  1  0
 11 19  2  0
 11 20  1  0
 12 15  2  0
 12 21  1  0
 13 17  2  0
 14 18  2  0
 15 16  1  0
 16 22  1  0
 16 23  2  0
 17 18  1  0
 19 25  1  0
 20 26  2  0
 21 24  2  0
 23 24  1  0
M  END
>  <Classification>  (177) 
1

>  <pchembl>  (177) 
6.39

>  <InChI_steorem>  (177) 
InChI=1S/C21H16N4O2/c1-27-21(26)15-5-4-6-16(13-15)23-20-17-7-2-3-8-18(17)24-19(25-20)14-9-11-22-12-10-14/h2-13H,1H3,(H,23,24,25)

>  <source>  (177) 
ChEMBL25

>  <source_id>  (177) 
25

>  <optional_reference>  (177) 
10.1021/acs.jmedchem.7b00441

>  <optional_origin>  (177) 
None

>  <target>  (177) 
BCRP

$$$$

     RDKit          2D

 25 28  0  0  0  0  0  0  0  0999 V2000
   -3.5951   -2.0250    0.0000 O   0  0  0  0  0  0  0  0  0  0  0  0
   -1.4517    0.8625    0.0000 N   0  0  0  0  0  0  0  0  0  0  0  0
   -0.7372    2.1000    0.0000 N   0  0  0  0  0  0  0  0  0  0  0  0
   -0.7372   -0.3750    0.0000 N   0  0  0  0  0  0  0  0  0  0  0  0
   -3.5951    2.9250    0.0000 N   0  0  0  0  0  0  0  0  0  0  0  0
   -0.0228    0.8625    0.0000 C   0  0  0  0  0  0  0  0  0  0  0  0
   -0.7372    0.4500    0.0000 C   0  0  0  0  0  0  0  0  0  0  0  0
   -0.0228    1.6875    0.0000 C   0  0  0  0  0  0  0  0  0  0  0  0
   -1.4517    1.6875    0.0000 C   0  0  0  0  0  0  0  0  0  0  0  0
   -2.1662    2.1000    0.0000 C   0  0  0  0  0  0  0  0  0  0  0  0
    0.6917    0.4500    0.0000 C   0  0  0  0  0  0  0  0  0  0  0  0
    0.6917    2.1000    0.0000 C   0  0  0  0  0  0  0  0  0  0  0  0
   -1.4517   -0.7875    0.0000 C   0  0  0  0  0  0  0  0  0  0  0  0
    1.4062    0.8625    0.0000 C   0  0  0  0  0  0  0  0  0  0  0  0
    1.4062    1.6875    0.0000 C   0  0  0  0  0  0  0  0  0  0  0  0
   -2.1662    2.9250    0.0000 C   0  0  0  0  0  0  0  0  0  0  0  0
   -2.8807    1.6875    0.0000 C   0  0  0  0  0  0  0  0  0  0  0  0
   -1.4517   -1.6125    0.0000 C   0  0  0  0  0  0  0  0  0  0  0  0
   -2.1662   -0.3750    0.0000 C   0  0  0  0  0  0  0  0  0  0  0  0
   -2.8807   -1.6125    0.0000 C   0  0  0  0  0  0  0  0  0  0  0  0
   -2.1662   -2.0250    0.0000 C   0  0  0  0  0  0  0  0  0  0  0  0
   -2.8807   -0.7875    0.0000 C   0  0  0  0  0  0  0  0  0  0  0  0
   -2.8807    3.3375    0.0000 C   0  0  0  0  0  0  0  0  0  0  0  0
   -3.5951    2.1000    0.0000 C   0  0  0  0  0  0  0  0  0  0  0  0
   -3.5951   -2.8500    0.0000 C   0  0  0  0  0  0  0  0  0  0  0  0
  1 20  1  0
  1 25  1  0
  2  7  2  0
  2  9  1  0
  3  8  1  0
  3  9  2  0
  4  7  1  0
  4 13  1  0
  5 23  2  0
  5 24  1  0
  6  7  1  0
  6  8  2  0
  6 11  1  0
  8 12  1  0
  9 10  1  0
 10 16  2  0
 10 17  1  0
 11 14  2  0
 12 15  2  0
 13 18  2  0
 13 19  1  0
 14 15  1  0
 16 23  1  0
 17 24  2  0
 18 21  1  0
 19 22  2  0
 20 21  2  0
 20 22  1  0
M  END
>  <Classification>  (178) 
1

>  <pchembl>  (178) 
6.13

>  <InChI_steorem>  (178) 
InChI=1S/C20H16N4O/c1-25-16-8-6-15(7-9-16)22-20-17-4-2-3-5-18(17)23-19(24-20)14-10-12-21-13-11-14/h2-13H,1H3,(H,22,23,24)

>  <source>  (178) 
ChEMBL25

>  <source_id>  (178) 
25

>  <optional_reference>  (178) 
10.1021/acs.jmedchem.7b00441

>  <optional_origin>  (178) 
None

>  <target>  (178) 
BCRP

$$$$

     RDKit          2D

 27 30  0  0  0  0  0  0  0  0999 V2000
   -3.0852   -2.9929    0.0000 O   0  0  0  0  0  0  0  0  0  0  0  0
   -1.6563   -2.9929    0.0000 O   0  0  0  0  0  0  0  0  0  0  0  0
   -1.6563    1.1321    0.0000 N   0  0  0  0  0  0  0  0  0  0  0  0
   -0.9418    2.3696    0.0000 N   0  0  0  0  0  0  0  0  0  0  0  0
   -0.9418   -0.1054    0.0000 N   0  0  0  0  0  0  0  0  0  0  0  0
   -3.0852    3.6071    0.0000 N   0  0  0  0  0  0  0  0  0  0  0  0
   -0.2273    1.1321    0.0000 C   0  0  0  0  0  0  0  0  0  0  0  0
   -0.9418    0.7196    0.0000 C   0  0  0  0  0  0  0  0  0  0  0  0
   -0.2273    1.9571    0.0000 C   0  0  0  0  0  0  0  0  0  0  0  0
   -1.6563    1.9571    0.0000 C   0  0  0  0  0  0  0  0  0  0  0  0
   -2.3707    2.3696    0.0000 C   0  0  0  0  0  0  0  0  0  0  0  0
    0.4872    0.7196    0.0000 C   0  0  0  0  0  0  0  0  0  0  0  0
   -1.6563   -0.5179    0.0000 C   0  0  0  0  0  0  0  0  0  0  0  0
    0.4872    2.3696    0.0000 C   0  0  0  0  0  0  0  0  0  0  0  0
   -1.6563   -1.3429    0.0000 C   0  0  0  0  0  0  0  0  0  0  0  0
   -2.3707   -1.7554    0.0000 C   0  0  0  0  0  0  0  0  0  0  0  0
    1.2016    1.1321    0.0000 C   0  0  0  0  0  0  0  0  0  0  0  0
    1.2016    1.9571    0.0000 C   0  0  0  0  0  0  0  0  0  0  0  0
   -2.3707    3.1946    0.0000 C   0  0  0  0  0  0  0  0  0  0  0  0
   -3.0852    1.9571    0.0000 C   0  0  0  0  0  0  0  0  0  0  0  0
   -2.3707   -0.1054    0.0000 C   0  0  0  0  0  0  0  0  0  0  0  0
   -2.3707   -2.5804    0.0000 C   0  0  0  0  0  0  0  0  0  0  0  0
   -3.0852   -1.3429    0.0000 C   0  0  0  0  0  0  0  0  0  0  0  0
   -3.0852   -0.5179    0.0000 C   0  0  0  0  0  0  0  0  0  0  0  0
   -3.7997    2.3696    0.0000 C   0  0  0  0  0  0  0  0  0  0  0  0
   -3.7997    3.1946    0.0000 C   0  0  0  0  0  0  0  0  0  0  0  0
   -3.0852   -3.8179    0.0000 C   0  0  0  0  0  0  0  0  0  0  0  0
  1 22  1  0
  1 27  1  0
  2 22  2  0
  3  8  2  0
  3 10  1  0
  4  9  1  0
  4 10  2  0
  5  8  1  0
  5 13  1  0
  6 19  2  0
  6 26  1  0
  7  8  1  0
  7  9  2  0
  7 12  1  0
  9 14  1  0
 10 11  1  0
 11 19  1  0
 11 20  2  0
 12 17  2  0
 13 15  2  0
 13 21  1  0
 14 18  2  0
 15 16  1  0
 16 22  1  0
 16 23  2  0
 17 18  1  0
 20 25  1  0
 21 24  2  0
 23 24  1  0
 25 26  2  0
M  END
>  <Classification>  (179) 
1

>  <pchembl>  (179) 
6.44

>  <InChI_steorem>  (179) 
InChI=1S/C21H16N4O2/c1-27-21(26)14-6-4-8-16(12-14)23-20-17-9-2-3-10-18(17)24-19(25-20)15-7-5-11-22-13-15/h2-13H,1H3,(H,23,24,25)

>  <source>  (179) 
ChEMBL25

>  <source_id>  (179) 
25

>  <optional_reference>  (179) 
10.1021/acs.jmedchem.7b00441

>  <optional_origin>  (179) 
None

>  <target>  (179) 
BCRP

$$$$

     RDKit          2D

 19 21  0  0  0  0  0  0  0  0999 V2000
   17.8778   -5.2370    0.0000 C   0  0  0  0  0  0  0  0  0  0  0  0
   17.8568   -6.0551    0.0000 C   0  0  0  0  0  0  0  0  0  0  0  0
   17.1407   -6.4437    0.0000 C   0  0  0  0  0  0  0  0  0  0  0  0
   17.1197   -7.2618    0.0000 C   0  0  0  0  0  0  0  0  0  0  0  0
   17.8170   -7.6878    0.0000 C   0  0  0  0  0  0  0  0  0  0  0  0
   18.5354   -7.2957    0.0000 C   0  0  0  0  0  0  0  0  0  0  0  0
   18.5542   -6.4811    0.0000 C   0  0  0  0  0  0  0  0  0  0  0  0
   17.8988   -4.4189    0.0000 N   0  0  0  0  0  0  0  0  0  0  0  0
   16.4013   -7.6539    0.0000 N   0  0  0  0  0  0  0  0  0  0  0  0
   16.3405  -10.1047    0.0000 N   0  0  0  0  0  0  0  0  0  0  0  0
   17.0589   -9.7126    0.0000 C   0  0  0  0  0  0  0  0  0  0  0  0
   17.0799   -8.8945    0.0000 N   0  0  0  0  0  0  0  0  0  0  0  0
   16.3825   -8.4685    0.0000 C   0  0  0  0  0  0  0  0  0  0  0  0
   15.6642   -8.8606    0.0000 C   0  0  0  0  0  0  0  0  0  0  0  0
   14.9633   -8.4324    0.0000 C   0  0  0  0  0  0  0  0  0  0  0  0
   14.2449   -8.8245    0.0000 C   0  0  0  0  0  0  0  0  0  0  0  0
   14.2240   -9.6426    0.0000 C   0  0  0  0  0  0  0  0  0  0  0  0
   14.9248  -10.0708    0.0000 C   0  0  0  0  0  0  0  0  0  0  0  0
   15.6432   -9.6787    0.0000 C   0  0  0  0  0  0  0  0  0  0  0  0
  1  2  1  0
  2  3  2  0
  3  4  1  0
  4  5  2  0
  5  6  1  0
  6  7  2  0
  2  7  1  0
  1  8  3  0
 10 11  2  0
 11 12  1  0
 12 13  2  0
 13 14  1  0
 14 15  2  0
 15 16  1  0
 16 17  2  0
 17 18  1  0
 18 19  2  0
 10 19  1  0
 14 19  1  0
  9 13  1  0
  4  9  1  0
M  END
>  <Classification>  (180) 
1

>  <pchembl>  (180) 
5.69

>  <InChI_steorem>  (180) 
InChI=1S/C15H10N4/c16-9-11-4-3-5-12(8-11)19-15-13-6-1-2-7-14(13)17-10-18-15/h1-8,10H,(H,17,18,19)

>  <source>  (180) 
ChEMBL25

>  <source_id>  (180) 
25

>  <optional_reference>  (180) 
10.1016/j.bmc.2013.10.007

>  <optional_origin>  (180) 
None

>  <target>  (180) 
BCRP

$$$$

     RDKit          2D

 20 22  0  0  0  0  0  0  0  0999 V2000
   13.2014   -7.9881    0.0000 N   0  0  0  0  0  0  0  0  0  0  0  0
   13.9204   -7.5997    0.0000 C   0  0  0  0  0  0  0  0  0  0  0  0
   13.9447   -6.7852    0.0000 N   0  0  0  0  0  0  0  0  0  0  0  0
   13.2482   -6.3556    0.0000 C   0  0  0  0  0  0  0  0  0  0  0  0
   12.5292   -6.7440    0.0000 C   0  0  0  0  0  0  0  0  0  0  0  0
   11.8327   -6.3144    0.0000 C   0  0  0  0  0  0  0  0  0  0  0  0
   11.1137   -6.7029    0.0000 C   0  0  0  0  0  0  0  0  0  0  0  0
   11.0913   -7.5210    0.0000 C   0  0  0  0  0  0  0  0  0  0  0  0
   11.7878   -7.9506    0.0000 C   0  0  0  0  0  0  0  0  0  0  0  0
   12.5068   -7.5621    0.0000 C   0  0  0  0  0  0  0  0  0  0  0  0
   13.2706   -5.5375    0.0000 N   0  0  0  0  0  0  0  0  0  0  0  0
   13.9896   -5.1491    0.0000 C   0  0  0  0  0  0  0  0  0  0  0  0
   14.6861   -5.5787    0.0000 C   0  0  0  0  0  0  0  0  0  0  0  0
   15.4051   -5.1902    0.0000 C   0  0  0  0  0  0  0  0  0  0  0  0
   15.4275   -4.3721    0.0000 C   0  0  0  0  0  0  0  0  0  0  0  0
   14.7309   -3.9425    0.0000 C   0  0  0  0  0  0  0  0  0  0  0  0
   14.0120   -4.3310    0.0000 C   0  0  0  0  0  0  0  0  0  0  0  0
   16.1016   -5.6199    0.0000 N   0  0  0  0  0  0  0  0  0  0  0  0
   16.0772   -6.4343    0.0000 O   0  0  0  0  0  0  0  0  0  0  0  0
   16.8206   -5.2314    0.0000 O   0  0  0  0  0  0  0  0  0  0  0  0
  1  2  2  0
  2  3  1  0
  3  4  2  0
  4  5  1  0
  5  6  2  0
  6  7  1  0
  7  8  2  0
  8  9  1  0
  9 10  2  0
  1 10  1  0
  5 10  1  0
  4 11  1  0
 12 13  2  0
 13 14  1  0
 14 15  2  0
 15 16  1  0
 16 17  2  0
 12 17  1  0
 18 19  2  0
 18 20  1  0
 14 18  1  0
 11 12  1  0
M  CHG  2  18   1  20  -1
M  END
>  <Classification>  (181) 
1

>  <pchembl>  (181) 
6.05

>  <InChI_steorem>  (181) 
InChI=1S/C14H10N4O2/c19-18(20)11-5-3-4-10(8-11)17-14-12-6-1-2-7-13(12)15-9-16-14/h1-9H,(H,15,16,17)

>  <source>  (181) 
ChEMBL25

>  <source_id>  (181) 
25

>  <optional_reference>  (181) 
10.1016/j.bmc.2013.10.007

>  <optional_origin>  (181) 
None

>  <target>  (181) 
BCRP

$$$$

     RDKit          2D

 21 23  0  0  0  0  0  0  0  0999 V2000
   14.2556   -9.5447    0.0000 N   0  0  0  0  0  0  0  0  0  0  0  0
   14.9661   -9.1410    0.0000 C   0  0  0  0  0  0  0  0  0  0  0  0
   14.9710   -8.3226    0.0000 N   0  0  0  0  0  0  0  0  0  0  0  0
   14.2654   -7.9079    0.0000 C   0  0  0  0  0  0  0  0  0  0  0  0
   13.5550   -8.3117    0.0000 C   0  0  0  0  0  0  0  0  0  0  0  0
   12.8514   -7.9006    0.0000 C   0  0  0  0  0  0  0  0  0  0  0  0
   12.1409   -8.3044    0.0000 C   0  0  0  0  0  0  0  0  0  0  0  0
   12.1340   -9.1191    0.0000 C   0  0  0  0  0  0  0  0  0  0  0  0
   12.8395   -9.5338    0.0000 C   0  0  0  0  0  0  0  0  0  0  0  0
   13.5500   -9.1301    0.0000 C   0  0  0  0  0  0  0  0  0  0  0  0
   14.2724   -7.0932    0.0000 N   0  0  0  0  0  0  0  0  0  0  0  0
   14.9829   -6.6894    0.0000 C   0  0  0  0  0  0  0  0  0  0  0  0
   15.6864   -7.1005    0.0000 C   0  0  0  0  0  0  0  0  0  0  0  0
   16.3969   -6.6967    0.0000 C   0  0  0  0  0  0  0  0  0  0  0  0
   16.4039   -5.8820    0.0000 C   0  0  0  0  0  0  0  0  0  0  0  0
   15.6983   -5.4673    0.0000 C   0  0  0  0  0  0  0  0  0  0  0  0
   14.9878   -5.8710    0.0000 C   0  0  0  0  0  0  0  0  0  0  0  0
   17.1144   -5.4782    0.0000 O   0  0  0  0  0  0  0  0  0  0  0  0
   17.1193   -4.6598    0.0000 C   0  0  0  0  0  0  0  0  0  0  0  0
   17.1025   -7.1114    0.0000 O   0  0  0  0  0  0  0  0  0  0  0  0
   17.8130   -6.7076    0.0000 C   0  0  0  0  0  0  0  0  0  0  0  0
  1  2  2  0
  2  3  1  0
  3  4  2  0
  4  5  1  0
  5  6  2  0
  6  7  1  0
  7  8  2  0
  8  9  1  0
  9 10  2  0
  1 10  1  0
  5 10  1  0
  4 11  1  0
 12 13  2  0
 13 14  1  0
 14 15  2  0
 15 16  1  0
 16 17  2  0
 12 17  1  0
 18 19  1  0
 15 18  1  0
 20 21  1  0
 14 20  1  0
 11 12  1  0
M  END
>  <Classification>  (182) 
1

>  <pchembl>  (182) 
5.47

>  <InChI_steorem>  (182) 
InChI=1S/C16H15N3O2/c1-20-14-8-7-11(9-15(14)21-2)19-16-12-5-3-4-6-13(12)17-10-18-16/h3-10H,1-2H3,(H,17,18,19)

>  <source>  (182) 
ChEMBL25

>  <source_id>  (182) 
25

>  <optional_reference>  (182) 
10.1016/j.bmc.2013.10.007

>  <optional_origin>  (182) 
None

>  <target>  (182) 
BCRP

$$$$

     RDKit          2D

 24 26  0  0  0  0  0  0  0  0999 V2000
   13.7206   -8.8828    0.0000 N   0  0  0  0  0  0  0  0  0  0  0  0
   14.4297   -8.4765    0.0000 C   0  0  0  0  0  0  0  0  0  0  0  0
   14.4317   -7.6581    0.0000 N   0  0  0  0  0  0  0  0  0  0  0  0
   13.7268   -7.2496    0.0000 C   0  0  0  0  0  0  0  0  0  0  0  0
   13.0177   -7.6558    0.0000 C   0  0  0  0  0  0  0  0  0  0  0  0
   12.3107   -7.2436    0.0000 C   0  0  0  0  0  0  0  0  0  0  0  0
   11.6016   -7.6499    0.0000 C   0  0  0  0  0  0  0  0  0  0  0  0
   11.5995   -8.4682    0.0000 C   0  0  0  0  0  0  0  0  0  0  0  0
   12.3045   -8.8768    0.0000 C   0  0  0  0  0  0  0  0  0  0  0  0
   13.0136   -8.4706    0.0000 C   0  0  0  0  0  0  0  0  0  0  0  0
   13.7288   -6.4312    0.0000 N   0  0  0  0  0  0  0  0  0  0  0  0
   14.4379   -6.0250    0.0000 C   0  0  0  0  0  0  0  0  0  0  0  0
   15.1449   -6.4371    0.0000 C   0  0  0  0  0  0  0  0  0  0  0  0
   15.8540   -6.0309    0.0000 C   0  0  0  0  0  0  0  0  0  0  0  0
   15.8560   -5.2125    0.0000 C   0  0  0  0  0  0  0  0  0  0  0  0
   15.1511   -4.8039    0.0000 C   0  0  0  0  0  0  0  0  0  0  0  0
   14.4420   -5.2102    0.0000 C   0  0  0  0  0  0  0  0  0  0  0  0
   16.5651   -4.8063    0.0000 N   0  0  0  0  0  0  0  0  0  0  0  0
   17.2721   -5.2185    0.0000 O   0  0  0  0  0  0  0  0  0  0  0  0
   16.5692   -3.9915    0.0000 O   0  0  0  0  0  0  0  0  0  0  0  0
   10.8905   -8.8745    0.0000 O   0  0  0  0  0  0  0  0  0  0  0  0
   10.8864   -9.6893    0.0000 C   0  0  0  0  0  0  0  0  0  0  0  0
   10.8966   -7.2413    0.0000 O   0  0  0  0  0  0  0  0  0  0  0  0
   10.1875   -7.6475    0.0000 C   0  0  0  0  0  0  0  0  0  0  0  0
  1  2  2  0
  2  3  1  0
  3  4  2  0
  4  5  1  0
  5  6  2  0
  6  7  1  0
  7  8  2  0
  8  9  1  0
  9 10  2  0
  1 10  1  0
  5 10  1  0
  4 11  1  0
 12 13  2  0
 13 14  1  0
 14 15  2  0
 15 16  1  0
 16 17  2  0
 12 17  1  0
 18 19  2  0
 18 20  1  0
 15 18  1  0
 11 12  1  0
 21 22  1  0
  8 21  1  0
 23 24  1  0
  7 23  1  0
M  CHG  2  18   1  20  -1
M  END
>  <Classification>  (183) 
1

>  <pchembl>  (183) 
5.61

>  <InChI_steorem>  (183) 
InChI=1S/C16H14N4O4/c1-23-14-7-12-13(8-15(14)24-2)17-9-18-16(12)19-10-3-5-11(6-4-10)20(21)22/h3-9H,1-2H3,(H,17,18,19)

>  <source>  (183) 
ChEMBL25

>  <source_id>  (183) 
25

>  <optional_reference>  (183) 
10.1016/j.bmc.2013.10.007

>  <optional_origin>  (183) 
None

>  <target>  (183) 
BCRP

$$$$

     RDKit          2D

 24 26  0  0  0  0  0  0  0  0999 V2000
   15.2685  -10.3451    0.0000 N   0  0  0  0  0  0  0  0  0  0  0  0
   15.9827   -9.9479    0.0000 C   0  0  0  0  0  0  0  0  0  0  0  0
   15.9951   -9.1296    0.0000 N   0  0  0  0  0  0  0  0  0  0  0  0
   15.2934   -8.7085    0.0000 C   0  0  0  0  0  0  0  0  0  0  0  0
   14.5792   -9.1057    0.0000 C   0  0  0  0  0  0  0  0  0  0  0  0
   13.8795   -8.6882    0.0000 C   0  0  0  0  0  0  0  0  0  0  0  0
   13.1653   -9.0853    0.0000 C   0  0  0  0  0  0  0  0  0  0  0  0
   13.1509   -9.9000    0.0000 C   0  0  0  0  0  0  0  0  0  0  0  0
   13.8526  -10.3211    0.0000 C   0  0  0  0  0  0  0  0  0  0  0  0
   14.5668   -9.9240    0.0000 C   0  0  0  0  0  0  0  0  0  0  0  0
   15.3079   -7.8938    0.0000 N   0  0  0  0  0  0  0  0  0  0  0  0
   16.0221   -7.4966    0.0000 C   0  0  0  0  0  0  0  0  0  0  0  0
   16.7218   -7.9141    0.0000 C   0  0  0  0  0  0  0  0  0  0  0  0
   17.4360   -7.5170    0.0000 C   0  0  0  0  0  0  0  0  0  0  0  0
   17.4504   -6.7023    0.0000 C   0  0  0  0  0  0  0  0  0  0  0  0
   16.7487   -6.2812    0.0000 C   0  0  0  0  0  0  0  0  0  0  0  0
   16.0345   -6.6783    0.0000 C   0  0  0  0  0  0  0  0  0  0  0  0
   18.1377   -7.9381    0.0000 N   0  0  0  0  0  0  0  0  0  0  0  0
   18.1252   -8.7564    0.0000 O   0  0  0  0  0  0  0  0  0  0  0  0
   18.8519   -7.5409    0.0000 O   0  0  0  0  0  0  0  0  0  0  0  0
   12.4367  -10.2972    0.0000 O   0  0  0  0  0  0  0  0  0  0  0  0
   12.4242  -11.1155    0.0000 C   0  0  0  0  0  0  0  0  0  0  0  0
   12.4636   -8.6642    0.0000 O   0  0  0  0  0  0  0  0  0  0  0  0
   11.7494   -9.0614    0.0000 C   0  0  0  0  0  0  0  0  0  0  0  0
  1  2  2  0
  2  3  1  0
  3  4  2  0
  4  5  1  0
  5  6  2  0
  6  7  1  0
  7  8  2  0
  8  9  1  0
  9 10  2  0
  1 10  1  0
  5 10  1  0
  4 11  1  0
 12 13  2  0
 13 14  1  0
 14 15  2  0
 15 16  1  0
 16 17  2  0
 12 17  1  0
 18 19  2  0
 18 20  1  0
 14 18  1  0
 11 12  1  0
 21 22  1  0
  8 21  1  0
 23 24  1  0
  7 23  1  0
M  CHG  2  18   1  20  -1
M  END
>  <Classification>  (184) 
1

>  <pchembl>  (184) 
6.04

>  <InChI_steorem>  (184) 
InChI=1S/C16H14N4O4/c1-23-14-7-12-13(8-15(14)24-2)17-9-18-16(12)19-10-4-3-5-11(6-10)20(21)22/h3-9H,1-2H3,(H,17,18,19)

>  <source>  (184) 
ChEMBL25

>  <source_id>  (184) 
25

>  <optional_reference>  (184) 
10.1016/j.bmc.2013.10.007

>  <optional_origin>  (184) 
None

>  <target>  (184) 
BCRP

$$$$

     RDKit          2D

 24 26  0  0  0  0  0  0  0  0999 V2000
   16.0659  -10.3004    0.0000 N   0  0  0  0  0  0  0  0  0  0  0  0
   16.7841   -9.9079    0.0000 C   0  0  0  0  0  0  0  0  0  0  0  0
   16.8047   -9.0898    0.0000 N   0  0  0  0  0  0  0  0  0  0  0  0
   16.1072   -8.6641    0.0000 C   0  0  0  0  0  0  0  0  0  0  0  0
   15.3890   -9.0565    0.0000 C   0  0  0  0  0  0  0  0  0  0  0  0
   14.6915   -8.6308    0.0000 C   0  0  0  0  0  0  0  0  0  0  0  0
   13.9733   -9.0232    0.0000 C   0  0  0  0  0  0  0  0  0  0  0  0
   13.9548   -9.8378    0.0000 C   0  0  0  0  0  0  0  0  0  0  0  0
   14.6524  -10.2635    0.0000 C   0  0  0  0  0  0  0  0  0  0  0  0
   15.3684   -9.8746    0.0000 C   0  0  0  0  0  0  0  0  0  0  0  0
   16.1256   -7.8495    0.0000 N   0  0  0  0  0  0  0  0  0  0  0  0
   16.8438   -7.4571    0.0000 C   0  0  0  0  0  0  0  0  0  0  0  0
   16.8644   -6.6390    0.0000 C   0  0  0  0  0  0  0  0  0  0  0  0
   17.5826   -6.2465    0.0000 C   0  0  0  0  0  0  0  0  0  0  0  0
   18.2802   -6.6723    0.0000 C   0  0  0  0  0  0  0  0  0  0  0  0
   18.2595   -7.4904    0.0000 C   0  0  0  0  0  0  0  0  0  0  0  0
   17.5414   -7.8828    0.0000 C   0  0  0  0  0  0  0  0  0  0  0  0
   16.1669   -6.2132    0.0000 N   0  0  0  0  0  0  0  0  0  0  0  0
   15.4487   -6.6057    0.0000 O   0  0  0  0  0  0  0  0  0  0  0  0
   16.1875   -5.3951    0.0000 O   0  0  0  0  0  0  0  0  0  0  0  0
   13.2366  -10.2302    0.0000 O   0  0  0  0  0  0  0  0  0  0  0  0
   13.2160  -11.0484    0.0000 C   0  0  0  0  0  0  0  0  0  0  0  0
   13.2757   -8.5975    0.0000 O   0  0  0  0  0  0  0  0  0  0  0  0
   12.5597   -8.9864    0.0000 C   0  0  0  0  0  0  0  0  0  0  0  0
  1  2  2  0
  2  3  1  0
  3  4  2  0
  4  5  1  0
  5  6  2  0
  6  7  1  0
  7  8  2  0
  8  9  1  0
  9 10  2  0
  1 10  1  0
  5 10  1  0
  4 11  1  0
 12 13  2  0
 13 14  1  0
 14 15  2  0
 15 16  1  0
 16 17  2  0
 12 17  1  0
 18 19  2  0
 18 20  1  0
 13 18  1  0
 11 12  1  0
 21 22  1  0
  8 21  1  0
 23 24  1  0
  7 23  1  0
M  CHG  2  18   1  20  -1
M  END
>  <Classification>  (185) 
1

>  <pchembl>  (185) 
5.4

>  <InChI_steorem>  (185) 
InChI=1S/C16H14N4O4/c1-23-14-7-10-12(8-15(14)24-2)17-9-18-16(10)19-11-5-3-4-6-13(11)20(21)22/h3-9H,1-2H3,(H,17,18,19)

>  <source>  (185) 
ChEMBL25

>  <source_id>  (185) 
25

>  <optional_reference>  (185) 
10.1016/j.bmc.2013.10.007

>  <optional_origin>  (185) 
None

>  <target>  (185) 
BCRP

$$$$

     RDKit          2D

 27 30  0  0  0  0  0  0  0  0999 V2000
   16.2959   -8.9037    0.0000 N   0  0  0  0  0  0  0  0  0  0  0  0
   16.9899   -8.4699    0.0000 C   0  0  0  0  0  0  0  0  0  0  0  0
   16.9626   -7.6520    0.0000 N   0  0  0  0  0  0  0  0  0  0  0  0
   16.2413   -7.2678    0.0000 C   0  0  0  0  0  0  0  0  0  0  0  0
   15.5473   -7.7016    0.0000 C   0  0  0  0  0  0  0  0  0  0  0  0
   14.8261   -7.3175    0.0000 C   0  0  0  0  0  0  0  0  0  0  0  0
   14.1321   -7.7513    0.0000 C   0  0  0  0  0  0  0  0  0  0  0  0
   14.1594   -8.5692    0.0000 C   0  0  0  0  0  0  0  0  0  0  0  0
   14.8807   -8.9533    0.0000 C   0  0  0  0  0  0  0  0  0  0  0  0
   15.5746   -8.5196    0.0000 C   0  0  0  0  0  0  0  0  0  0  0  0
   16.2121   -6.4535    0.0000 N   0  0  0  0  0  0  0  0  0  0  0  0
   16.9060   -6.0198    0.0000 C   0  0  0  0  0  0  0  0  0  0  0  0
   17.6273   -6.4039    0.0000 C   0  0  0  0  0  0  0  0  0  0  0  0
   18.3193   -5.9738    0.0000 C   0  0  0  0  0  0  0  0  0  0  0  0
   18.2920   -5.1558    0.0000 C   0  0  0  0  0  0  0  0  0  0  0  0
   17.5707   -4.7717    0.0000 C   0  0  0  0  0  0  0  0  0  0  0  0
   16.8768   -5.2055    0.0000 C   0  0  0  0  0  0  0  0  0  0  0  0
   17.7111   -8.8541    0.0000 C   0  0  0  0  0  0  0  0  0  0  0  0
   17.7384   -9.6720    0.0000 C   0  0  0  0  0  0  0  0  0  0  0  0
   18.4597  -10.0561    0.0000 C   0  0  0  0  0  0  0  0  0  0  0  0
   19.1537   -9.6224    0.0000 C   0  0  0  0  0  0  0  0  0  0  0  0
   19.1264   -8.8044    0.0000 C   0  0  0  0  0  0  0  0  0  0  0  0
   18.4051   -8.4203    0.0000 C   0  0  0  0  0  0  0  0  0  0  0  0
   19.8750  -10.0065    0.0000 O   0  0  0  0  0  0  0  0  0  0  0  0
   19.9023  -10.8244    0.0000 C   0  0  0  0  0  0  0  0  0  0  0  0
   18.4870  -10.8741    0.0000 O   0  0  0  0  0  0  0  0  0  0  0  0
   19.2083  -11.2582    0.0000 C   0  0  0  0  0  0  0  0  0  0  0  0
  1  2  2  0
  2  3  1  0
  3  4  2  0
  4  5  1  0
  5  6  2  0
  6  7  1  0
  7  8  2  0
  8  9  1  0
  9 10  2  0
  1 10  1  0
  5 10  1  0
  4 11  1  0
 12 13  2  0
 13 14  1  0
 14 15  2  0
 15 16  1  0
 16 17  2  0
 12 17  1  0
 11 12  1  0
 18 19  2  0
 19 20  1  0
 20 21  2  0
 21 22  1  0
 22 23  2  0
 18 23  1  0
 24 25  1  0
 21 24  1  0
 26 27  1  0
 20 26  1  0
  2 18  1  0
M  END
>  <Classification>  (186) 
1

>  <pchembl>  (186) 
5.39

>  <InChI_steorem>  (186) 
InChI=1S/C22H19N3O2/c1-26-19-13-12-15(14-20(19)27-2)21-24-18-11-7-6-10-17(18)22(25-21)23-16-8-4-3-5-9-16/h3-14H,1-2H3,(H,23,24,25)

>  <source>  (186) 
ChEMBL25

>  <source_id>  (186) 
25

>  <optional_reference>  (186) 
10.1016/j.bmc.2013.10.007

>  <optional_origin>  (186) 
None

>  <target>  (186) 
BCRP

$$$$

     RDKit          2D

 28 31  0  0  0  0  0  0  0  0999 V2000
   12.8199   -4.5451    0.0000 C   0  0  0  0  0  0  0  0  0  0  0  0
   12.1157   -4.1305    0.0000 C   0  0  0  0  0  0  0  0  0  0  0  0
   11.4039   -4.5342    0.0000 C   0  0  0  0  0  0  0  0  0  0  0  0
   11.3983   -5.3490    0.0000 C   0  0  0  0  0  0  0  0  0  0  0  0
   12.1025   -5.7637    0.0000 C   0  0  0  0  0  0  0  0  0  0  0  0
   12.8122   -5.3635    0.0000 C   0  0  0  0  0  0  0  0  0  0  0  0
   13.5318   -4.1414    0.0000 O   0  0  0  0  0  0  0  0  0  0  0  0
   10.6864   -5.7528    0.0000 N   0  0  0  0  0  0  0  0  0  0  0  0
   10.6654   -8.2043    0.0000 N   0  0  0  0  0  0  0  0  0  0  0  0
   11.3773   -7.8005    0.0000 C   0  0  0  0  0  0  0  0  0  0  0  0
   11.3829   -6.9857    0.0000 N   0  0  0  0  0  0  0  0  0  0  0  0
   10.6787   -6.5711    0.0000 C   0  0  0  0  0  0  0  0  0  0  0  0
    9.9689   -6.9713    0.0000 C   0  0  0  0  0  0  0  0  0  0  0  0
    9.2647   -6.5567    0.0000 C   0  0  0  0  0  0  0  0  0  0  0  0
    8.5529   -6.9604    0.0000 C   0  0  0  0  0  0  0  0  0  0  0  0
    8.5452   -7.7787    0.0000 C   0  0  0  0  0  0  0  0  0  0  0  0
    9.2494   -8.1934    0.0000 C   0  0  0  0  0  0  0  0  0  0  0  0
    9.9613   -7.7896    0.0000 C   0  0  0  0  0  0  0  0  0  0  0  0
   12.0815   -8.2152    0.0000 C   0  0  0  0  0  0  0  0  0  0  0  0
   12.0738   -9.0335    0.0000 C   0  0  0  0  0  0  0  0  0  0  0  0
   12.7780   -9.4481    0.0000 C   0  0  0  0  0  0  0  0  0  0  0  0
   13.4899   -9.0444    0.0000 C   0  0  0  0  0  0  0  0  0  0  0  0
   13.4955   -8.2296    0.0000 C   0  0  0  0  0  0  0  0  0  0  0  0
   12.7913   -7.8150    0.0000 C   0  0  0  0  0  0  0  0  0  0  0  0
   14.1941   -9.4590    0.0000 O   0  0  0  0  0  0  0  0  0  0  0  0
   14.1864  -10.2774    0.0000 C   0  0  0  0  0  0  0  0  0  0  0  0
   12.7703  -10.2665    0.0000 O   0  0  0  0  0  0  0  0  0  0  0  0
   13.4745  -10.6811    0.0000 C   0  0  0  0  0  0  0  0  0  0  0  0
  1  2  2  0
  2  3  1  0
  3  4  2  0
  4  5  1  0
  5  6  2  0
  1  6  1  0
  1  7  1  0
  9 10  2  0
 10 11  1  0
 11 12  2  0
 12 13  1  0
 13 14  2  0
 14 15  1  0
 15 16  2  0
 16 17  1  0
 17 18  2  0
  9 18  1  0
 13 18  1  0
 19 20  2  0
 20 21  1  0
 21 22  2  0
 22 23  1  0
 23 24  2  0
 19 24  1  0
 25 26  1  0
 22 25  1  0
 27 28  1  0
 21 27  1  0
 10 19  1  0
  8 12  1  0
  4  8  1  0
M  END
>  <Classification>  (187) 
1

>  <pchembl>  (187) 
6.17

>  <InChI_steorem>  (187) 
InChI=1S/C22H19N3O3/c1-27-19-12-7-14(13-20(19)28-2)21-24-18-6-4-3-5-17(18)22(25-21)23-15-8-10-16(26)11-9-15/h3-13,26H,1-2H3,(H,23,24,25)

>  <source>  (187) 
ChEMBL25

>  <source_id>  (187) 
25

>  <optional_reference>  (187) 
10.1016/j.bmc.2013.10.007

>  <optional_origin>  (187) 
None

>  <target>  (187) 
BCRP

$$$$

     RDKit          2D

 28 31  0  0  0  0  0  0  0  0999 V2000
   15.1451   -8.0290    0.0000 N   0  0  0  0  0  0  0  0  0  0  0  0
   15.8522   -7.6170    0.0000 C   0  0  0  0  0  0  0  0  0  0  0  0
   15.8503   -6.7986    0.0000 N   0  0  0  0  0  0  0  0  0  0  0  0
   15.1414   -6.3922    0.0000 C   0  0  0  0  0  0  0  0  0  0  0  0
   14.4342   -6.8042    0.0000 C   0  0  0  0  0  0  0  0  0  0  0  0
   13.7253   -6.3978    0.0000 C   0  0  0  0  0  0  0  0  0  0  0  0
   13.0181   -6.8098    0.0000 C   0  0  0  0  0  0  0  0  0  0  0  0
   13.0200   -7.6282    0.0000 C   0  0  0  0  0  0  0  0  0  0  0  0
   13.7290   -8.0346    0.0000 C   0  0  0  0  0  0  0  0  0  0  0  0
   14.4361   -7.6226    0.0000 C   0  0  0  0  0  0  0  0  0  0  0  0
   15.1374   -5.5774    0.0000 N   0  0  0  0  0  0  0  0  0  0  0  0
   16.5612   -8.0233    0.0000 C   0  0  0  0  0  0  0  0  0  0  0  0
   16.5631   -8.8417    0.0000 C   0  0  0  0  0  0  0  0  0  0  0  0
   17.2720   -9.2481    0.0000 C   0  0  0  0  0  0  0  0  0  0  0  0
   17.9791   -8.8361    0.0000 C   0  0  0  0  0  0  0  0  0  0  0  0
   17.9773   -8.0177    0.0000 C   0  0  0  0  0  0  0  0  0  0  0  0
   17.2683   -7.6113    0.0000 C   0  0  0  0  0  0  0  0  0  0  0  0
   18.6881   -9.2425    0.0000 O   0  0  0  0  0  0  0  0  0  0  0  0
   18.6900  -10.0609    0.0000 C   0  0  0  0  0  0  0  0  0  0  0  0
   17.2739  -10.0665    0.0000 O   0  0  0  0  0  0  0  0  0  0  0  0
   17.9829  -10.4729    0.0000 C   0  0  0  0  0  0  0  0  0  0  0  0
   15.8446   -5.1654    0.0000 C   0  0  0  0  0  0  0  0  0  0  0  0
   16.5535   -5.5718    0.0000 C   0  0  0  0  0  0  0  0  0  0  0  0
   17.2586   -5.1633    0.0000 C   0  0  0  0  0  0  0  0  0  0  0  0
   17.2567   -4.3450    0.0000 C   0  0  0  0  0  0  0  0  0  0  0  0
   16.5477   -3.9386    0.0000 C   0  0  0  0  0  0  0  0  0  0  0  0
   15.8406   -4.3506    0.0000 C   0  0  0  0  0  0  0  0  0  0  0  0
   17.9676   -5.5697    0.0000 Br  0  0  0  0  0  0  0  0  0  0  0  0
  1  2  2  0
  2  3  1  0
  3  4  2  0
  4  5  1  0
  5  6  2  0
  6  7  1  0
  7  8  2  0
  8  9  1  0
  9 10  2  0
  1 10  1  0
  5 10  1  0
  4 11  1  0
 12 13  2  0
 13 14  1  0
 14 15  2  0
 15 16  1  0
 16 17  2  0
 12 17  1  0
 18 19  1  0
 15 18  1  0
 20 21  1  0
 14 20  1  0
  2 12  1  0
 22 23  2  0
 23 24  1  0
 24 25  2  0
 25 26  1  0
 26 27  2  0
 22 27  1  0
 24 28  1  0
 11 22  1  0
M  END
>  <Classification>  (188) 
1

>  <pchembl>  (188) 
6.4

>  <InChI_steorem>  (188) 
InChI=1S/C22H18BrN3O2/c1-27-19-11-10-14(12-20(19)28-2)21-25-18-9-4-3-8-17(18)22(26-21)24-16-7-5-6-15(23)13-16/h3-13H,1-2H3,(H,24,25,26)

>  <source>  (188) 
ChEMBL25

>  <source_id>  (188) 
25

>  <optional_reference>  (188) 
10.1016/j.bmc.2013.10.007

>  <optional_origin>  (188) 
None

>  <target>  (188) 
BCRP

$$$$

     RDKit          2D

 28 31  0  0  0  0  0  0  0  0999 V2000
   17.7479   -4.1199    0.0000 C   0  0  0  0  0  0  0  0  0  0  0  0
   17.7657   -4.9345    0.0000 C   0  0  0  0  0  0  0  0  0  0  0  0
   18.4816   -5.3287    0.0000 C   0  0  0  0  0  0  0  0  0  0  0  0
   19.1796   -4.9082    0.0000 C   0  0  0  0  0  0  0  0  0  0  0  0
   19.1637   -4.0900    0.0000 C   0  0  0  0  0  0  0  0  0  0  0  0
   18.4478   -3.6958    0.0000 C   0  0  0  0  0  0  0  0  0  0  0  0
   17.0320   -3.7257    0.0000 O   0  0  0  0  0  0  0  0  0  0  0  0
   17.0658   -5.3586    0.0000 N   0  0  0  0  0  0  0  0  0  0  0  0
   17.1154   -7.8096    0.0000 N   0  0  0  0  0  0  0  0  0  0  0  0
   17.8154   -7.3856    0.0000 C   0  0  0  0  0  0  0  0  0  0  0  0
   17.7975   -6.5710    0.0000 N   0  0  0  0  0  0  0  0  0  0  0  0
   17.0817   -6.1768    0.0000 C   0  0  0  0  0  0  0  0  0  0  0  0
   16.3837   -6.5972    0.0000 C   0  0  0  0  0  0  0  0  0  0  0  0
   15.6679   -6.2030    0.0000 C   0  0  0  0  0  0  0  0  0  0  0  0
   14.9679   -6.6271    0.0000 C   0  0  0  0  0  0  0  0  0  0  0  0
   14.9838   -7.4453    0.0000 C   0  0  0  0  0  0  0  0  0  0  0  0
   15.6996   -7.8395    0.0000 C   0  0  0  0  0  0  0  0  0  0  0  0
   16.3996   -7.4155    0.0000 C   0  0  0  0  0  0  0  0  0  0  0  0
   18.5312   -7.7798    0.0000 C   0  0  0  0  0  0  0  0  0  0  0  0
   18.5471   -8.5980    0.0000 C   0  0  0  0  0  0  0  0  0  0  0  0
   19.2630   -8.9922    0.0000 C   0  0  0  0  0  0  0  0  0  0  0  0
   19.9629   -8.5681    0.0000 C   0  0  0  0  0  0  0  0  0  0  0  0
   19.9450   -7.7535    0.0000 C   0  0  0  0  0  0  0  0  0  0  0  0
   19.2292   -7.3593    0.0000 C   0  0  0  0  0  0  0  0  0  0  0  0
   20.6787   -8.9623    0.0000 O   0  0  0  0  0  0  0  0  0  0  0  0
   20.6946   -9.7805    0.0000 C   0  0  0  0  0  0  0  0  0  0  0  0
   19.2788   -9.8104    0.0000 O   0  0  0  0  0  0  0  0  0  0  0  0
   19.9947  -10.2046    0.0000 C   0  0  0  0  0  0  0  0  0  0  0  0
  1  2  2  0
  2  3  1  0
  3  4  2  0
  4  5  1  0
  5  6  2  0
  1  6  1  0
  1  7  1  0
  9 10  2  0
 10 11  1  0
 11 12  2  0
 12 13  1  0
 13 14  2  0
 14 15  1  0
 15 16  2  0
 16 17  1  0
 17 18  2  0
  9 18  1  0
 13 18  1  0
 19 20  2  0
 20 21  1  0
 21 22  2  0
 22 23  1  0
 23 24  2  0
 19 24  1  0
 25 26  1  0
 22 25  1  0
 27 28  1  0
 21 27  1  0
 10 19  1  0
  8 12  1  0
  2  8  1  0
M  END
>  <Classification>  (189) 
1

>  <pchembl>  (189) 
6.54

>  <InChI_steorem>  (189) 
InChI=1S/C22H19N3O3/c1-27-19-12-11-14(13-20(19)28-2)21-23-16-8-4-3-7-15(16)22(25-21)24-17-9-5-6-10-18(17)26/h3-13,26H,1-2H3,(H,23,24,25)

>  <source>  (189) 
ChEMBL25

>  <source_id>  (189) 
25

>  <optional_reference>  (189) 
10.1016/j.bmc.2013.10.007

>  <optional_origin>  (189) 
None

>  <target>  (189) 
BCRP

$$$$

     RDKit          2D

 28 31  0  0  0  0  0  0  0  0999 V2000
   18.3251   -3.0734    0.0000 C   0  0  0  0  0  0  0  0  0  0  0  0
   17.6318   -3.5015    0.0000 C   0  0  0  0  0  0  0  0  0  0  0  0
   17.6566   -4.3195    0.0000 C   0  0  0  0  0  0  0  0  0  0  0  0
   18.3767   -4.7058    0.0000 C   0  0  0  0  0  0  0  0  0  0  0  0
   19.0720   -4.2742    0.0000 C   0  0  0  0  0  0  0  0  0  0  0  0
   19.0452   -3.4598    0.0000 C   0  0  0  0  0  0  0  0  0  0  0  0
   18.3003   -2.2554    0.0000 O   0  0  0  0  0  0  0  0  0  0  0  0
   16.9613   -4.7512    0.0000 N   0  0  0  0  0  0  0  0  0  0  0  0
   17.0377   -7.2016    0.0000 N   0  0  0  0  0  0  0  0  0  0  0  0
   17.7330   -6.7699    0.0000 C   0  0  0  0  0  0  0  0  0  0  0  0
   17.7082   -5.9519    0.0000 N   0  0  0  0  0  0  0  0  0  0  0  0
   16.9881   -5.5655    0.0000 C   0  0  0  0  0  0  0  0  0  0  0  0
   16.2928   -5.9972    0.0000 C   0  0  0  0  0  0  0  0  0  0  0  0
   15.5727   -5.6108    0.0000 C   0  0  0  0  0  0  0  0  0  0  0  0
   14.8774   -6.0425    0.0000 C   0  0  0  0  0  0  0  0  0  0  0  0
   14.9022   -6.8605    0.0000 C   0  0  0  0  0  0  0  0  0  0  0  0
   15.6223   -7.2469    0.0000 C   0  0  0  0  0  0  0  0  0  0  0  0
   16.3176   -6.8152    0.0000 C   0  0  0  0  0  0  0  0  0  0  0  0
   18.4531   -7.1562    0.0000 C   0  0  0  0  0  0  0  0  0  0  0  0
   18.4779   -7.9742    0.0000 C   0  0  0  0  0  0  0  0  0  0  0  0
   19.1980   -8.3606    0.0000 C   0  0  0  0  0  0  0  0  0  0  0  0
   19.8933   -7.9289    0.0000 C   0  0  0  0  0  0  0  0  0  0  0  0
   19.8685   -7.1109    0.0000 C   0  0  0  0  0  0  0  0  0  0  0  0
   19.1484   -6.7246    0.0000 C   0  0  0  0  0  0  0  0  0  0  0  0
   20.6134   -8.3153    0.0000 O   0  0  0  0  0  0  0  0  0  0  0  0
   20.6382   -9.1333    0.0000 C   0  0  0  0  0  0  0  0  0  0  0  0
   19.2228   -9.1786    0.0000 O   0  0  0  0  0  0  0  0  0  0  0  0
   19.9429   -9.5650    0.0000 C   0  0  0  0  0  0  0  0  0  0  0  0
  1  2  2  0
  2  3  1  0
  3  4  2  0
  4  5  1  0
  5  6  2  0
  1  6  1  0
  1  7  1  0
  9 10  2  0
 10 11  1  0
 11 12  2  0
 12 13  1  0
 13 14  2  0
 14 15  1  0
 15 16  2  0
 16 17  1  0
 17 18  2  0
  9 18  1  0
 13 18  1  0
 19 20  2  0
 20 21  1  0
 21 22  2  0
 22 23  1  0
 23 24  2  0
 19 24  1  0
 25 26  1  0
 22 25  1  0
 27 28  1  0
 21 27  1  0
 10 19  1  0
  8 12  1  0
  3  8  1  0
M  END
>  <Classification>  (190) 
1

>  <pchembl>  (190) 
6.96

>  <InChI_steorem>  (190) 
InChI=1S/C22H19N3O3/c1-27-19-11-10-14(12-20(19)28-2)21-24-18-9-4-3-8-17(18)22(25-21)23-15-6-5-7-16(26)13-15/h3-13,26H,1-2H3,(H,23,24,25)

>  <source>  (190) 
ChEMBL25

>  <source_id>  (190) 
25

>  <optional_reference>  (190) 
10.1016/j.bmc.2013.10.007

>  <optional_origin>  (190) 
None

>  <target>  (190) 
BCRP

$$$$

     RDKit          2D

 29 32  0  0  0  0  0  0  0  0999 V2000
   18.9693   -3.9235    0.0000 C   0  0  0  0  0  0  0  0  0  0  0  0
   18.9807   -4.7418    0.0000 C   0  0  0  0  0  0  0  0  0  0  0  0
   18.2805   -5.1584    0.0000 C   0  0  0  0  0  0  0  0  0  0  0  0
   18.2919   -5.9767    0.0000 C   0  0  0  0  0  0  0  0  0  0  0  0
   19.0056   -6.3748    0.0000 C   0  0  0  0  0  0  0  0  0  0  0  0
   19.7078   -5.9546    0.0000 C   0  0  0  0  0  0  0  0  0  0  0  0
   19.6944   -5.1399    0.0000 C   0  0  0  0  0  0  0  0  0  0  0  0
   18.9579   -3.1052    0.0000 N   0  0  0  0  0  0  0  0  0  0  0  0
   17.5896   -6.3970    0.0000 N   0  0  0  0  0  0  0  0  0  0  0  0
   17.6259   -8.8483    0.0000 N   0  0  0  0  0  0  0  0  0  0  0  0
   18.3282   -8.4281    0.0000 C   0  0  0  0  0  0  0  0  0  0  0  0
   18.3168   -7.6097    0.0000 N   0  0  0  0  0  0  0  0  0  0  0  0
   17.6031   -7.2117    0.0000 C   0  0  0  0  0  0  0  0  0  0  0  0
   16.9008   -7.6319    0.0000 C   0  0  0  0  0  0  0  0  0  0  0  0
   16.1871   -7.2338    0.0000 C   0  0  0  0  0  0  0  0  0  0  0  0
   15.4849   -7.6541    0.0000 C   0  0  0  0  0  0  0  0  0  0  0  0
   15.4963   -8.4724    0.0000 C   0  0  0  0  0  0  0  0  0  0  0  0
   16.2100   -8.8704    0.0000 C   0  0  0  0  0  0  0  0  0  0  0  0
   16.9122   -8.4502    0.0000 C   0  0  0  0  0  0  0  0  0  0  0  0
   19.0419   -8.8261    0.0000 C   0  0  0  0  0  0  0  0  0  0  0  0
   19.0533   -9.6444    0.0000 C   0  0  0  0  0  0  0  0  0  0  0  0
   19.7670  -10.0425    0.0000 C   0  0  0  0  0  0  0  0  0  0  0  0
   20.4692   -9.6223    0.0000 C   0  0  0  0  0  0  0  0  0  0  0  0
   20.4578   -8.8040    0.0000 C   0  0  0  0  0  0  0  0  0  0  0  0
   19.7441   -8.4059    0.0000 C   0  0  0  0  0  0  0  0  0  0  0  0
   21.1829  -10.0204    0.0000 O   0  0  0  0  0  0  0  0  0  0  0  0
   21.1943  -10.8387    0.0000 C   0  0  0  0  0  0  0  0  0  0  0  0
   19.7784  -10.8608    0.0000 O   0  0  0  0  0  0  0  0  0  0  0  0
   20.4921  -11.2589    0.0000 C   0  0  0  0  0  0  0  0  0  0  0  0
  1  2  1  0
  2  3  2  0
  3  4  1  0
  4  5  2  0
  5  6  1  0
  6  7  2  0
  2  7  1  0
  1  8  3  0
 10 11  2  0
 11 12  1  0
 12 13  2  0
 13 14  1  0
 14 15  2  0
 15 16  1  0
 16 17  2  0
 17 18  1  0
 18 19  2  0
 10 19  1  0
 14 19  1  0
 20 21  2  0
 21 22  1  0
 22 23  2  0
 23 24  1  0
 24 25  2  0
 20 25  1  0
 26 27  1  0
 23 26  1  0
 28 29  1  0
 22 28  1  0
 11 20  1  0
  9 13  1  0
  4  9  1  0
M  END
>  <Classification>  (191) 
1

>  <pchembl>  (191) 
6.52

>  <InChI_steorem>  (191) 
InChI=1S/C23H18N4O2/c1-28-20-11-10-16(13-21(20)29-2)22-26-19-9-4-3-8-18(19)23(27-22)25-17-7-5-6-15(12-17)14-24/h3-13H,1-2H3,(H,25,26,27)

>  <source>  (191) 
ChEMBL25

>  <source_id>  (191) 
25

>  <optional_reference>  (191) 
10.1016/j.bmc.2013.10.007

>  <optional_origin>  (191) 
None

>  <target>  (191) 
BCRP

$$$$

     RDKit          2D

 30 33  0  0  0  0  0  0  0  0999 V2000
   15.0927   -8.1864    0.0000 N   0  0  0  0  0  0  0  0  0  0  0  0
   15.7846   -7.7561    0.0000 C   0  0  0  0  0  0  0  0  0  0  0  0
   15.7571   -6.9381    0.0000 N   0  0  0  0  0  0  0  0  0  0  0  0
   15.0357   -6.5542    0.0000 C   0  0  0  0  0  0  0  0  0  0  0  0
   14.3419   -6.9881    0.0000 C   0  0  0  0  0  0  0  0  0  0  0  0
   13.6205   -6.6042    0.0000 C   0  0  0  0  0  0  0  0  0  0  0  0
   12.9286   -7.0345    0.0000 C   0  0  0  0  0  0  0  0  0  0  0  0
   12.9561   -7.8524    0.0000 C   0  0  0  0  0  0  0  0  0  0  0  0
   13.6775   -8.2364    0.0000 C   0  0  0  0  0  0  0  0  0  0  0  0
   14.3713   -7.8024    0.0000 C   0  0  0  0  0  0  0  0  0  0  0  0
   15.0082   -5.7362    0.0000 N   0  0  0  0  0  0  0  0  0  0  0  0
   15.7021   -5.3023    0.0000 C   0  0  0  0  0  0  0  0  0  0  0  0
   15.6726   -4.4880    0.0000 C   0  0  0  0  0  0  0  0  0  0  0  0
   16.3665   -4.0540    0.0000 C   0  0  0  0  0  0  0  0  0  0  0  0
   17.0878   -4.4380    0.0000 C   0  0  0  0  0  0  0  0  0  0  0  0
   17.1154   -5.2559    0.0000 C   0  0  0  0  0  0  0  0  0  0  0  0
   16.4234   -5.6862    0.0000 C   0  0  0  0  0  0  0  0  0  0  0  0
   14.9513   -4.1040    0.0000 N   0  0  0  0  0  0  0  0  0  0  0  0
   14.2593   -4.5343    0.0000 O   0  0  0  0  0  0  0  0  0  0  0  0
   14.9237   -3.2861    0.0000 O   0  0  0  0  0  0  0  0  0  0  0  0
   16.5060   -8.1400    0.0000 C   0  0  0  0  0  0  0  0  0  0  0  0
   16.5354   -8.9543    0.0000 C   0  0  0  0  0  0  0  0  0  0  0  0
   17.2568   -9.3383    0.0000 C   0  0  0  0  0  0  0  0  0  0  0  0
   17.9487   -8.9080    0.0000 C   0  0  0  0  0  0  0  0  0  0  0  0
   17.9212   -8.0900    0.0000 C   0  0  0  0  0  0  0  0  0  0  0  0
   17.1998   -7.7061    0.0000 C   0  0  0  0  0  0  0  0  0  0  0  0
   18.6701   -9.2919    0.0000 O   0  0  0  0  0  0  0  0  0  0  0  0
   18.6995  -10.1062    0.0000 C   0  0  0  0  0  0  0  0  0  0  0  0
   17.2843  -10.1562    0.0000 O   0  0  0  0  0  0  0  0  0  0  0  0
   18.0057  -10.5402    0.0000 C   0  0  0  0  0  0  0  0  0  0  0  0
  1  2  2  0
  2  3  1  0
  3  4  2  0
  4  5  1  0
  5  6  2  0
  6  7  1  0
  7  8  2  0
  8  9  1  0
  9 10  2  0
  1 10  1  0
  5 10  1  0
  4 11  1  0
 12 13  2  0
 13 14  1  0
 14 15  2  0
 15 16  1  0
 16 17  2  0
 12 17  1  0
 18 19  2  0
 18 20  1  0
 13 18  1  0
 11 12  1  0
 21 22  2  0
 22 23  1  0
 23 24  2  0
 24 25  1  0
 25 26  2  0
 21 26  1  0
 27 28  1  0
 24 27  1  0
 29 30  1  0
 23 29  1  0
  2 21  1  0
M  CHG  2  18   1  20  -1
M  END
>  <Classification>  (192) 
1

>  <pchembl>  (192) 
5.81

>  <InChI_steorem>  (192) 
InChI=1S/C22H18N4O4/c1-29-19-12-11-14(13-20(19)30-2)21-23-16-8-4-3-7-15(16)22(25-21)24-17-9-5-6-10-18(17)26(27)28/h3-13H,1-2H3,(H,23,24,25)

>  <source>  (192) 
ChEMBL25

>  <source_id>  (192) 
25

>  <optional_reference>  (192) 
10.1016/j.bmc.2013.10.007

>  <optional_origin>  (192) 
None

>  <target>  (192) 
BCRP

$$$$

     RDKit          2D

 30 33  0  0  0  0  0  0  0  0999 V2000
   17.1721   -7.2364    0.0000 N   0  0  0  0  0  0  0  0  0  0  0  0
   17.8788   -6.8237    0.0000 C   0  0  0  0  0  0  0  0  0  0  0  0
   17.8740   -6.0089    0.0000 N   0  0  0  0  0  0  0  0  0  0  0  0
   17.1646   -5.6033    0.0000 C   0  0  0  0  0  0  0  0  0  0  0  0
   16.4599   -6.0124    0.0000 C   0  0  0  0  0  0  0  0  0  0  0  0
   15.7505   -5.6068    0.0000 C   0  0  0  0  0  0  0  0  0  0  0  0
   15.0438   -6.0196    0.0000 C   0  0  0  0  0  0  0  0  0  0  0  0
   15.0466   -6.8380    0.0000 C   0  0  0  0  0  0  0  0  0  0  0  0
   15.7560   -7.2436    0.0000 C   0  0  0  0  0  0  0  0  0  0  0  0
   16.4627   -6.8308    0.0000 C   0  0  0  0  0  0  0  0  0  0  0  0
   17.1618   -4.7849    0.0000 N   0  0  0  0  0  0  0  0  0  0  0  0
   17.8685   -4.3721    0.0000 C   0  0  0  0  0  0  0  0  0  0  0  0
   18.5779   -4.7777    0.0000 C   0  0  0  0  0  0  0  0  0  0  0  0
   19.2846   -4.3650    0.0000 C   0  0  0  0  0  0  0  0  0  0  0  0
   19.2798   -3.5502    0.0000 C   0  0  0  0  0  0  0  0  0  0  0  0
   18.5703   -3.1445    0.0000 C   0  0  0  0  0  0  0  0  0  0  0  0
   17.8657   -3.5537    0.0000 C   0  0  0  0  0  0  0  0  0  0  0  0
   19.9864   -3.1374    0.0000 N   0  0  0  0  0  0  0  0  0  0  0  0
   20.6959   -3.5430    0.0000 O   0  0  0  0  0  0  0  0  0  0  0  0
   19.9816   -2.3226    0.0000 O   0  0  0  0  0  0  0  0  0  0  0  0
   18.5882   -7.2293    0.0000 C   0  0  0  0  0  0  0  0  0  0  0  0
   18.5909   -8.0477    0.0000 C   0  0  0  0  0  0  0  0  0  0  0  0
   19.3004   -8.4533    0.0000 C   0  0  0  0  0  0  0  0  0  0  0  0
   20.0070   -8.0405    0.0000 C   0  0  0  0  0  0  0  0  0  0  0  0
   20.0022   -7.2257    0.0000 C   0  0  0  0  0  0  0  0  0  0  0  0
   19.2928   -6.8201    0.0000 C   0  0  0  0  0  0  0  0  0  0  0  0
   20.7164   -8.4461    0.0000 O   0  0  0  0  0  0  0  0  0  0  0  0
   20.7192   -9.2645    0.0000 C   0  0  0  0  0  0  0  0  0  0  0  0
   19.3031   -9.2717    0.0000 O   0  0  0  0  0  0  0  0  0  0  0  0
   20.0125   -9.6773    0.0000 C   0  0  0  0  0  0  0  0  0  0  0  0
  1  2  2  0
  2  3  1  0
  3  4  2  0
  4  5  1  0
  5  6  2  0
  6  7  1  0
  7  8  2  0
  8  9  1  0
  9 10  2  0
  1 10  1  0
  5 10  1  0
  4 11  1  0
 12 13  2  0
 13 14  1  0
 14 15  2  0
 15 16  1  0
 16 17  2  0
 12 17  1  0
 18 19  2  0
 18 20  1  0
 15 18  1  0
 11 12  1  0
 21 22  2  0
 22 23  1  0
 23 24  2  0
 24 25  1  0
 25 26  2  0
 21 26  1  0
 27 28  1  0
 24 27  1  0
 29 30  1  0
 23 29  1  0
  2 21  1  0
M  CHG  2  18   1  20  -1
M  END
>  <Classification>  (193) 
1

>  <pchembl>  (193) 
6.5

>  <InChI_steorem>  (193) 
InChI=1S/C22H18N4O4/c1-29-19-12-7-14(13-20(19)30-2)21-24-18-6-4-3-5-17(18)22(25-21)23-15-8-10-16(11-9-15)26(27)28/h3-13H,1-2H3,(H,23,24,25)

>  <source>  (193) 
ChEMBL25

>  <source_id>  (193) 
25

>  <optional_reference>  (193) 
10.1016/j.bmc.2013.10.007

>  <optional_origin>  (193) 
None

>  <target>  (193) 
BCRP

$$$$

     RDKit          2D

 30 33  0  0  0  0  0  0  0  0999 V2000
   17.8637   -8.2427    0.0000 N   0  0  0  0  0  0  0  0  0  0  0  0
   18.5537   -7.8094    0.0000 C   0  0  0  0  0  0  0  0  0  0  0  0
   18.5226   -6.9916    0.0000 N   0  0  0  0  0  0  0  0  0  0  0  0
   17.7996   -6.6107    0.0000 C   0  0  0  0  0  0  0  0  0  0  0  0
   17.1077   -7.0477    0.0000 C   0  0  0  0  0  0  0  0  0  0  0  0
   16.3846   -6.6669    0.0000 C   0  0  0  0  0  0  0  0  0  0  0  0
   15.6946   -7.1002    0.0000 C   0  0  0  0  0  0  0  0  0  0  0  0
   15.7256   -7.9180    0.0000 C   0  0  0  0  0  0  0  0  0  0  0  0
   16.4487   -8.2988    0.0000 C   0  0  0  0  0  0  0  0  0  0  0  0
   17.1406   -7.8619    0.0000 C   0  0  0  0  0  0  0  0  0  0  0  0
   17.7686   -5.7929    0.0000 N   0  0  0  0  0  0  0  0  0  0  0  0
   18.4605   -5.3560    0.0000 C   0  0  0  0  0  0  0  0  0  0  0  0
   19.1835   -5.7368    0.0000 C   0  0  0  0  0  0  0  0  0  0  0  0
   19.8736   -5.3035    0.0000 C   0  0  0  0  0  0  0  0  0  0  0  0
   19.8425   -4.4857    0.0000 C   0  0  0  0  0  0  0  0  0  0  0  0
   19.1195   -4.1049    0.0000 C   0  0  0  0  0  0  0  0  0  0  0  0
   18.4275   -4.5418    0.0000 C   0  0  0  0  0  0  0  0  0  0  0  0
   20.5966   -5.6843    0.0000 N   0  0  0  0  0  0  0  0  0  0  0  0
   20.6296   -6.4985    0.0000 O   0  0  0  0  0  0  0  0  0  0  0  0
   21.2886   -5.2473    0.0000 O   0  0  0  0  0  0  0  0  0  0  0  0
   19.2767   -8.1902    0.0000 C   0  0  0  0  0  0  0  0  0  0  0  0
   19.3097   -9.0043    0.0000 C   0  0  0  0  0  0  0  0  0  0  0  0
   20.0328   -9.3852    0.0000 C   0  0  0  0  0  0  0  0  0  0  0  0
   20.7228   -8.9518    0.0000 C   0  0  0  0  0  0  0  0  0  0  0  0
   20.6917   -8.1340    0.0000 C   0  0  0  0  0  0  0  0  0  0  0  0
   19.9687   -7.7532    0.0000 C   0  0  0  0  0  0  0  0  0  0  0  0
   21.4458   -9.3327    0.0000 O   0  0  0  0  0  0  0  0  0  0  0  0
   21.4788  -10.1468    0.0000 C   0  0  0  0  0  0  0  0  0  0  0  0
   20.0638  -10.2030    0.0000 O   0  0  0  0  0  0  0  0  0  0  0  0
   20.7869  -10.5838    0.0000 C   0  0  0  0  0  0  0  0  0  0  0  0
  1  2  2  0
  2  3  1  0
  3  4  2  0
  4  5  1  0
  5  6  2  0
  6  7  1  0
  7  8  2  0
  8  9  1  0
  9 10  2  0
  1 10  1  0
  5 10  1  0
  4 11  1  0
 12 13  2  0
 13 14  1  0
 14 15  2  0
 15 16  1  0
 16 17  2  0
 12 17  1  0
 18 19  2  0
 18 20  1  0
 14 18  1  0
 11 12  1  0
 21 22  2  0
 22 23  1  0
 23 24  2  0
 24 25  1  0
 25 26  2  0
 21 26  1  0
 27 28  1  0
 24 27  1  0
 29 30  1  0
 23 29  1  0
  2 21  1  0
M  CHG  2  18   1  20  -1
M  END
>  <Classification>  (194) 
1

>  <pchembl>  (194) 
7.04

>  <InChI_steorem>  (194) 
InChI=1S/C22H18N4O4/c1-29-19-11-10-14(12-20(19)30-2)21-24-18-9-4-3-8-17(18)22(25-21)23-15-6-5-7-16(13-15)26(27)28/h3-13H,1-2H3,(H,23,24,25)

>  <source>  (194) 
ChEMBL25

>  <source_id>  (194) 
25

>  <optional_reference>  (194) 
10.1016/j.bmc.2013.10.007

>  <optional_origin>  (194) 
None

>  <target>  (194) 
BCRP

$$$$

     RDKit          2D

 31 34  0  0  0  0  0  0  0  0999 V2000
   16.0222   -7.9065    0.0000 N   0  0  0  0  0  0  0  0  0  0  0  0
   16.7310   -7.4975    0.0000 C   0  0  0  0  0  0  0  0  0  0  0  0
   16.7306   -6.6827    0.0000 N   0  0  0  0  0  0  0  0  0  0  0  0
   16.0233   -6.2733    0.0000 C   0  0  0  0  0  0  0  0  0  0  0  0
   15.3165   -6.6787    0.0000 C   0  0  0  0  0  0  0  0  0  0  0  0
   14.6093   -6.2693    0.0000 C   0  0  0  0  0  0  0  0  0  0  0  0
   13.9004   -6.6783    0.0000 C   0  0  0  0  0  0  0  0  0  0  0  0
   13.8988   -7.4967    0.0000 C   0  0  0  0  0  0  0  0  0  0  0  0
   14.6061   -7.9061    0.0000 C   0  0  0  0  0  0  0  0  0  0  0  0
   15.3149   -7.4971    0.0000 C   0  0  0  0  0  0  0  0  0  0  0  0
   16.0250   -5.4549    0.0000 N   0  0  0  0  0  0  0  0  0  0  0  0
   17.4383   -7.9069    0.0000 C   0  0  0  0  0  0  0  0  0  0  0  0
   17.4367   -8.7253    0.0000 C   0  0  0  0  0  0  0  0  0  0  0  0
   18.1439   -9.1347    0.0000 C   0  0  0  0  0  0  0  0  0  0  0  0
   18.8528   -8.7257    0.0000 C   0  0  0  0  0  0  0  0  0  0  0  0
   18.8523   -7.9109    0.0000 C   0  0  0  0  0  0  0  0  0  0  0  0
   18.1451   -7.5015    0.0000 C   0  0  0  0  0  0  0  0  0  0  0  0
   19.5600   -9.1351    0.0000 O   0  0  0  0  0  0  0  0  0  0  0  0
   19.5584   -9.9535    0.0000 C   0  0  0  0  0  0  0  0  0  0  0  0
   18.1423   -9.9531    0.0000 O   0  0  0  0  0  0  0  0  0  0  0  0
   18.8496  -10.3625    0.0000 C   0  0  0  0  0  0  0  0  0  0  0  0
   16.7338   -5.0459    0.0000 C   0  0  0  0  0  0  0  0  0  0  0  0
   17.4411   -5.4553    0.0000 C   0  0  0  0  0  0  0  0  0  0  0  0
   18.1479   -5.0499    0.0000 C   0  0  0  0  0  0  0  0  0  0  0  0
   18.1495   -4.2315    0.0000 C   0  0  0  0  0  0  0  0  0  0  0  0
   17.4422   -3.8221    0.0000 C   0  0  0  0  0  0  0  0  0  0  0  0
   16.7334   -4.2311    0.0000 C   0  0  0  0  0  0  0  0  0  0  0  0
   18.8583   -3.8225    0.0000 O   0  0  0  0  0  0  0  0  0  0  0  0
   18.8579   -3.0077    0.0000 C   0  0  0  0  0  0  0  0  0  0  0  0
   18.8551   -5.4593    0.0000 O   0  0  0  0  0  0  0  0  0  0  0  0
   19.5640   -5.0503    0.0000 C   0  0  0  0  0  0  0  0  0  0  0  0
  1  2  2  0
  2  3  1  0
  3  4  2  0
  4  5  1  0
  5  6  2  0
  6  7  1  0
  7  8  2  0
  8  9  1  0
  9 10  2  0
  1 10  1  0
  5 10  1  0
  4 11  1  0
 12 13  2  0
 13 14  1  0
 14 15  2  0
 15 16  1  0
 16 17  2  0
 12 17  1  0
 18 19  1  0
 15 18  1  0
 20 21  1  0
 14 20  1  0
  2 12  1  0
 22 23  2  0
 23 24  1  0
 24 25  2  0
 25 26  1  0
 26 27  2  0
 22 27  1  0
 28 29  1  0
 25 28  1  0
 30 31  1  0
 24 30  1  0
 11 22  1  0
M  END
>  <Classification>  (195) 
1

>  <pchembl>  (195) 
6.21

>  <InChI_steorem>  (195) 
InChI=1S/C24H23N3O4/c1-28-19-11-9-15(13-21(19)30-3)23-26-18-8-6-5-7-17(18)24(27-23)25-16-10-12-20(29-2)22(14-16)31-4/h5-14H,1-4H3,(H,25,26,27)

>  <source>  (195) 
ChEMBL25

>  <source_id>  (195) 
25

>  <optional_reference>  (195) 
10.1016/j.bmc.2013.10.007

>  <optional_origin>  (195) 
None

>  <target>  (195) 
BCRP

$$$$

     RDKit          2D

 31 34  0  0  0  0  0  0  0  0999 V2000
   16.5269   -7.8159    0.0000 N   0  0  0  0  0  0  0  0  0  0  0  0
   17.2336   -7.4105    0.0000 C   0  0  0  0  0  0  0  0  0  0  0  0
   17.2352   -6.5921    0.0000 N   0  0  0  0  0  0  0  0  0  0  0  0
   16.5280   -6.1827    0.0000 C   0  0  0  0  0  0  0  0  0  0  0  0
   15.8191   -6.5917    0.0000 C   0  0  0  0  0  0  0  0  0  0  0  0
   15.1119   -6.1824    0.0000 C   0  0  0  0  0  0  0  0  0  0  0  0
   14.4051   -6.5878    0.0000 C   0  0  0  0  0  0  0  0  0  0  0  0
   14.4035   -7.4062    0.0000 C   0  0  0  0  0  0  0  0  0  0  0  0
   15.1108   -7.8156    0.0000 C   0  0  0  0  0  0  0  0  0  0  0  0
   15.8196   -7.4066    0.0000 C   0  0  0  0  0  0  0  0  0  0  0  0
   16.5296   -5.3643    0.0000 N   0  0  0  0  0  0  0  0  0  0  0  0
   17.2384   -4.9553    0.0000 C   0  0  0  0  0  0  0  0  0  0  0  0
   17.9457   -5.3647    0.0000 C   0  0  0  0  0  0  0  0  0  0  0  0
   18.6525   -4.9593    0.0000 C   0  0  0  0  0  0  0  0  0  0  0  0
   18.6540   -4.1409    0.0000 C   0  0  0  0  0  0  0  0  0  0  0  0
   17.9468   -3.7315    0.0000 C   0  0  0  0  0  0  0  0  0  0  0  0
   17.2379   -4.1405    0.0000 C   0  0  0  0  0  0  0  0  0  0  0  0
   19.3597   -5.3686    0.0000 C   0  0  0  0  0  0  0  0  0  0  0  0
   20.0670   -5.7780    0.0000 F   0  0  0  0  0  0  0  0  0  0  0  0
   20.0965   -5.1525    0.0000 F   0  0  0  0  0  0  0  0  0  0  0  0
   19.3432   -6.1741    0.0000 F   0  0  0  0  0  0  0  0  0  0  0  0
   17.9409   -7.8199    0.0000 C   0  0  0  0  0  0  0  0  0  0  0  0
   17.9414   -8.6347    0.0000 C   0  0  0  0  0  0  0  0  0  0  0  0
   18.6486   -9.0440    0.0000 C   0  0  0  0  0  0  0  0  0  0  0  0
   19.3554   -8.6386    0.0000 C   0  0  0  0  0  0  0  0  0  0  0  0
   19.3570   -7.8202    0.0000 C   0  0  0  0  0  0  0  0  0  0  0  0
   18.6498   -7.4108    0.0000 C   0  0  0  0  0  0  0  0  0  0  0  0
   20.0627   -9.0480    0.0000 O   0  0  0  0  0  0  0  0  0  0  0  0
   20.0632   -9.8628    0.0000 C   0  0  0  0  0  0  0  0  0  0  0  0
   18.6471   -9.8624    0.0000 O   0  0  0  0  0  0  0  0  0  0  0  0
   19.3543  -10.2718    0.0000 C   0  0  0  0  0  0  0  0  0  0  0  0
  1  2  2  0
  2  3  1  0
  3  4  2  0
  4  5  1  0
  5  6  2  0
  6  7  1  0
  7  8  2  0
  8  9  1  0
  9 10  2  0
  1 10  1  0
  5 10  1  0
  4 11  1  0
 12 13  2  0
 13 14  1  0
 14 15  2  0
 15 16  1  0
 16 17  2  0
 12 17  1  0
 18 19  1  0
 18 20  1  0
 18 21  1  0
 14 18  1  0
 11 12  1  0
 22 23  2  0
 23 24  1  0
 24 25  2  0
 25 26  1  0
 26 27  2  0
 22 27  1  0
 28 29  1  0
 25 28  1  0
 30 31  1  0
 24 30  1  0
  2 22  1  0
M  END
>  <Classification>  (196) 
1

>  <pchembl>  (196) 
6.62

>  <InChI_steorem>  (196) 
InChI=1S/C23H18F3N3O2/c1-30-19-11-10-14(12-20(19)31-2)21-28-18-9-4-3-8-17(18)22(29-21)27-16-7-5-6-15(13-16)23(24,25)26/h3-13H,1-2H3,(H,27,28,29)

>  <source>  (196) 
ChEMBL25

>  <source_id>  (196) 
25

>  <optional_reference>  (196) 
10.1016/j.bmc.2013.10.007

>  <optional_origin>  (196) 
None

>  <target>  (196) 
BCRP

$$$$

     RDKit          2D

 32 35  0  0  0  0  0  0  0  0999 V2000
   10.5334   -6.4564    0.0000 N   0  0  0  0  0  0  0  0  0  0  0  0
   11.2578   -6.0590    0.0000 C   0  0  0  0  0  0  0  0  0  0  0  0
   11.2749   -5.2366    0.0000 N   0  0  0  0  0  0  0  0  0  0  0  0
   10.5700   -4.8080    0.0000 C   0  0  0  0  0  0  0  0  0  0  0  0
    9.8479   -5.2019    0.0000 C   0  0  0  0  0  0  0  0  0  0  0  0
    9.1429   -4.7733    0.0000 C   0  0  0  0  0  0  0  0  0  0  0  0
    8.4185   -5.1708    0.0000 C   0  0  0  0  0  0  0  0  0  0  0  0
    8.3992   -5.9967    0.0000 C   0  0  0  0  0  0  0  0  0  0  0  0
    9.1041   -6.4252    0.0000 C   0  0  0  0  0  0  0  0  0  0  0  0
    9.8285   -6.0279    0.0000 C   0  0  0  0  0  0  0  0  0  0  0  0
   11.9626   -6.4876    0.0000 N   0  0  0  0  0  0  0  0  0  0  0  0
   10.5895   -3.9820    0.0000 N   0  0  0  0  0  0  0  0  0  0  0  0
   11.3138   -3.5847    0.0000 C   0  0  0  0  0  0  0  0  0  0  0  0
   12.0187   -4.0132    0.0000 C   0  0  0  0  0  0  0  0  0  0  0  0
   12.7409   -3.6194    0.0000 C   0  0  0  0  0  0  0  0  0  0  0  0
   12.7603   -2.7934    0.0000 C   0  0  0  0  0  0  0  0  0  0  0  0
   12.0553   -2.3648    0.0000 C   0  0  0  0  0  0  0  0  0  0  0  0
   11.3310   -2.7622    0.0000 C   0  0  0  0  0  0  0  0  0  0  0  0
   11.9433   -7.3135    0.0000 C   0  0  0  0  0  0  0  0  0  0  0  0
   12.6482   -7.7421    0.0000 C   0  0  0  0  0  0  0  0  0  0  0  0
   12.6288   -8.5681    0.0000 C   0  0  0  0  0  0  0  0  0  0  0  0
   11.9066   -8.9619    0.0000 C   0  0  0  0  0  0  0  0  0  0  0  0
   11.2016   -8.5333    0.0000 C   0  0  0  0  0  0  0  0  0  0  0  0
   11.2189   -7.7110    0.0000 C   0  0  0  0  0  0  0  0  0  0  0  0
    7.6770   -6.3905    0.0000 O   0  0  0  0  0  0  0  0  0  0  0  0
    6.9721   -5.9619    0.0000 C   0  0  0  0  0  0  0  0  0  0  0  0
    7.7137   -4.7421    0.0000 O   0  0  0  0  0  0  0  0  0  0  0  0
    6.9893   -5.1396    0.0000 C   0  0  0  0  0  0  0  0  0  0  0  0
   13.4434   -4.0438    0.0000 C   0  0  0  0  0  0  0  0  0  0  0  0
   14.1478   -4.4732    0.0000 N   0  0  0  0  0  0  0  0  0  0  0  0
   13.3342   -8.9957    0.0000 C   0  0  0  0  0  0  0  0  0  0  0  0
   14.0386   -9.4252    0.0000 N   0  0  0  0  0  0  0  0  0  0  0  0
  1  2  2  0
  2  3  1  0
  3  4  2  0
  4  5  1  0
  5  6  2  0
  6  7  1  0
  7  8  2  0
  8  9  1  0
  9 10  2  0
  1 10  1  0
  5 10  1  0
  2 11  1  0
  4 12  1  0
 13 14  2  0
 14 15  1  0
 15 16  2  0
 16 17  1  0
 17 18  2  0
 13 18  1  0
 12 13  1  0
 19 20  2  0
 20 21  1  0
 21 22  2  0
 22 23  1  0
 23 24  2  0
 19 24  1  0
 11 19  1  0
 25 26  1  0
  8 25  1  0
 27 28  1  0
  7 27  1  0
 29 30  3  0
 15 29  1  0
 31 32  3  0
 21 31  1  0
M  END
>  <Classification>  (197) 
1

>  <pchembl>  (197) 
6.33

>  <InChI_steorem>  (197) 
InChI=1S/C24H18N6O2/c1-31-21-11-19-20(12-22(21)32-2)29-24(28-18-8-4-6-16(10-18)14-26)30-23(19)27-17-7-3-5-15(9-17)13-25/h3-12H,1-2H3,(H2,27,28,29,30)

>  <source>  (197) 
ChEMBL25

>  <source_id>  (197) 
25

>  <optional_reference>  (197) 
10.1016/j.bmc.2013.10.007

>  <optional_origin>  (197) 
None

>  <target>  (197) 
BCRP

$$$$

     RDKit          2D

 34 37  0  0  0  0  0  0  0  0999 V2000
   10.4339   -6.3954    0.0000 N   0  0  0  0  0  0  0  0  0  0  0  0
   11.1514   -6.0017    0.0000 C   0  0  0  0  0  0  0  0  0  0  0  0
   11.1684   -5.1871    0.0000 N   0  0  0  0  0  0  0  0  0  0  0  0
   10.4701   -4.7626    0.0000 C   0  0  0  0  0  0  0  0  0  0  0  0
    9.7548   -5.1527    0.0000 C   0  0  0  0  0  0  0  0  0  0  0  0
    9.0565   -4.7282    0.0000 C   0  0  0  0  0  0  0  0  0  0  0  0
    8.3390   -5.1219    0.0000 C   0  0  0  0  0  0  0  0  0  0  0  0
    8.3198   -5.9400    0.0000 C   0  0  0  0  0  0  0  0  0  0  0  0
    9.0181   -6.3645    0.0000 C   0  0  0  0  0  0  0  0  0  0  0  0
    9.7356   -5.9709    0.0000 C   0  0  0  0  0  0  0  0  0  0  0  0
   11.8496   -6.4263    0.0000 N   0  0  0  0  0  0  0  0  0  0  0  0
   10.4894   -3.9444    0.0000 N   0  0  0  0  0  0  0  0  0  0  0  0
   11.2069   -3.5508    0.0000 C   0  0  0  0  0  0  0  0  0  0  0  0
   11.9051   -3.9753    0.0000 C   0  0  0  0  0  0  0  0  0  0  0  0
   12.6205   -3.5852    0.0000 C   0  0  0  0  0  0  0  0  0  0  0  0
   12.6397   -2.7670    0.0000 C   0  0  0  0  0  0  0  0  0  0  0  0
   11.9414   -2.3425    0.0000 C   0  0  0  0  0  0  0  0  0  0  0  0
   11.2239   -2.7361    0.0000 C   0  0  0  0  0  0  0  0  0  0  0  0
   11.8304   -7.2444    0.0000 C   0  0  0  0  0  0  0  0  0  0  0  0
   12.5287   -7.6689    0.0000 C   0  0  0  0  0  0  0  0  0  0  0  0
   12.5095   -8.4871    0.0000 C   0  0  0  0  0  0  0  0  0  0  0  0
   11.7941   -8.8772    0.0000 C   0  0  0  0  0  0  0  0  0  0  0  0
   11.0958   -8.4527    0.0000 C   0  0  0  0  0  0  0  0  0  0  0  0
   11.1129   -7.6381    0.0000 C   0  0  0  0  0  0  0  0  0  0  0  0
    7.6045   -6.3301    0.0000 O   0  0  0  0  0  0  0  0  0  0  0  0
    6.9062   -5.9056    0.0000 C   0  0  0  0  0  0  0  0  0  0  0  0
    7.6408   -4.6973    0.0000 O   0  0  0  0  0  0  0  0  0  0  0  0
    6.9233   -5.0910    0.0000 C   0  0  0  0  0  0  0  0  0  0  0  0
   13.3164   -4.0056    0.0000 N   0  0  0  0  0  0  0  0  0  0  0  0
   13.2082   -8.9107    0.0000 N   0  0  0  0  0  0  0  0  0  0  0  0
   14.0314   -3.6141    0.0000 O   0  0  0  0  0  0  0  0  0  0  0  0
   13.3033   -4.8194    0.0000 O   0  0  0  0  0  0  0  0  0  0  0  0
   13.9254   -8.5170    0.0000 O   0  0  0  0  0  0  0  0  0  0  0  0
   13.1916   -9.7272    0.0000 O   0  0  0  0  0  0  0  0  0  0  0  0
  1  2  2  0
  2  3  1  0
  3  4  2  0
  4  5  1  0
  5  6  2  0
  6  7  1  0
  7  8  2  0
  8  9  1  0
  9 10  2  0
  1 10  1  0
  5 10  1  0
  2 11  1  0
  4 12  1  0
 13 14  2  0
 14 15  1  0
 15 16  2  0
 16 17  1  0
 17 18  2  0
 13 18  1  0
 12 13  1  0
 19 20  2  0
 20 21  1  0
 21 22  2  0
 22 23  1  0
 23 24  2  0
 19 24  1  0
 11 19  1  0
 25 26  1  0
  8 25  1  0
 27 28  1  0
  7 27  1  0
 15 29  1  0
 21 30  1  0
 29 31  2  0
 29 32  1  0
 30 33  2  0
 30 34  1  0
M  CHG  4  29   1  30   1  32  -1  34  -1
M  END
>  <Classification>  (198) 
1

>  <pchembl>  (198) 
6.5

>  <InChI_steorem>  (198) 
InChI=1S/C22H18N6O6/c1-33-19-11-17-18(12-20(19)34-2)25-22(24-14-6-4-8-16(10-14)28(31)32)26-21(17)23-13-5-3-7-15(9-13)27(29)30/h3-12H,1-2H3,(H2,23,24,25,26)

>  <source>  (198) 
ChEMBL25

>  <source_id>  (198) 
25

>  <optional_reference>  (198) 
10.1016/j.bmc.2013.10.007

>  <optional_origin>  (198) 
None

>  <target>  (198) 
BCRP

$$$$

     RDKit          2D

 36 39  0  0  0  0  0  0  0  0999 V2000
   10.4339   -6.3954    0.0000 N   0  0  0  0  0  0  0  0  0  0  0  0
   11.1514   -6.0017    0.0000 C   0  0  0  0  0  0  0  0  0  0  0  0
   11.1684   -5.1871    0.0000 N   0  0  0  0  0  0  0  0  0  0  0  0
   10.4701   -4.7626    0.0000 C   0  0  0  0  0  0  0  0  0  0  0  0
    9.7548   -5.1527    0.0000 C   0  0  0  0  0  0  0  0  0  0  0  0
    9.0565   -4.7282    0.0000 C   0  0  0  0  0  0  0  0  0  0  0  0
    8.3390   -5.1219    0.0000 C   0  0  0  0  0  0  0  0  0  0  0  0
    8.3198   -5.9400    0.0000 C   0  0  0  0  0  0  0  0  0  0  0  0
    9.0181   -6.3645    0.0000 C   0  0  0  0  0  0  0  0  0  0  0  0
    9.7356   -5.9709    0.0000 C   0  0  0  0  0  0  0  0  0  0  0  0
   11.8496   -6.4263    0.0000 N   0  0  0  0  0  0  0  0  0  0  0  0
   10.4894   -3.9444    0.0000 N   0  0  0  0  0  0  0  0  0  0  0  0
   11.2069   -3.5508    0.0000 C   0  0  0  0  0  0  0  0  0  0  0  0
   11.9051   -3.9753    0.0000 C   0  0  0  0  0  0  0  0  0  0  0  0
   12.6205   -3.5852    0.0000 C   0  0  0  0  0  0  0  0  0  0  0  0
   12.6397   -2.7670    0.0000 C   0  0  0  0  0  0  0  0  0  0  0  0
   11.9414   -2.3425    0.0000 C   0  0  0  0  0  0  0  0  0  0  0  0
   11.2239   -2.7361    0.0000 C   0  0  0  0  0  0  0  0  0  0  0  0
   11.8304   -7.2444    0.0000 C   0  0  0  0  0  0  0  0  0  0  0  0
   12.5287   -7.6689    0.0000 C   0  0  0  0  0  0  0  0  0  0  0  0
   12.5095   -8.4871    0.0000 C   0  0  0  0  0  0  0  0  0  0  0  0
   11.7941   -8.8772    0.0000 C   0  0  0  0  0  0  0  0  0  0  0  0
   11.0958   -8.4527    0.0000 C   0  0  0  0  0  0  0  0  0  0  0  0
   11.1129   -7.6381    0.0000 C   0  0  0  0  0  0  0  0  0  0  0  0
    7.6045   -6.3301    0.0000 O   0  0  0  0  0  0  0  0  0  0  0  0
    6.9062   -5.9056    0.0000 C   0  0  0  0  0  0  0  0  0  0  0  0
    7.6408   -4.6973    0.0000 O   0  0  0  0  0  0  0  0  0  0  0  0
    6.9233   -5.0910    0.0000 C   0  0  0  0  0  0  0  0  0  0  0  0
   13.2072   -8.9125    0.0000 O   0  0  0  0  0  0  0  0  0  0  0  0
   13.1877   -9.7294    0.0000 C   0  0  0  0  0  0  0  0  0  0  0  0
   11.7749   -9.6942    0.0000 O   0  0  0  0  0  0  0  0  0  0  0  0
   11.0578  -10.0860    0.0000 C   0  0  0  0  0  0  0  0  0  0  0  0
   13.3182   -4.0106    0.0000 O   0  0  0  0  0  0  0  0  0  0  0  0
   13.2987   -4.8275    0.0000 C   0  0  0  0  0  0  0  0  0  0  0  0
   13.3566   -2.3748    0.0000 O   0  0  0  0  0  0  0  0  0  0  0  0
   14.0547   -2.7996    0.0000 C   0  0  0  0  0  0  0  0  0  0  0  0
  1  2  2  0
  2  3  1  0
  3  4  2  0
  4  5  1  0
  5  6  2  0
  6  7  1  0
  7  8  2  0
  8  9  1  0
  9 10  2  0
  1 10  1  0
  5 10  1  0
  2 11  1  0
  4 12  1  0
 13 14  2  0
 14 15  1  0
 15 16  2  0
 16 17  1  0
 17 18  2  0
 13 18  1  0
 12 13  1  0
 19 20  2  0
 20 21  1  0
 21 22  2  0
 22 23  1  0
 23 24  2  0
 19 24  1  0
 11 19  1  0
 25 26  1  0
  8 25  1  0
 27 28  1  0
  7 27  1  0
 21 29  1  0
 29 30  1  0
 22 31  1  0
 31 32  1  0
 15 33  1  0
 33 34  1  0
 16 35  1  0
 35 36  1  0
M  END
>  <Classification>  (199) 
1

>  <pchembl>  (199) 
5.82

>  <InChI_steorem>  (199) 
InChI=1S/C26H28N4O6/c1-31-19-9-7-15(11-21(19)33-3)27-25-17-13-23(35-5)24(36-6)14-18(17)29-26(30-25)28-16-8-10-20(32-2)22(12-16)34-4/h7-14H,1-6H3,(H2,27,28,29,30)

>  <source>  (199) 
ChEMBL25

>  <source_id>  (199) 
25

>  <optional_reference>  (199) 
10.1016/j.bmc.2013.10.007

>  <optional_origin>  (199) 
None

>  <target>  (199) 
BCRP

$$$$

     RDKit          2D

 36 39  0  0  0  0  0  0  0  0999 V2000
   12.0682   -7.7569    0.0000 N   0  0  0  0  0  0  0  0  0  0  0  0
   12.7857   -8.1505    0.0000 C   0  0  0  0  0  0  0  0  0  0  0  0
   12.8028   -8.9652    0.0000 N   0  0  0  0  0  0  0  0  0  0  0  0
   12.1045   -9.3897    0.0000 C   0  0  0  0  0  0  0  0  0  0  0  0
   11.3892   -8.9995    0.0000 C   0  0  0  0  0  0  0  0  0  0  0  0
   10.6909   -9.4241    0.0000 C   0  0  0  0  0  0  0  0  0  0  0  0
    9.9734   -9.0304    0.0000 C   0  0  0  0  0  0  0  0  0  0  0  0
    9.9542   -8.2122    0.0000 C   0  0  0  0  0  0  0  0  0  0  0  0
   10.6525   -7.7877    0.0000 C   0  0  0  0  0  0  0  0  0  0  0  0
   11.3700   -8.1814    0.0000 C   0  0  0  0  0  0  0  0  0  0  0  0
   13.4840   -7.7260    0.0000 N   0  0  0  0  0  0  0  0  0  0  0  0
   12.1237  -10.2078    0.0000 N   0  0  0  0  0  0  0  0  0  0  0  0
   12.8412  -10.6015    0.0000 C   0  0  0  0  0  0  0  0  0  0  0  0
   13.5395  -10.1770    0.0000 C   0  0  0  0  0  0  0  0  0  0  0  0
   14.2549  -10.5671    0.0000 C   0  0  0  0  0  0  0  0  0  0  0  0
   14.2741  -11.3853    0.0000 C   0  0  0  0  0  0  0  0  0  0  0  0
   13.5758  -11.8098    0.0000 C   0  0  0  0  0  0  0  0  0  0  0  0
   12.8583  -11.4161    0.0000 C   0  0  0  0  0  0  0  0  0  0  0  0
   14.9531  -10.1426    0.0000 C   0  0  0  0  0  0  0  0  0  0  0  0
   14.9241   -9.3724    0.0000 F   0  0  0  0  0  0  0  0  0  0  0  0
   15.6514   -9.7181    0.0000 F   0  0  0  0  0  0  0  0  0  0  0  0
   15.8090  -10.4814    0.0000 F   0  0  0  0  0  0  0  0  0  0  0  0
   13.4648   -6.9079    0.0000 C   0  0  0  0  0  0  0  0  0  0  0  0
   14.1631   -6.4833    0.0000 C   0  0  0  0  0  0  0  0  0  0  0  0
   14.1439   -5.6652    0.0000 C   0  0  0  0  0  0  0  0  0  0  0  0
   13.4285   -5.2751    0.0000 C   0  0  0  0  0  0  0  0  0  0  0  0
   12.7302   -5.6996    0.0000 C   0  0  0  0  0  0  0  0  0  0  0  0
   12.7473   -6.5142    0.0000 C   0  0  0  0  0  0  0  0  0  0  0  0
   14.8421   -5.2407    0.0000 C   0  0  0  0  0  0  0  0  0  0  0  0
   14.8490   -4.2907    0.0000 F   0  0  0  0  0  0  0  0  0  0  0  0
   15.5404   -4.8162    0.0000 F   0  0  0  0  0  0  0  0  0  0  0  0
   15.6261   -5.4716    0.0000 F   0  0  0  0  0  0  0  0  0  0  0  0
    9.2388   -7.8221    0.0000 O   0  0  0  0  0  0  0  0  0  0  0  0
    8.5406   -8.2466    0.0000 C   0  0  0  0  0  0  0  0  0  0  0  0
    9.2751   -9.4549    0.0000 O   0  0  0  0  0  0  0  0  0  0  0  0
    8.5576   -9.0613    0.0000 C   0  0  0  0  0  0  0  0  0  0  0  0
  1  2  2  0
  2  3  1  0
  3  4  2  0
  4  5  1  0
  5  6  2  0
  6  7  1  0
  7  8  2  0
  8  9  1  0
  9 10  2  0
  1 10  1  0
  5 10  1  0
  2 11  1  0
  4 12  1  0
 13 14  2  0
 14 15  1  0
 15 16  2  0
 16 17  1  0
 17 18  2  0
 13 18  1  0
 19 20  1  0
 19 21  1  0
 19 22  1  0
 15 19  1  0
 12 13  1  0
 23 24  2  0
 24 25  1  0
 25 26  2  0
 26 27  1  0
 27 28  2  0
 23 28  1  0
 29 30  1  0
 29 31  1  0
 29 32  1  0
 25 29  1  0
 11 23  1  0
 33 34  1  0
  8 33  1  0
 35 36  1  0
  7 35  1  0
M  END
>  <Classification>  (200) 
1

>  <pchembl>  (200) 
6.21

>  <InChI_steorem>  (200) 
InChI=1S/C24H18F6N4O2/c1-35-19-11-17-18(12-20(19)36-2)33-22(32-16-8-4-6-14(10-16)24(28,29)30)34-21(17)31-15-7-3-5-13(9-15)23(25,26)27/h3-12H,1-2H3,(H2,31,32,33,34)

>  <source>  (200) 
ChEMBL25

>  <source_id>  (200) 
25

>  <optional_reference>  (200) 
10.1016/j.bmc.2013.10.007

>  <optional_origin>  (200) 
None

>  <target>  (200) 
BCRP

$$$$

     RDKit          2D

 35 39  0  0  0  0  0  0  0  0999 V2000
   30.8678   -4.6336    0.0000 C   0  0  0  0  0  0  0  0  0  0  0  0
   30.8666   -5.4611    0.0000 C   0  0  0  0  0  0  0  0  0  0  0  0
   31.5815   -5.8740    0.0000 C   0  0  0  0  0  0  0  0  0  0  0  0
   31.5797   -4.2209    0.0000 C   0  0  0  0  0  0  0  0  0  0  0  0
   32.2951   -4.6300    0.0000 C   0  0  0  0  0  0  0  0  0  0  0  0
   32.2939   -5.4632    0.0000 C   0  0  0  0  0  0  0  0  0  0  0  0
   33.0108   -5.8785    0.0000 O   0  0  0  0  0  0  0  0  0  0  0  0
   33.7336   -5.4653    0.0000 C   0  0  0  0  0  0  0  0  0  0  0  0
   33.7348   -4.6321    0.0000 C   0  0  0  0  0  0  0  0  0  0  0  0
   33.0132   -4.2122    0.0000 C   0  0  0  0  0  0  0  0  0  0  0  0
   34.4469   -5.8798    0.0000 C   0  0  0  0  0  0  0  0  0  0  0  0
   34.4446   -6.7049    0.0000 O   0  0  0  0  0  0  0  0  0  0  0  0
   35.1627   -5.4693    0.0000 N   0  0  0  0  0  0  0  0  0  0  0  0
   35.8760   -5.8839    0.0000 C   0  0  0  0  0  0  0  0  0  0  0  0
   36.5917   -5.4733    0.0000 C   0  0  0  0  0  0  0  0  0  0  0  0
   37.3058   -5.8873    0.0000 C   0  0  0  0  0  0  0  0  0  0  0  0
   38.6401   -5.8878    0.0000 N   0  0  0  0  0  0  0  0  0  0  0  0
   37.9734   -5.4017    0.0000 C   0  0  0  0  0  0  0  0  0  0  0  0
   38.3835   -6.6720    0.0000 C   0  0  0  0  0  0  0  0  0  0  0  0
   37.5620   -6.6698    0.0000 C   0  0  0  0  0  0  0  0  0  0  0  0
   37.1510   -7.3790    0.0000 C   0  0  0  0  0  0  0  0  0  0  0  0
   37.5606   -8.0910    0.0000 C   0  0  0  0  0  0  0  0  0  0  0  0
   38.3852   -8.0892    0.0000 C   0  0  0  0  0  0  0  0  0  0  0  0
   38.7925   -7.3794    0.0000 C   0  0  0  0  0  0  0  0  0  0  0  0
   33.0132   -3.3871    0.0000 O   0  0  0  0  0  0  0  0  0  0  0  0
   31.5772   -3.3958    0.0000 O   0  0  0  0  0  0  0  0  0  0  0  0
   30.8614   -2.9854    0.0000 C   0  0  0  0  0  0  0  0  0  0  0  0
   30.1482   -3.4001    0.0000 C   0  0  0  0  0  0  0  0  0  0  0  0
   29.4362   -2.9888    0.0000 C   0  0  0  0  0  0  0  0  0  0  0  0
   28.7234   -3.4028    0.0000 C   0  0  0  0  0  0  0  0  0  0  0  0
   28.7254   -4.2288    0.0000 C   0  0  0  0  0  0  0  0  0  0  0  0
   29.4462   -4.6390    0.0000 C   0  0  0  0  0  0  0  0  0  0  0  0
   30.1561   -4.2226    0.0000 C   0  0  0  0  0  0  0  0  0  0  0  0
   39.4252   -5.6343    0.0000 C   0  0  0  0  0  0  0  0  0  0  0  0
   28.0127   -4.6443    0.0000 Br  0  0  0  0  0  0  0  0  0  0  0  0
  1  2  2  0
  2  3  1  0
  3  6  2  0
  5  4  2  0
  4  1  1  0
  5  6  1  0
  5 10  1  0
  6  7  1  0
  7  8  1  0
  8  9  2  0
  9 10  1  0
  8 11  1  0
 11 12  2  0
 11 13  1  0
 13 14  1  0
 14 15  1  0
 15 16  1  0
 16 20  1  0
 19 17  1  0
 17 18  1  0
 18 16  2  0
 19 20  2  0
 20 21  1  0
 21 22  2  0
 22 23  1  0
 23 24  2  0
 24 19  1  0
 10 25  2  0
  4 26  1  0
 26 27  1  0
 27 28  1  0
 28 29  2  0
 29 30  1  0
 30 31  2  0
 31 32  1  0
 32 33  2  0
 33 28  1  0
 17 34  1  0
 31 35  1  0
M  END
>  <Classification>  (201) 
1

>  <pchembl>  (201) 
5.96

>  <InChI_steorem>  (201) 
InChI=1S/C28H23BrN2O4/c1-31-16-19(21-5-2-3-6-22(21)31)13-14-30-28(33)26-15-23(32)27-24(7-4-8-25(27)35-26)34-17-18-9-11-20(29)12-10-18/h2-12,15-16H,13-14,17H2,1H3,(H,30,33)

>  <source>  (201) 
ChEMBL25

>  <source_id>  (201) 
25

>  <optional_reference>  (201) 
10.1021/jm401649j

>  <optional_origin>  (201) 
None

>  <target>  (201) 
BCRP

$$$$

     RDKit          2D

 36 40  0  0  0  0  0  0  0  0999 V2000
   14.9276  -21.6623    0.0000 C   0  0  0  0  0  0  0  0  0  0  0  0
   14.9265  -22.4897    0.0000 C   0  0  0  0  0  0  0  0  0  0  0  0
   15.6412  -22.9025    0.0000 C   0  0  0  0  0  0  0  0  0  0  0  0
   15.6395  -21.2496    0.0000 C   0  0  0  0  0  0  0  0  0  0  0  0
   16.3549  -21.6587    0.0000 C   0  0  0  0  0  0  0  0  0  0  0  0
   16.3537  -22.4917    0.0000 C   0  0  0  0  0  0  0  0  0  0  0  0
   17.0706  -22.9071    0.0000 O   0  0  0  0  0  0  0  0  0  0  0  0
   17.7932  -22.4939    0.0000 C   0  0  0  0  0  0  0  0  0  0  0  0
   17.7944  -21.6608    0.0000 C   0  0  0  0  0  0  0  0  0  0  0  0
   17.0730  -21.2409    0.0000 C   0  0  0  0  0  0  0  0  0  0  0  0
   18.5065  -22.9084    0.0000 C   0  0  0  0  0  0  0  0  0  0  0  0
   18.5042  -23.7333    0.0000 O   0  0  0  0  0  0  0  0  0  0  0  0
   19.2221  -22.4979    0.0000 N   0  0  0  0  0  0  0  0  0  0  0  0
   19.9355  -22.9123    0.0000 C   0  0  0  0  0  0  0  0  0  0  0  0
   20.6512  -22.5017    0.0000 C   0  0  0  0  0  0  0  0  0  0  0  0
   17.0730  -20.4159    0.0000 O   0  0  0  0  0  0  0  0  0  0  0  0
   15.6370  -20.4246    0.0000 O   0  0  0  0  0  0  0  0  0  0  0  0
   14.9213  -20.0142    0.0000 C   0  0  0  0  0  0  0  0  0  0  0  0
   14.2081  -20.4288    0.0000 C   0  0  0  0  0  0  0  0  0  0  0  0
   13.4963  -20.0176    0.0000 C   0  0  0  0  0  0  0  0  0  0  0  0
   12.7834  -20.4315    0.0000 C   0  0  0  0  0  0  0  0  0  0  0  0
   12.7854  -21.2575    0.0000 C   0  0  0  0  0  0  0  0  0  0  0  0
   13.5061  -21.6676    0.0000 C   0  0  0  0  0  0  0  0  0  0  0  0
   14.2160  -21.2513    0.0000 C   0  0  0  0  0  0  0  0  0  0  0  0
   12.0770  -21.6730    0.0000 Br  0  0  0  0  0  0  0  0  0  0  0  0
   21.4316  -22.7651    0.0000 C   0  0  0  0  0  0  0  0  0  0  0  0
   21.9259  -22.1046    0.0000 N   0  0  0  0  0  0  0  0  0  0  0  0
   21.4503  -21.4303    0.0000 N   0  0  0  0  0  0  0  0  0  0  0  0
   20.6622  -21.6743    0.0000 N   0  0  0  0  0  0  0  0  0  0  0  0
   22.7508  -22.1161    0.0000 C   0  0  0  0  0  0  0  0  0  0  0  0
   23.1733  -21.4075    0.0000 C   0  0  0  0  0  0  0  0  0  0  0  0
   23.9958  -21.4243    0.0000 C   0  0  0  0  0  0  0  0  0  0  0  0
   24.4181  -20.7165    0.0000 C   0  0  0  0  0  0  0  0  0  0  0  0
   24.0156  -19.9954    0.0000 C   0  0  0  0  0  0  0  0  0  0  0  0
   23.1864  -19.9864    0.0000 C   0  0  0  0  0  0  0  0  0  0  0  0
   22.7677  -20.6948    0.0000 C   0  0  0  0  0  0  0  0  0  0  0  0
  1  2  2  0
  2  3  1  0
  3  6  2  0
  5  4  2  0
  4  1  1  0
  5  6  1  0
  5 10  1  0
  6  7  1  0
  7  8  1  0
  8  9  2  0
  9 10  1  0
  8 11  1  0
 11 12  2  0
 11 13  1  0
 13 14  1  0
 14 15  1  0
 10 16  2  0
  4 17  1  0
 17 18  1  0
 18 19  1  0
 19 20  2  0
 20 21  1  0
 21 22  2  0
 22 23  1  0
 23 24  2  0
 24 19  1  0
 22 25  1  0
 15 26  2  0
 26 27  1  0
 27 28  1  0
 28 29  2  0
 29 15  1  0
 27 30  1  0
 30 31  1  0
 31 32  2  0
 32 33  1  0
 33 34  2  0
 34 35  1  0
 35 36  2  0
 36 31  1  0
M  END
>  <Classification>  (202) 
1

>  <pchembl>  (202) 
6.37

>  <InChI_steorem>  (202) 
InChI=1S/C27H21BrN4O4/c28-20-11-9-19(10-12-20)17-35-23-7-4-8-24-26(23)22(33)13-25(36-24)27(34)29-14-21-16-32(31-30-21)15-18-5-2-1-3-6-18/h1-13,16H,14-15,17H2,(H,29,34)

>  <source>  (202) 
ChEMBL25

>  <source_id>  (202) 
25

>  <optional_reference>  (202) 
10.1021/jm401649j

>  <optional_origin>  (202) 
None

>  <target>  (202) 
BCRP

$$$$

     RDKit          2D

 36 40  0  0  0  0  0  0  0  0999 V2000
   15.7245   -1.7209    0.0000 C   0  0  0  0  0  0  0  0  0  0  0  0
   15.7234   -2.5483    0.0000 C   0  0  0  0  0  0  0  0  0  0  0  0
   16.4382   -2.9612    0.0000 C   0  0  0  0  0  0  0  0  0  0  0  0
   16.4365   -1.3081    0.0000 C   0  0  0  0  0  0  0  0  0  0  0  0
   17.1519   -1.7173    0.0000 C   0  0  0  0  0  0  0  0  0  0  0  0
   17.1507   -2.5504    0.0000 C   0  0  0  0  0  0  0  0  0  0  0  0
   17.8676   -2.9656    0.0000 O   0  0  0  0  0  0  0  0  0  0  0  0
   18.5903   -2.5524    0.0000 C   0  0  0  0  0  0  0  0  0  0  0  0
   18.5915   -1.7194    0.0000 C   0  0  0  0  0  0  0  0  0  0  0  0
   17.8700   -1.2995    0.0000 C   0  0  0  0  0  0  0  0  0  0  0  0
   19.3037   -2.9670    0.0000 C   0  0  0  0  0  0  0  0  0  0  0  0
   19.3013   -3.7920    0.0000 O   0  0  0  0  0  0  0  0  0  0  0  0
   20.0193   -2.5564    0.0000 N   0  0  0  0  0  0  0  0  0  0  0  0
   20.7327   -2.9710    0.0000 C   0  0  0  0  0  0  0  0  0  0  0  0
   21.4483   -2.5605    0.0000 C   0  0  0  0  0  0  0  0  0  0  0  0
   22.1625   -2.9745    0.0000 C   0  0  0  0  0  0  0  0  0  0  0  0
   23.4966   -2.9749    0.0000 N   0  0  0  0  0  0  0  0  0  0  0  0
   22.8301   -2.4888    0.0000 C   0  0  0  0  0  0  0  0  0  0  0  0
   23.2402   -3.7592    0.0000 C   0  0  0  0  0  0  0  0  0  0  0  0
   22.4186   -3.7570    0.0000 C   0  0  0  0  0  0  0  0  0  0  0  0
   22.0076   -4.4661    0.0000 C   0  0  0  0  0  0  0  0  0  0  0  0
   22.4171   -5.1781    0.0000 C   0  0  0  0  0  0  0  0  0  0  0  0
   23.2419   -5.1764    0.0000 C   0  0  0  0  0  0  0  0  0  0  0  0
   23.6491   -4.4666    0.0000 C   0  0  0  0  0  0  0  0  0  0  0  0
   17.8700   -0.4744    0.0000 O   0  0  0  0  0  0  0  0  0  0  0  0
   16.4339   -0.4831    0.0000 O   0  0  0  0  0  0  0  0  0  0  0  0
   15.7182   -0.0727    0.0000 C   0  0  0  0  0  0  0  0  0  0  0  0
   15.0049   -0.4873    0.0000 C   0  0  0  0  0  0  0  0  0  0  0  0
   14.2930   -0.0761    0.0000 C   0  0  0  0  0  0  0  0  0  0  0  0
   13.5801   -0.4901    0.0000 C   0  0  0  0  0  0  0  0  0  0  0  0
   13.5822   -1.3159    0.0000 C   0  0  0  0  0  0  0  0  0  0  0  0
   14.3029   -1.7261    0.0000 C   0  0  0  0  0  0  0  0  0  0  0  0
   15.0128   -1.3099    0.0000 C   0  0  0  0  0  0  0  0  0  0  0  0
   23.6561   -5.8899    0.0000 O   0  0  0  0  0  0  0  0  0  0  0  0
   23.2453   -6.6054    0.0000 C   0  0  0  0  0  0  0  0  0  0  0  0
   12.8695   -1.7316    0.0000 Br  0  0  0  0  0  0  0  0  0  0  0  0
  1  2  2  0
  2  3  1  0
  3  6  2  0
  5  4  2  0
  4  1  1  0
  5  6  1  0
  5 10  1  0
  6  7  1  0
  7  8  1  0
  8  9  2  0
  9 10  1  0
  8 11  1  0
 11 12  2  0
 11 13  1  0
 13 14  1  0
 14 15  1  0
 15 16  1  0
 16 20  1  0
 19 17  1  0
 17 18  1  0
 18 16  2  0
 19 20  2  0
 20 21  1  0
 21 22  2  0
 22 23  1  0
 23 24  2  0
 24 19  1  0
 10 25  2  0
  4 26  1  0
 26 27  1  0
 27 28  1  0
 28 29  2  0
 29 30  1  0
 30 31  2  0
 31 32  1  0
 32 33  2  0
 33 28  1  0
 23 34  1  0
 34 35  1  0
 31 36  1  0
M  END
>  <Classification>  (203) 
1

>  <pchembl>  (203) 
6.54

>  <InChI_steorem>  (203) 
InChI=1S/C28H23BrN2O5/c1-34-20-9-10-21-18(15-31-22(21)13-20)11-12-30-28(33)26-14-23(32)27-24(3-2-4-25(27)36-26)35-16-17-5-7-19(29)8-6-17/h2-10,13-15,31H,11-12,16H2,1H3,(H,30,33)

>  <source>  (203) 
ChEMBL25

>  <source_id>  (203) 
25

>  <optional_reference>  (203) 
10.1021/jm401649j

>  <optional_origin>  (203) 
None

>  <target>  (203) 
BCRP

$$$$

     RDKit          2D

 36 40  0  0  0  0  0  0  0  0999 V2000
   18.4420   -3.1794    0.0000 C   0  0  0  0  0  0  0  0  0  0  0  0
   18.4409   -4.0069    0.0000 C   0  0  0  0  0  0  0  0  0  0  0  0
   19.1557   -4.4197    0.0000 C   0  0  0  0  0  0  0  0  0  0  0  0
   19.1539   -2.7666    0.0000 C   0  0  0  0  0  0  0  0  0  0  0  0
   19.8693   -3.1758    0.0000 C   0  0  0  0  0  0  0  0  0  0  0  0
   19.8681   -4.0089    0.0000 C   0  0  0  0  0  0  0  0  0  0  0  0
   20.5851   -4.4243    0.0000 O   0  0  0  0  0  0  0  0  0  0  0  0
   21.3079   -4.0110    0.0000 C   0  0  0  0  0  0  0  0  0  0  0  0
   21.3091   -3.1779    0.0000 C   0  0  0  0  0  0  0  0  0  0  0  0
   20.5875   -2.7580    0.0000 C   0  0  0  0  0  0  0  0  0  0  0  0
   22.0212   -4.4256    0.0000 C   0  0  0  0  0  0  0  0  0  0  0  0
   22.7369   -4.0151    0.0000 N   0  0  0  0  0  0  0  0  0  0  0  0
   23.4503   -4.4296    0.0000 C   0  0  0  0  0  0  0  0  0  0  0  0
   24.1660   -4.0191    0.0000 C   0  0  0  0  0  0  0  0  0  0  0  0
   24.8801   -4.4331    0.0000 C   0  0  0  0  0  0  0  0  0  0  0  0
   26.2144   -4.4336    0.0000 N   0  0  0  0  0  0  0  0  0  0  0  0
   25.5477   -3.9474    0.0000 C   0  0  0  0  0  0  0  0  0  0  0  0
   25.9578   -5.2178    0.0000 C   0  0  0  0  0  0  0  0  0  0  0  0
   25.1363   -5.2156    0.0000 C   0  0  0  0  0  0  0  0  0  0  0  0
   24.7253   -5.9248    0.0000 C   0  0  0  0  0  0  0  0  0  0  0  0
   25.1349   -6.6368    0.0000 C   0  0  0  0  0  0  0  0  0  0  0  0
   25.9595   -6.6350    0.0000 C   0  0  0  0  0  0  0  0  0  0  0  0
   26.3668   -5.9252    0.0000 C   0  0  0  0  0  0  0  0  0  0  0  0
   20.5876   -1.9329    0.0000 O   0  0  0  0  0  0  0  0  0  0  0  0
   19.1515   -1.9416    0.0000 O   0  0  0  0  0  0  0  0  0  0  0  0
   18.4356   -1.5311    0.0000 C   0  0  0  0  0  0  0  0  0  0  0  0
   17.7224   -1.9458    0.0000 C   0  0  0  0  0  0  0  0  0  0  0  0
   17.0104   -1.5346    0.0000 C   0  0  0  0  0  0  0  0  0  0  0  0
   16.2976   -1.9485    0.0000 C   0  0  0  0  0  0  0  0  0  0  0  0
   16.2996   -2.7745    0.0000 C   0  0  0  0  0  0  0  0  0  0  0  0
   17.0204   -3.1847    0.0000 C   0  0  0  0  0  0  0  0  0  0  0  0
   17.7303   -2.7684    0.0000 C   0  0  0  0  0  0  0  0  0  0  0  0
   15.5869   -3.1901    0.0000 Br  0  0  0  0  0  0  0  0  0  0  0  0
   24.7224   -7.3515    0.0000 O   0  0  0  0  0  0  0  0  0  0  0  0
   23.8974   -7.3516    0.0000 C   0  0  0  0  0  0  0  0  0  0  0  0
   22.7393   -3.1900    0.0000 C   0  0  0  0  0  0  0  0  0  0  0  0
  1  2  2  0
  2  3  1  0
  3  6  2  0
  5  4  2  0
  4  1  1  0
  5  6  1  0
  5 10  1  0
  6  7  1  0
  7  8  1  0
  8  9  2  0
  9 10  1  0
  8 11  1  0
 11 12  1  0
 12 13  1  0
 13 14  1  0
 14 15  1  0
 15 19  1  0
 18 16  1  0
 16 17  1  0
 17 15  2  0
 18 19  2  0
 19 20  1  0
 20 21  2  0
 21 22  1  0
 22 23  2  0
 23 18  1  0
 10 24  2  0
  4 25  1  0
 25 26  1  0
 26 27  1  0
 27 28  2  0
 28 29  1  0
 29 30  2  0
 30 31  1  0
 31 32  2  0
 32 27  1  0
 30 33  1  0
 21 34  1  0
 34 35  1  0
 12 36  1  0
M  END
>  <Classification>  (204) 
1

>  <pchembl>  (204) 
6.09

>  <InChI_steorem>  (204) 
InChI=1S/C29H27BrN2O4/c1-32(13-12-20-16-31-25-11-10-22(34-2)14-24(20)25)17-23-15-26(33)29-27(4-3-5-28(29)36-23)35-18-19-6-8-21(30)9-7-19/h3-11,14-16,31H,12-13,17-18H2,1-2H3

>  <source>  (204) 
ChEMBL25

>  <source_id>  (204) 
25

>  <optional_reference>  (204) 
10.1021/jm401649j

>  <optional_origin>  (204) 
None

>  <target>  (204) 
BCRP

$$$$

     RDKit          2D

 36 40  0  0  0  0  0  0  0  0999 V2000
    2.8736  -18.2748    0.0000 C   0  0  0  0  0  0  0  0  0  0  0  0
    2.8724  -19.1021    0.0000 C   0  0  0  0  0  0  0  0  0  0  0  0
    3.5872  -19.5150    0.0000 C   0  0  0  0  0  0  0  0  0  0  0  0
    3.5854  -17.8620    0.0000 C   0  0  0  0  0  0  0  0  0  0  0  0
    4.3008  -18.2711    0.0000 C   0  0  0  0  0  0  0  0  0  0  0  0
    4.2995  -19.1042    0.0000 C   0  0  0  0  0  0  0  0  0  0  0  0
    5.0164  -19.5194    0.0000 O   0  0  0  0  0  0  0  0  0  0  0  0
    5.7391  -19.1062    0.0000 C   0  0  0  0  0  0  0  0  0  0  0  0
    5.7403  -18.2732    0.0000 C   0  0  0  0  0  0  0  0  0  0  0  0
    5.0189  -17.8533    0.0000 C   0  0  0  0  0  0  0  0  0  0  0  0
    6.4524  -19.5208    0.0000 C   0  0  0  0  0  0  0  0  0  0  0  0
    6.4501  -20.3458    0.0000 O   0  0  0  0  0  0  0  0  0  0  0  0
    7.1681  -19.1103    0.0000 N   0  0  0  0  0  0  0  0  0  0  0  0
    7.8813  -19.5248    0.0000 C   0  0  0  0  0  0  0  0  0  0  0  0
    8.5970  -19.1143    0.0000 C   0  0  0  0  0  0  0  0  0  0  0  0
    9.3110  -19.5283    0.0000 C   0  0  0  0  0  0  0  0  0  0  0  0
   10.6451  -19.5287    0.0000 N   0  0  0  0  0  0  0  0  0  0  0  0
    9.9785  -19.0426    0.0000 C   0  0  0  0  0  0  0  0  0  0  0  0
   10.3886  -20.3129    0.0000 C   0  0  0  0  0  0  0  0  0  0  0  0
    9.5672  -20.3106    0.0000 C   0  0  0  0  0  0  0  0  0  0  0  0
    9.1563  -21.0198    0.0000 C   0  0  0  0  0  0  0  0  0  0  0  0
    9.5657  -21.7318    0.0000 C   0  0  0  0  0  0  0  0  0  0  0  0
   10.3903  -21.7300    0.0000 C   0  0  0  0  0  0  0  0  0  0  0  0
   10.7975  -21.0202    0.0000 C   0  0  0  0  0  0  0  0  0  0  0  0
    5.0189  -17.0283    0.0000 O   0  0  0  0  0  0  0  0  0  0  0  0
    9.1533  -22.4463    0.0000 O   0  0  0  0  0  0  0  0  0  0  0  0
    8.3283  -22.4465    0.0000 C   0  0  0  0  0  0  0  0  0  0  0  0
    2.1576  -19.5141    0.0000 O   0  0  0  0  0  0  0  0  0  0  0  0
    1.4434  -19.1010    0.0000 C   0  0  0  0  0  0  0  0  0  0  0  0
    1.4442  -18.2760    0.0000 C   0  0  0  0  0  0  0  0  0  0  0  0
    2.1614  -17.8686    0.0000 C   0  0  0  0  0  0  0  0  0  0  0  0
    2.1624  -17.0444    0.0000 C   0  0  0  0  0  0  0  0  0  0  0  0
    1.4477  -16.6305    0.0000 C   0  0  0  0  0  0  0  0  0  0  0  0
    0.7306  -17.0469    0.0000 C   0  0  0  0  0  0  0  0  0  0  0  0
    0.7331  -17.8697    0.0000 C   0  0  0  0  0  0  0  0  0  0  0  0
    1.4473  -15.8055    0.0000 Br  0  0  0  0  0  0  0  0  0  0  0  0
  1  2  2  0
  2  3  1  0
  3  6  2  0
  5  4  2  0
  4  1  1  0
  5  6  1  0
  5 10  1  0
  6  7  1  0
  7  8  1  0
  8  9  2  0
  9 10  1  0
  8 11  1  0
 11 12  2  0
 11 13  1  0
 13 14  1  0
 14 15  1  0
 15 16  1  0
 16 20  1  0
 19 17  1  0
 17 18  1  0
 18 16  2  0
 19 20  2  0
 20 21  1  0
 21 22  2  0
 22 23  1  0
 23 24  2  0
 24 19  1  0
 10 25  2  0
 22 26  1  0
 26 27  1  0
  2 28  1  0
 28 29  1  0
 29 30  1  0
 30 31  2  0
 31 32  1  0
 32 33  2  0
 33 34  1  0
 34 35  2  0
 35 30  1  0
 33 36  1  0
M  END
>  <Classification>  (205) 
1

>  <pchembl>  (205) 
8.0

>  <InChI_steorem>  (205) 
InChI=1S/C28H23BrN2O5/c1-34-20-7-9-24-23(12-20)18(15-31-24)10-11-30-28(33)27-14-25(32)22-8-6-21(13-26(22)36-27)35-16-17-2-4-19(29)5-3-17/h2-9,12-15,31H,10-11,16H2,1H3,(H,30,33)

>  <source>  (205) 
ChEMBL25

>  <source_id>  (205) 
25

>  <optional_reference>  (205) 
10.1021/jm401649j

>  <optional_origin>  (205) 
None

>  <target>  (205) 
BCRP

$$$$

     RDKit          2D

 36 40  0  0  0  0  0  0  0  0999 V2000
    5.6528  -13.2836    0.0000 C   0  0  0  0  0  0  0  0  0  0  0  0
    5.6517  -14.1110    0.0000 C   0  0  0  0  0  0  0  0  0  0  0  0
    6.3665  -14.5239    0.0000 C   0  0  0  0  0  0  0  0  0  0  0  0
    6.3647  -12.8708    0.0000 C   0  0  0  0  0  0  0  0  0  0  0  0
    7.0802  -13.2800    0.0000 C   0  0  0  0  0  0  0  0  0  0  0  0
    7.0790  -14.1131    0.0000 C   0  0  0  0  0  0  0  0  0  0  0  0
    7.7959  -14.5283    0.0000 O   0  0  0  0  0  0  0  0  0  0  0  0
    8.5185  -14.1151    0.0000 C   0  0  0  0  0  0  0  0  0  0  0  0
    8.5197  -13.2820    0.0000 C   0  0  0  0  0  0  0  0  0  0  0  0
    7.7982  -12.8621    0.0000 C   0  0  0  0  0  0  0  0  0  0  0  0
    9.2319  -14.5297    0.0000 C   0  0  0  0  0  0  0  0  0  0  0  0
    9.2296  -15.3547    0.0000 O   0  0  0  0  0  0  0  0  0  0  0  0
    9.9475  -14.1192    0.0000 N   0  0  0  0  0  0  0  0  0  0  0  0
   10.6608  -14.5337    0.0000 C   0  0  0  0  0  0  0  0  0  0  0  0
   11.3764  -14.1232    0.0000 C   0  0  0  0  0  0  0  0  0  0  0  0
   12.0906  -14.5372    0.0000 C   0  0  0  0  0  0  0  0  0  0  0  0
   13.4247  -14.5376    0.0000 N   0  0  0  0  0  0  0  0  0  0  0  0
   12.7581  -14.0515    0.0000 C   0  0  0  0  0  0  0  0  0  0  0  0
   13.1682  -15.3219    0.0000 C   0  0  0  0  0  0  0  0  0  0  0  0
   12.3466  -15.3195    0.0000 C   0  0  0  0  0  0  0  0  0  0  0  0
   11.9357  -16.0288    0.0000 C   0  0  0  0  0  0  0  0  0  0  0  0
   12.3452  -16.7407    0.0000 C   0  0  0  0  0  0  0  0  0  0  0  0
   13.1699  -16.7390    0.0000 C   0  0  0  0  0  0  0  0  0  0  0  0
   13.5771  -16.0292    0.0000 C   0  0  0  0  0  0  0  0  0  0  0  0
    7.7983  -12.0371    0.0000 O   0  0  0  0  0  0  0  0  0  0  0  0
    4.9383  -12.8712    0.0000 O   0  0  0  0  0  0  0  0  0  0  0  0
    4.2239  -13.2839    0.0000 C   0  0  0  0  0  0  0  0  0  0  0  0
    3.5093  -12.8716    0.0000 C   0  0  0  0  0  0  0  0  0  0  0  0
    3.5127  -12.0460    0.0000 C   0  0  0  0  0  0  0  0  0  0  0  0
    2.7991  -11.6337    0.0000 C   0  0  0  0  0  0  0  0  0  0  0  0
    2.0837  -12.0465    0.0000 C   0  0  0  0  0  0  0  0  0  0  0  0
    2.0865  -12.8758    0.0000 C   0  0  0  0  0  0  0  0  0  0  0  0
    2.8009  -13.2842    0.0000 C   0  0  0  0  0  0  0  0  0  0  0  0
    1.3685  -11.6351    0.0000 Br  0  0  0  0  0  0  0  0  0  0  0  0
   11.9329  -17.4553    0.0000 O   0  0  0  0  0  0  0  0  0  0  0  0
   11.1079  -17.4555    0.0000 C   0  0  0  0  0  0  0  0  0  0  0  0
  1  2  2  0
  2  3  1  0
  3  6  2  0
  5  4  2  0
  4  1  1  0
  5  6  1  0
  5 10  1  0
  6  7  1  0
  7  8  1  0
  8  9  2  0
  9 10  1  0
  8 11  1  0
 11 12  2  0
 11 13  1  0
 13 14  1  0
 14 15  1  0
 15 16  1  0
 16 20  1  0
 19 17  1  0
 17 18  1  0
 18 16  2  0
 19 20  2  0
 20 21  1  0
 21 22  2  0
 22 23  1  0
 23 24  2  0
 24 19  1  0
 10 25  2  0
  1 26  1  0
 26 27  1  0
 27 28  1  0
 28 29  2  0
 29 30  1  0
 30 31  2  0
 31 32  1  0
 32 33  2  0
 33 28  1  0
 31 34  1  0
 22 35  1  0
 35 36  1  0
M  END
>  <Classification>  (206) 
1

>  <pchembl>  (206) 
6.28

>  <InChI_steorem>  (206) 
InChI=1S/C28H23BrN2O5/c1-34-20-6-8-24-22(12-20)18(15-31-24)10-11-30-28(33)27-14-25(32)23-13-21(7-9-26(23)36-27)35-16-17-2-4-19(29)5-3-17/h2-9,12-15,31H,10-11,16H2,1H3,(H,30,33)

>  <source>  (206) 
ChEMBL25

>  <source_id>  (206) 
25

>  <optional_reference>  (206) 
10.1021/jm401649j

>  <optional_origin>  (206) 
None

>  <target>  (206) 
BCRP

$$$$

     RDKit          2D

 37 41  0  0  0  0  0  0  0  0999 V2000
   27.1857  -22.3830    0.0000 C   0  0  0  0  0  0  0  0  0  0  0  0
   27.1846  -23.2104    0.0000 C   0  0  0  0  0  0  0  0  0  0  0  0
   27.8994  -23.6232    0.0000 C   0  0  0  0  0  0  0  0  0  0  0  0
   27.8976  -21.9703    0.0000 C   0  0  0  0  0  0  0  0  0  0  0  0
   28.6130  -22.3794    0.0000 C   0  0  0  0  0  0  0  0  0  0  0  0
   28.6118  -23.2124    0.0000 C   0  0  0  0  0  0  0  0  0  0  0  0
   29.3287  -23.6278    0.0000 O   0  0  0  0  0  0  0  0  0  0  0  0
   30.0513  -23.2146    0.0000 C   0  0  0  0  0  0  0  0  0  0  0  0
   30.0525  -22.3815    0.0000 C   0  0  0  0  0  0  0  0  0  0  0  0
   29.3311  -21.9616    0.0000 C   0  0  0  0  0  0  0  0  0  0  0  0
   30.7646  -23.6291    0.0000 C   0  0  0  0  0  0  0  0  0  0  0  0
   30.7623  -24.4541    0.0000 O   0  0  0  0  0  0  0  0  0  0  0  0
   31.4802  -23.2186    0.0000 N   0  0  0  0  0  0  0  0  0  0  0  0
   32.1936  -23.6331    0.0000 C   0  0  0  0  0  0  0  0  0  0  0  0
   32.9093  -23.2224    0.0000 C   0  0  0  0  0  0  0  0  0  0  0  0
   29.3311  -21.1366    0.0000 O   0  0  0  0  0  0  0  0  0  0  0  0
   27.8951  -21.1453    0.0000 O   0  0  0  0  0  0  0  0  0  0  0  0
   27.1795  -20.7349    0.0000 C   0  0  0  0  0  0  0  0  0  0  0  0
   26.4662  -21.1495    0.0000 C   0  0  0  0  0  0  0  0  0  0  0  0
   25.7544  -20.7384    0.0000 C   0  0  0  0  0  0  0  0  0  0  0  0
   25.0416  -21.1523    0.0000 C   0  0  0  0  0  0  0  0  0  0  0  0
   25.0437  -21.9782    0.0000 C   0  0  0  0  0  0  0  0  0  0  0  0
   25.7644  -22.3884    0.0000 C   0  0  0  0  0  0  0  0  0  0  0  0
   26.4741  -21.9720    0.0000 C   0  0  0  0  0  0  0  0  0  0  0  0
   24.3352  -22.3937    0.0000 Br  0  0  0  0  0  0  0  0  0  0  0  0
   33.6897  -23.4858    0.0000 C   0  0  0  0  0  0  0  0  0  0  0  0
   34.1840  -22.8253    0.0000 N   0  0  0  0  0  0  0  0  0  0  0  0
   33.7084  -22.1510    0.0000 N   0  0  0  0  0  0  0  0  0  0  0  0
   32.9203  -22.3951    0.0000 N   0  0  0  0  0  0  0  0  0  0  0  0
   35.0089  -22.8368    0.0000 C   0  0  0  0  0  0  0  0  0  0  0  0
   35.4314  -22.1282    0.0000 C   0  0  0  0  0  0  0  0  0  0  0  0
   36.2538  -22.1451    0.0000 C   0  0  0  0  0  0  0  0  0  0  0  0
   36.6761  -21.4373    0.0000 C   0  0  0  0  0  0  0  0  0  0  0  0
   36.2737  -20.7161    0.0000 C   0  0  0  0  0  0  0  0  0  0  0  0
   35.4445  -20.7072    0.0000 C   0  0  0  0  0  0  0  0  0  0  0  0
   35.0258  -21.4156    0.0000 C   0  0  0  0  0  0  0  0  0  0  0  0
   36.6952  -20.0069    0.0000 Br  0  0  0  0  0  0  0  0  0  0  0  0
  1  2  2  0
  2  3  1  0
  3  6  2  0
  5  4  2  0
  4  1  1  0
  5  6  1  0
  5 10  1  0
  6  7  1  0
  7  8  1  0
  8  9  2  0
  9 10  1  0
  8 11  1  0
 11 12  2  0
 11 13  1  0
 13 14  1  0
 14 15  1  0
 10 16  2  0
  4 17  1  0
 17 18  1  0
 18 19  1  0
 19 20  2  0
 20 21  1  0
 21 22  2  0
 22 23  1  0
 23 24  2  0
 24 19  1  0
 22 25  1  0
 15 26  2  0
 26 27  1  0
 27 28  1  0
 28 29  2  0
 29 15  1  0
 27 30  1  0
 30 31  1  0
 31 32  2  0
 32 33  1  0
 33 34  2  0
 34 35  1  0
 35 36  2  0
 36 31  1  0
 34 37  1  0
M  END
>  <Classification>  (207) 
1

>  <pchembl>  (207) 
6.03

>  <InChI_steorem>  (207) 
InChI=1S/C27H20Br2N4O4/c28-19-8-4-17(5-9-19)14-33-15-21(31-32-33)13-30-27(35)25-12-22(34)26-23(2-1-3-24(26)37-25)36-16-18-6-10-20(29)11-7-18/h1-12,15H,13-14,16H2,(H,30,35)

>  <source>  (207) 
ChEMBL25

>  <source_id>  (207) 
25

>  <optional_reference>  (207) 
10.1021/jm401649j

>  <optional_origin>  (207) 
None

>  <target>  (207) 
BCRP

$$$$

     RDKit          2D

 40 45  0  0  0  0  0  0  0  0999 V2000
    3.5071  -26.9013    0.0000 C   0  0  0  0  0  0  0  0  0  0  0  0
    3.5060  -27.7287    0.0000 C   0  0  0  0  0  0  0  0  0  0  0  0
    4.2208  -28.1417    0.0000 C   0  0  0  0  0  0  0  0  0  0  0  0
    4.2189  -26.4885    0.0000 C   0  0  0  0  0  0  0  0  0  0  0  0
    4.9343  -26.8977    0.0000 C   0  0  0  0  0  0  0  0  0  0  0  0
    4.9332  -27.7308    0.0000 C   0  0  0  0  0  0  0  0  0  0  0  0
    5.6502  -28.1461    0.0000 O   0  0  0  0  0  0  0  0  0  0  0  0
    6.3728  -27.7329    0.0000 C   0  0  0  0  0  0  0  0  0  0  0  0
    6.3740  -26.8997    0.0000 C   0  0  0  0  0  0  0  0  0  0  0  0
    5.6525  -26.4799    0.0000 C   0  0  0  0  0  0  0  0  0  0  0  0
    7.0861  -28.1474    0.0000 C   0  0  0  0  0  0  0  0  0  0  0  0
    7.0838  -28.9725    0.0000 O   0  0  0  0  0  0  0  0  0  0  0  0
    7.8018  -27.7369    0.0000 N   0  0  0  0  0  0  0  0  0  0  0  0
    8.5152  -28.1515    0.0000 C   0  0  0  0  0  0  0  0  0  0  0  0
    9.2310  -27.7408    0.0000 C   0  0  0  0  0  0  0  0  0  0  0  0
    5.6526  -25.6548    0.0000 O   0  0  0  0  0  0  0  0  0  0  0  0
    4.2165  -25.6635    0.0000 O   0  0  0  0  0  0  0  0  0  0  0  0
    3.5008  -25.2531    0.0000 C   0  0  0  0  0  0  0  0  0  0  0  0
    2.7875  -25.6677    0.0000 C   0  0  0  0  0  0  0  0  0  0  0  0
    2.0755  -25.2565    0.0000 C   0  0  0  0  0  0  0  0  0  0  0  0
    1.3628  -25.6704    0.0000 C   0  0  0  0  0  0  0  0  0  0  0  0
    1.3648  -26.4964    0.0000 C   0  0  0  0  0  0  0  0  0  0  0  0
    2.0855  -26.9066    0.0000 C   0  0  0  0  0  0  0  0  0  0  0  0
    2.7954  -26.4902    0.0000 C   0  0  0  0  0  0  0  0  0  0  0  0
    0.6563  -26.9120    0.0000 Br  0  0  0  0  0  0  0  0  0  0  0  0
   10.0115  -28.0042    0.0000 C   0  0  0  0  0  0  0  0  0  0  0  0
   10.5057  -27.3436    0.0000 N   0  0  0  0  0  0  0  0  0  0  0  0
   10.0301  -26.6693    0.0000 N   0  0  0  0  0  0  0  0  0  0  0  0
    9.2420  -26.9134    0.0000 N   0  0  0  0  0  0  0  0  0  0  0  0
   11.3307  -27.3551    0.0000 C   0  0  0  0  0  0  0  0  0  0  0  0
   11.7531  -26.6464    0.0000 C   0  0  0  0  0  0  0  0  0  0  0  0
   12.5781  -26.6580    0.0000 C   0  0  0  0  0  0  0  0  0  0  0  0
   13.0543  -27.3283    0.0000 C   0  0  0  0  0  0  0  0  0  0  0  0
   13.8425  -27.0844    0.0000 N   0  0  0  0  0  0  0  0  0  0  0  0
   13.0730  -25.9936    0.0000 C   0  0  0  0  0  0  0  0  0  0  0  0
   13.8520  -26.2606    0.0000 C   0  0  0  0  0  0  0  0  0  0  0  0
   14.4706  -25.7199    0.0000 C   0  0  0  0  0  0  0  0  0  0  0  0
   14.3114  -24.9122    0.0000 C   0  0  0  0  0  0  0  0  0  0  0  0
   13.5282  -24.6480    0.0000 C   0  0  0  0  0  0  0  0  0  0  0  0
   12.9130  -25.1905    0.0000 C   0  0  0  0  0  0  0  0  0  0  0  0
  1  2  2  0
  2  3  1  0
  3  6  2  0
  5  4  2  0
  4  1  1  0
  5  6  1  0
  5 10  1  0
  6  7  1  0
  7  8  1  0
  8  9  2  0
  9 10  1  0
  8 11  1  0
 11 12  2  0
 11 13  1  0
 13 14  1  0
 14 15  1  0
 10 16  2  0
  4 17  1  0
 17 18  1  0
 18 19  1  0
 19 20  2  0
 20 21  1  0
 21 22  2  0
 22 23  1  0
 23 24  2  0
 24 19  1  0
 22 25  1  0
 15 26  2  0
 26 27  1  0
 27 28  1  0
 28 29  2  0
 29 15  1  0
 27 30  1  0
 30 31  1  0
 31 32  1  0
 32 33  2  0
 33 34  1  0
 34 36  1  0
 35 32  1  0
 35 36  2  0
 36 37  1  0
 37 38  2  0
 38 39  1  0
 39 40  2  0
 40 35  1  0
M  END
>  <Classification>  (208) 
1

>  <pchembl>  (208) 
6.6

>  <InChI_steorem>  (208) 
InChI=1S/C30H24BrN5O4/c31-21-10-8-19(9-11-21)18-39-26-6-3-7-27-29(26)25(37)14-28(40-27)30(38)33-16-22-17-36(35-34-22)13-12-20-15-32-24-5-2-1-4-23(20)24/h1-11,14-15,17,32H,12-13,16,18H2,(H,33,38)

>  <source>  (208) 
ChEMBL25

>  <source_id>  (208) 
25

>  <optional_reference>  (208) 
10.1021/jm401649j

>  <optional_origin>  (208) 
None

>  <target>  (208) 
BCRP

$$$$

     RDKit          2D

 43 46  0  0  0  0  0  0  0  0999 V2000
   -2.6111    0.7486    0.0000 C   0  0  0  0  0  0  0  0  0  0  0  0
   -2.6111   -0.7486    0.0000 C   0  0  0  0  0  0  0  0  0  0  0  0
   -1.2964   -1.4973    0.0000 C   0  0  0  0  0  0  0  0  0  0  0  0
   -1.2964    1.4973    0.0000 C   0  0  0  0  0  0  0  0  0  0  0  0
    0.0000    0.7486    0.0000 C   0  0  0  0  0  0  0  0  0  0  0  0
    0.0000   -0.7486    0.0000 C   0  0  0  0  0  0  0  0  0  0  0  0
    1.2964   -1.4973    0.0000 C   0  0  0  0  0  0  0  0  0  0  0  0
    2.5929   -0.7486    0.0000 C   0  0  0  0  0  0  0  0  0  0  0  0
    2.5929    0.7486    0.0000 C   0  0  0  0  0  0  0  0  0  0  0  0
    1.2964    1.4973    0.0000 O   0  0  0  0  0  0  0  0  0  0  0  0
   -1.2907   -2.9981    0.0000 O   0  0  0  0  0  0  0  0  0  0  0  0
   -3.9091    1.5019    0.0000 O   0  0  0  0  0  0  0  0  0  0  0  0
    3.8926    1.4990    0.0000 C   0  0  0  0  0  0  0  0  0  0  0  0
    3.8951    2.9990    0.0000 C   0  0  0  0  0  0  0  0  0  0  0  0
    5.1953    3.7469    0.0000 C   0  0  0  0  0  0  0  0  0  0  0  0
    6.4931    2.9949    0.0000 C   0  0  0  0  0  0  0  0  0  0  0  0
    6.4907    1.4949    0.0000 C   0  0  0  0  0  0  0  0  0  0  0  0
    5.1905    0.7469    0.0000 C   0  0  0  0  0  0  0  0  0  0  0  0
    7.7878    0.7397    0.0000 O   0  0  0  0  0  0  0  0  0  0  0  0
    7.7956    3.7405    0.0000 O   0  0  0  0  0  0  0  0  0  0  0  0
    5.1946    5.2478    0.0000 O   0  0  0  0  0  0  0  0  0  0  0  0
    3.8911   -1.5017    0.0000 O   0  0  0  0  0  0  0  0  0  0  0  0
   -3.9072    2.7019    0.0000 C   0  0  0  0  0  0  0  0  0  0  0  0
   -2.3272   -3.6028    0.0000 C   0  0  0  0  0  0  0  0  0  0  0  0
    4.1555    5.8480    0.0000 C   0  0  0  0  0  0  0  0  0  0  0  0
    8.8331    3.1374    0.0000 C   0  0  0  0  0  0  0  0  0  0  0  0
    7.7841   -0.4603    0.0000 C   0  0  0  0  0  0  0  0  0  0  0  0
    3.8890   -3.0026    0.0000 C   0  0  0  0  0  0  0  0  0  0  0  0
    2.8487   -3.6008    0.0000 O   0  0  0  0  0  0  0  0  0  0  0  0
    5.1872   -3.7556    0.0000 C   0  0  0  0  0  0  0  0  0  0  0  0
    5.1850   -5.2565    0.0000 C   0  0  0  0  0  0  0  0  0  0  0  0
    6.4832   -6.0096    0.0000 C   0  0  0  0  0  0  0  0  0  0  0  0
    6.4833   -7.5096    0.0000 C   0  0  0  0  0  0  0  0  0  0  0  0
    7.7823   -8.2596    0.0000 C   0  0  0  0  0  0  0  0  0  0  0  0
    9.0814   -7.5096    0.0000 C   0  0  0  0  0  0  0  0  0  0  0  0
    9.0814   -6.0096    0.0000 C   0  0  0  0  0  0  0  0  0  0  0  0
    7.7824   -5.2596    0.0000 C   0  0  0  0  0  0  0  0  0  0  0  0
   10.3827   -8.2574    0.0000 O   0  0  0  0  0  0  0  0  0  0  0  0
   11.4210   -7.6560    0.0000 C   0  0  0  0  0  0  0  0  0  0  0  0
   10.3796   -5.2566    0.0000 O   0  0  0  0  0  0  0  0  0  0  0  0
   10.3780   -4.0566    0.0000 C   0  0  0  0  0  0  0  0  0  0  0  0
    7.7792   -9.7604    0.0000 O   0  0  0  0  0  0  0  0  0  0  0  0
    6.7391  -10.3589    0.0000 C   0  0  0  0  0  0  0  0  0  0  0  0
  1  2  2  0
  2  3  1  0
  3  6  2  0
  5  4  2  0
  4  1  1  0
  5  6  1  0
  5 10  1  0
  6  7  1  0
  7  8  1  0
  8  9  1  0
  9 10  1  0
  3 11  1  0
  1 12  1  0
 13 14  2  0
 14 15  1  0
 15 16  2  0
 16 17  1  0
 17 18  2  0
 18 13  1  0
  9 13  1  0
 17 19  1  0
 16 20  1  0
 15 21  1  0
  8 22  1  0
 12 23  1  0
 11 24  1  0
 21 25  1  0
 20 26  1  0
 19 27  1  0
 22 28  1  0
 28 29  2  0
 28 30  1  0
 30 31  2  3
 31 32  1  0
 32 33  2  0
 33 34  1  0
 34 35  2  0
 35 36  1  0
 36 37  2  0
 37 32  1  0
 38 39  1  0
 35 38  1  0
 40 41  1  0
 36 40  1  0
 42 43  1  0
 34 42  1  0
M  END
>  <Classification>  (209) 
1

>  <pchembl>  (209) 
6.45

>  <InChI_steorem>  (209) 
InChI=1S/C32H36O11/c1-34-20-15-22(35-2)21-17-28(42-29(33)10-9-18-11-24(36-3)31(40-7)25(12-18)37-4)30(43-23(21)16-20)19-13-26(38-5)32(41-8)27(14-19)39-6/h9-16,28,30H,17H2,1-8H3

>  <source>  (209) 
ChEMBL25

>  <source_id>  (209) 
25

>  <optional_reference>  (209) 
10.1021/acs.jmedchem.5b00085

>  <optional_origin>  (209) 
None

>  <target>  (209) 
BCRP

$$$$

     RDKit          2D

 49 53  0  0  0  0  0  0  0  0999 V2000
   -2.6111    0.7486    0.0000 C   0  0  0  0  0  0  0  0  0  0  0  0
   -2.6111   -0.7486    0.0000 C   0  0  0  0  0  0  0  0  0  0  0  0
   -1.2964   -1.4973    0.0000 C   0  0  0  0  0  0  0  0  0  0  0  0
   -1.2964    1.4973    0.0000 C   0  0  0  0  0  0  0  0  0  0  0  0
    0.0000    0.7486    0.0000 C   0  0  0  0  0  0  0  0  0  0  0  0
    0.0000   -0.7486    0.0000 C   0  0  0  0  0  0  0  0  0  0  0  0
    1.2964   -1.4973    0.0000 C   0  0  0  0  0  0  0  0  0  0  0  0
    2.5929   -0.7486    0.0000 C   0  0  0  0  0  0  0  0  0  0  0  0
    2.5929    0.7486    0.0000 C   0  0  0  0  0  0  0  0  0  0  0  0
    1.2964    1.4973    0.0000 O   0  0  0  0  0  0  0  0  0  0  0  0
   -1.2907   -2.9981    0.0000 O   0  0  0  0  0  0  0  0  0  0  0  0
   -3.9091    1.5019    0.0000 O   0  0  0  0  0  0  0  0  0  0  0  0
    3.8926    1.4990    0.0000 C   0  0  0  0  0  0  0  0  0  0  0  0
    3.8951    2.9990    0.0000 C   0  0  0  0  0  0  0  0  0  0  0  0
    5.1953    3.7469    0.0000 C   0  0  0  0  0  0  0  0  0  0  0  0
    6.4931    2.9949    0.0000 C   0  0  0  0  0  0  0  0  0  0  0  0
    6.4907    1.4949    0.0000 C   0  0  0  0  0  0  0  0  0  0  0  0
    5.1905    0.7469    0.0000 C   0  0  0  0  0  0  0  0  0  0  0  0
    7.7878    0.7397    0.0000 O   0  0  0  0  0  0  0  0  0  0  0  0
    7.7956    3.7405    0.0000 O   0  0  0  0  0  0  0  0  0  0  0  0
    5.1946    5.2478    0.0000 O   0  0  0  0  0  0  0  0  0  0  0  0
    3.8911   -1.5017    0.0000 O   0  0  0  0  0  0  0  0  0  0  0  0
   -3.9072    2.7019    0.0000 C   0  0  0  0  0  0  0  0  0  0  0  0
   -2.3272   -3.6028    0.0000 C   0  0  0  0  0  0  0  0  0  0  0  0
    4.1555    5.8480    0.0000 C   0  0  0  0  0  0  0  0  0  0  0  0
    8.8331    3.1374    0.0000 C   0  0  0  0  0  0  0  0  0  0  0  0
    7.7841   -0.4603    0.0000 C   0  0  0  0  0  0  0  0  0  0  0  0
    3.8890   -3.0026    0.0000 C   0  0  0  0  0  0  0  0  0  0  0  0
    2.8487   -3.6008    0.0000 O   0  0  0  0  0  0  0  0  0  0  0  0
    5.1872   -3.7556    0.0000 C   0  0  0  0  0  0  0  0  0  0  0  0
    5.1872   -5.2557    0.0000 C   0  0  0  0  0  0  0  0  0  0  0  0
    6.4863   -6.0057    0.0000 C   0  0  0  0  0  0  0  0  0  0  0  0
    7.7853   -5.2557    0.0000 C   0  0  0  0  0  0  0  0  0  0  0  0
    7.7853   -3.7557    0.0000 C   0  0  0  0  0  0  0  0  0  0  0  0
    6.4863   -3.0057    0.0000 C   0  0  0  0  0  0  0  0  0  0  0  0
    8.8245   -5.8558    0.0000 F   0  0  0  0  0  0  0  0  0  0  0  0
    9.0836   -3.0027    0.0000 N   0  0  0  0  0  0  0  0  0  0  0  0
    9.0815   -1.5018    0.0000 C   0  0  0  0  0  0  0  0  0  0  0  0
   10.3797   -0.7488    0.0000 C   0  0  0  0  0  0  0  0  0  0  0  0
    8.0412   -0.9036    0.0000 O   0  0  0  0  0  0  0  0  0  0  0  0
   10.3798    0.7512    0.0000 C   0  0  0  0  0  0  0  0  0  0  0  0
   11.6788    1.5012    0.0000 C   0  0  0  0  0  0  0  0  0  0  0  0
   12.9779    0.7512    0.0000 C   0  0  0  0  0  0  0  0  0  0  0  0
   12.9779   -0.7488    0.0000 C   0  0  0  0  0  0  0  0  0  0  0  0
   11.6788   -1.4988    0.0000 C   0  0  0  0  0  0  0  0  0  0  0  0
   14.2792    1.4990    0.0000 O   0  0  0  0  0  0  0  0  0  0  0  0
   15.3175    0.8975    0.0000 C   0  0  0  0  0  0  0  0  0  0  0  0
   11.6757    3.0021    0.0000 O   0  0  0  0  0  0  0  0  0  0  0  0
   10.6356    3.6006    0.0000 C   0  0  0  0  0  0  0  0  0  0  0  0
  1  2  2  0
  2  3  1  0
  3  6  2  0
  5  4  2  0
  4  1  1  0
  5  6  1  0
  5 10  1  0
  6  7  1  0
  7  8  1  0
  8  9  1  0
  9 10  1  0
  3 11  1  0
  1 12  1  0
 13 14  2  0
 14 15  1  0
 15 16  2  0
 16 17  1  0
 17 18  2  0
 18 13  1  0
  9 13  1  0
 17 19  1  0
 16 20  1  0
 15 21  1  0
  8 22  1  0
 12 23  1  0
 11 24  1  0
 21 25  1  0
 20 26  1  0
 19 27  1  0
 22 28  1  0
 28 29  2  0
 28 30  1  0
 30 31  2  0
 31 32  1  0
 32 33  2  0
 33 34  1  0
 34 35  2  0
 35 30  1  0
 33 36  1  0
 34 37  1  0
 37 38  1  0
 38 39  1  0
 38 40  2  0
 39 41  2  0
 41 42  1  0
 42 43  2  0
 43 44  1  0
 44 45  2  0
 45 39  1  0
 46 47  1  0
 43 46  1  0
 48 49  1  0
 42 48  1  0
M  END
>  <Classification>  (210) 
1

>  <pchembl>  (210) 
7.35

>  <InChI_steorem>  (210) 
InChI=1S/C36H36FNO11/c1-41-22-16-27(43-3)23-18-32(33(48-28(23)17-22)21-14-30(45-5)34(47-7)31(15-21)46-6)49-36(40)20-8-10-24(37)25(12-20)38-35(39)19-9-11-26(42-2)29(13-19)44-4/h8-17,32-33H,18H2,1-7H3,(H,38,39)

>  <source>  (210) 
ChEMBL25

>  <source_id>  (210) 
25

>  <optional_reference>  (210) 
10.1021/acs.jmedchem.5b00085

>  <optional_origin>  (210) 
None

>  <target>  (210) 
BCRP

$$$$

     RDKit          2D

 51 55  0  0  0  0  0  0  0  0999 V2000
   -2.6111    0.7486    0.0000 C   0  0  0  0  0  0  0  0  0  0  0  0
   -2.6111   -0.7486    0.0000 C   0  0  0  0  0  0  0  0  0  0  0  0
   -1.2964   -1.4973    0.0000 C   0  0  0  0  0  0  0  0  0  0  0  0
   -1.2964    1.4973    0.0000 C   0  0  0  0  0  0  0  0  0  0  0  0
    0.0000    0.7486    0.0000 C   0  0  0  0  0  0  0  0  0  0  0  0
    0.0000   -0.7486    0.0000 C   0  0  0  0  0  0  0  0  0  0  0  0
    1.2964   -1.4973    0.0000 C   0  0  0  0  0  0  0  0  0  0  0  0
    2.5929   -0.7486    0.0000 C   0  0  0  0  0  0  0  0  0  0  0  0
    2.5929    0.7486    0.0000 C   0  0  0  0  0  0  0  0  0  0  0  0
    1.2964    1.4973    0.0000 O   0  0  0  0  0  0  0  0  0  0  0  0
   -1.2907   -2.9981    0.0000 O   0  0  0  0  0  0  0  0  0  0  0  0
   -3.9091    1.5019    0.0000 O   0  0  0  0  0  0  0  0  0  0  0  0
    3.8926    1.4990    0.0000 C   0  0  0  0  0  0  0  0  0  0  0  0
    3.8951    2.9990    0.0000 C   0  0  0  0  0  0  0  0  0  0  0  0
    5.1953    3.7469    0.0000 C   0  0  0  0  0  0  0  0  0  0  0  0
    6.4931    2.9949    0.0000 C   0  0  0  0  0  0  0  0  0  0  0  0
    6.4907    1.4949    0.0000 C   0  0  0  0  0  0  0  0  0  0  0  0
    5.1905    0.7469    0.0000 C   0  0  0  0  0  0  0  0  0  0  0  0
    7.7878    0.7397    0.0000 O   0  0  0  0  0  0  0  0  0  0  0  0
    7.7956    3.7405    0.0000 O   0  0  0  0  0  0  0  0  0  0  0  0
    5.1946    5.2478    0.0000 O   0  0  0  0  0  0  0  0  0  0  0  0
    3.8911   -1.5017    0.0000 O   0  0  0  0  0  0  0  0  0  0  0  0
   -3.9072    2.7019    0.0000 C   0  0  0  0  0  0  0  0  0  0  0  0
   -2.3272   -3.6028    0.0000 C   0  0  0  0  0  0  0  0  0  0  0  0
    4.1555    5.8480    0.0000 C   0  0  0  0  0  0  0  0  0  0  0  0
    8.8331    3.1374    0.0000 C   0  0  0  0  0  0  0  0  0  0  0  0
    7.7841   -0.4603    0.0000 C   0  0  0  0  0  0  0  0  0  0  0  0
    3.8890   -3.0026    0.0000 C   0  0  0  0  0  0  0  0  0  0  0  0
    2.8487   -3.6008    0.0000 O   0  0  0  0  0  0  0  0  0  0  0  0
    5.1872   -3.7556    0.0000 C   0  0  0  0  0  0  0  0  0  0  0  0
    5.1872   -5.2557    0.0000 C   0  0  0  0  0  0  0  0  0  0  0  0
    6.4863   -6.0057    0.0000 C   0  0  0  0  0  0  0  0  0  0  0  0
    7.7853   -5.2557    0.0000 C   0  0  0  0  0  0  0  0  0  0  0  0
    7.7853   -3.7557    0.0000 C   0  0  0  0  0  0  0  0  0  0  0  0
    6.4863   -3.0057    0.0000 C   0  0  0  0  0  0  0  0  0  0  0  0
    8.8245   -5.8558    0.0000 F   0  0  0  0  0  0  0  0  0  0  0  0
    9.0836   -3.0027    0.0000 N   0  0  0  0  0  0  0  0  0  0  0  0
    9.0815   -1.5018    0.0000 C   0  0  0  0  0  0  0  0  0  0  0  0
   10.3797   -0.7488    0.0000 C   0  0  0  0  0  0  0  0  0  0  0  0
    8.0412   -0.9036    0.0000 O   0  0  0  0  0  0  0  0  0  0  0  0
   10.3798    0.7512    0.0000 C   0  0  0  0  0  0  0  0  0  0  0  0
   11.6788    1.5012    0.0000 C   0  0  0  0  0  0  0  0  0  0  0  0
   12.9779    0.7512    0.0000 C   0  0  0  0  0  0  0  0  0  0  0  0
   12.9779   -0.7488    0.0000 C   0  0  0  0  0  0  0  0  0  0  0  0
   11.6788   -1.4988    0.0000 C   0  0  0  0  0  0  0  0  0  0  0  0
   14.2792    1.4990    0.0000 O   0  0  0  0  0  0  0  0  0  0  0  0
   15.3175    0.8975    0.0000 C   0  0  0  0  0  0  0  0  0  0  0  0
   11.6757    3.0021    0.0000 O   0  0  0  0  0  0  0  0  0  0  0  0
   10.6356    3.6006    0.0000 C   0  0  0  0  0  0  0  0  0  0  0  0
   14.2761   -1.5018    0.0000 O   0  0  0  0  0  0  0  0  0  0  0  0
   14.2744   -2.7018    0.0000 C   0  0  0  0  0  0  0  0  0  0  0  0
  1  2  2  0
  2  3  1  0
  3  6  2  0
  5  4  2  0
  4  1  1  0
  5  6  1  0
  5 10  1  0
  6  7  1  0
  7  8  1  0
  8  9  1  0
  9 10  1  0
  3 11  1  0
  1 12  1  0
 13 14  2  0
 14 15  1  0
 15 16  2  0
 16 17  1  0
 17 18  2  0
 18 13  1  0
  9 13  1  0
 17 19  1  0
 16 20  1  0
 15 21  1  0
  8 22  1  0
 12 23  1  0
 11 24  1  0
 21 25  1  0
 20 26  1  0
 19 27  1  0
 22 28  1  0
 28 29  2  0
 28 30  1  0
 30 31  2  0
 31 32  1  0
 32 33  2  0
 33 34  1  0
 34 35  2  0
 35 30  1  0
 33 36  1  0
 34 37  1  0
 37 38  1  0
 38 39  1  0
 38 40  2  0
 39 41  2  0
 41 42  1  0
 42 43  2  0
 43 44  1  0
 44 45  2  0
 45 39  1  0
 46 47  1  0
 43 46  1  0
 48 49  1  0
 42 48  1  0
 50 51  1  0
 44 50  1  0
M  END
>  <Classification>  (211) 
1

>  <pchembl>  (211) 
7.42

>  <InChI_steorem>  (211) 
InChI=1S/C37H38FNO12/c1-42-22-16-26(43-2)23-18-32(33(50-27(23)17-22)20-12-28(44-3)34(48-7)29(13-20)45-4)51-37(41)19-9-10-24(38)25(11-19)39-36(40)21-14-30(46-5)35(49-8)31(15-21)47-6/h9-17,32-33H,18H2,1-8H3,(H,39,40)

>  <source>  (211) 
ChEMBL25

>  <source_id>  (211) 
25

>  <optional_reference>  (211) 
10.1021/acs.jmedchem.5b00085

>  <optional_origin>  (211) 
None

>  <target>  (211) 
BCRP

$$$$

     RDKit          2D

 26 28  0  0  0  0  0  0  0  0999 V2000
   19.4225  -12.0748    0.0000 C   0  0  0  0  0  0  0  0  0  0  0  0
   20.1321  -11.6654    0.0000 C   0  0  0  0  0  0  0  0  0  0  0  0
   20.1293  -10.8427    0.0000 C   0  0  0  0  0  0  0  0  0  0  0  0
   19.4207  -10.4375    0.0000 C   0  0  0  0  0  0  0  0  0  0  0  0
   20.8355  -10.4315    0.0000 C   0  0  0  0  0  0  0  0  0  0  0  0
   21.5447  -10.8374    0.0000 C   0  0  0  0  0  0  0  0  0  0  0  0
   20.8324   -9.6143    0.0000 O   0  0  0  0  0  0  0  0  0  0  0  0
   22.2509  -10.4261    0.0000 C   0  0  0  0  0  0  0  0  0  0  0  0
   22.9601  -10.8321    0.0000 C   0  0  0  0  0  0  0  0  0  0  0  0
   22.9601  -11.6481    0.0000 C   0  0  0  0  0  0  0  0  0  0  0  0
   23.6685  -12.0540    0.0000 C   0  0  0  0  0  0  0  0  0  0  0  0
   24.3756  -11.6426    0.0000 C   0  0  0  0  0  0  0  0  0  0  0  0
   24.3699  -10.8212    0.0000 C   0  0  0  0  0  0  0  0  0  0  0  0
   23.6610  -10.4191    0.0000 C   0  0  0  0  0  0  0  0  0  0  0  0
   25.0746  -10.4075    0.0000 O   0  0  0  0  0  0  0  0  0  0  0  0
   25.7853  -10.8109    0.0000 C   0  0  0  0  0  0  0  0  0  0  0  0
   25.0854  -12.0476    0.0000 O   0  0  0  0  0  0  0  0  0  0  0  0
   25.0896  -12.8648    0.0000 C   0  0  0  0  0  0  0  0  0  0  0  0
   23.6712  -12.8712    0.0000 O   0  0  0  0  0  0  0  0  0  0  0  0
   22.9648  -13.2821    0.0000 C   0  0  0  0  0  0  0  0  0  0  0  0
   18.7144  -11.6659    0.0000 C   0  0  0  0  0  0  0  0  0  0  0  0
   18.7167  -10.8481    0.0000 C   0  0  0  0  0  0  0  0  0  0  0  0
   18.0108  -10.4390    0.0000 C   0  0  0  0  0  0  0  0  0  0  0  0
   17.3021  -10.8466    0.0000 C   0  0  0  0  0  0  0  0  0  0  0  0
   17.3037  -11.6675    0.0000 C   0  0  0  0  0  0  0  0  0  0  0  0
   18.0103  -12.0728    0.0000 C   0  0  0  0  0  0  0  0  0  0  0  0
 21  1  2  0
  1  2  1  0
  2  3  2  0
  3  4  1  0
  4 22  2  0
  3  5  1  0
  5  6  1  0
  5  7  2  0
  6  8  2  3
  8  9  1  0
  9 10  2  0
 10 11  1  0
 11 12  2  0
 12 13  1  0
 13 14  2  0
 14  9  1  0
 13 15  1  0
 15 16  1  0
 12 17  1  0
 17 18  1  0
 11 19  1  0
 19 20  1  0
 21 22  1  0
 22 23  1  0
 23 24  2  0
 24 25  1  0
 25 26  2  0
 26 21  1  0
M  END
>  <Classification>  (212) 
1

>  <pchembl>  (212) 
5.62

>  <InChI_steorem>  (212) 
InChI=1S/C22H20O4/c1-24-20-12-15(13-21(25-2)22(20)26-3)8-11-19(23)18-10-9-16-6-4-5-7-17(16)14-18/h4-14H,1-3H3

>  <source>  (212) 
ChEMBL25

>  <source_id>  (212) 
25

>  <optional_reference>  (212) 
10.1016/j.bmcl.2016.09.076

>  <optional_origin>  (212) 
None

>  <target>  (212) 
BCRP

$$$$

     RDKit          2D

 21 24  0  0  0  0  0  0  0  0999 V2000
    2.9407   -7.5584    0.0000 C   0  0  0  0  0  0  0  0  0  0  0  0
    2.9395   -8.3812    0.0000 C   0  0  0  0  0  0  0  0  0  0  0  0
    3.6505   -8.7918    0.0000 C   0  0  0  0  0  0  0  0  0  0  0  0
    3.6487   -7.1479    0.0000 C   0  0  0  0  0  0  0  0  0  0  0  0
    4.3601   -7.5547    0.0000 C   0  0  0  0  0  0  0  0  0  0  0  0
    4.3650   -8.3813    0.0000 C   0  0  0  0  0  0  0  0  0  0  0  0
    5.1447   -7.2949    0.0000 C   0  0  0  0  0  0  0  0  0  0  0  0
    5.6345   -7.9605    0.0000 C   0  0  0  0  0  0  0  0  0  0  0  0
    5.1514   -8.6345    0.0000 C   0  0  0  0  0  0  0  0  0  0  0  0
    5.6430   -9.3023    0.0000 N   0  0  0  0  0  0  0  0  0  0  0  0
    6.4247   -8.2118    0.0000 C   0  0  0  0  0  0  0  0  0  0  0  0
    6.4268   -9.0375    0.0000 C   0  0  0  0  0  0  0  0  0  0  0  0
    7.1389   -9.4461    0.0000 C   0  0  0  0  0  0  0  0  0  0  0  0
    7.8535   -9.0338    0.0000 C   0  0  0  0  0  0  0  0  0  0  0  0
    7.8513   -8.2081    0.0000 C   0  0  0  0  0  0  0  0  0  0  0  0
    7.1346   -7.7949    0.0000 C   0  0  0  0  0  0  0  0  0  0  0  0
    5.3936   -6.5131    0.0000 O   0  0  0  0  0  0  0  0  0  0  0  0
    7.1314   -6.9744    0.0000 O   0  0  0  0  0  0  0  0  0  0  0  0
    5.3964  -10.0848    0.0000 C   0  0  0  0  0  0  0  0  0  0  0  0
    4.5954  -10.2626    0.0000 C   0  0  0  0  0  0  0  0  0  0  0  0
    5.9509  -10.6897    0.0000 C   0  0  0  0  0  0  0  0  0  0  0  0
  9 10  1  0
 10 12  1  0
 11  8  1  0
 11 12  2  0
  5  6  1  0
  2  3  1  0
  3  6  2  0
  6  9  1  0
  8  7  1  0
 11 16  1  0
 12 13  1  0
 13 14  1  0
 14 15  1  0
 15 16  1  0
  7  5  1  0
  7 17  2  0
  8  9  2  0
 16 18  2  0
  1  2  2  0
 10 19  1  0
  5  4  2  0
 19 20  1  0
  4  1  1  0
 19 21  1  0
M  END
>  <Classification>  (213) 
0

>  <pchembl>  (213) 
4.46

>  <InChI_steorem>  (213) 
InChI=1S/C18H17NO2/c1-10(2)19-13-8-5-9-14(20)15(13)16-17(19)11-6-3-4-7-12(11)18(16)21/h3-4,6-7,10H,5,8-9H2,1-2H3

>  <source>  (213) 
ChEMBL25

>  <source_id>  (213) 
25

>  <optional_reference>  (213) 
10.1021/jm500943z

>  <optional_origin>  (213) 
None

>  <target>  (213) 
BCRP

$$$$

     RDKit          2D

 25 29  0  0  0  0  0  0  0  0999 V2000
   10.2586   -7.6359    0.0000 C   0  0  0  0  0  0  0  0  0  0  0  0
   10.2574   -8.4603    0.0000 C   0  0  0  0  0  0  0  0  0  0  0  0
   10.9698   -8.8718    0.0000 C   0  0  0  0  0  0  0  0  0  0  0  0
   10.9680   -7.2245    0.0000 C   0  0  0  0  0  0  0  0  0  0  0  0
   11.6809   -7.6322    0.0000 C   0  0  0  0  0  0  0  0  0  0  0  0
   11.6857   -8.4604    0.0000 C   0  0  0  0  0  0  0  0  0  0  0  0
   12.4670   -7.3718    0.0000 C   0  0  0  0  0  0  0  0  0  0  0  0
   12.9578   -8.0388    0.0000 C   0  0  0  0  0  0  0  0  0  0  0  0
   12.4737   -8.7141    0.0000 C   0  0  0  0  0  0  0  0  0  0  0  0
   12.9663   -9.3833    0.0000 N   0  0  0  0  0  0  0  0  0  0  0  0
   13.7495   -8.2906    0.0000 C   0  0  0  0  0  0  0  0  0  0  0  0
   13.7517   -9.1179    0.0000 C   0  0  0  0  0  0  0  0  0  0  0  0
   14.4652   -9.5274    0.0000 C   0  0  0  0  0  0  0  0  0  0  0  0
   15.1812   -9.1142    0.0000 C   0  0  0  0  0  0  0  0  0  0  0  0
   15.1790   -8.2869    0.0000 C   0  0  0  0  0  0  0  0  0  0  0  0
   14.4610   -7.8728    0.0000 C   0  0  0  0  0  0  0  0  0  0  0  0
   12.7164   -6.5884    0.0000 O   0  0  0  0  0  0  0  0  0  0  0  0
   14.4577   -7.0507    0.0000 O   0  0  0  0  0  0  0  0  0  0  0  0
   12.7192  -10.1673    0.0000 C   0  0  0  0  0  0  0  0  0  0  0  0
   11.9166  -10.3455    0.0000 C   0  0  0  0  0  0  0  0  0  0  0  0
   11.3639   -9.7387    0.0000 C   0  0  0  0  0  0  0  0  0  0  0  0
   10.5620   -9.9163    0.0000 C   0  0  0  0  0  0  0  0  0  0  0  0
   10.3142  -10.7012    0.0000 C   0  0  0  0  0  0  0  0  0  0  0  0
   10.8746  -11.3086    0.0000 C   0  0  0  0  0  0  0  0  0  0  0  0
   11.6745  -11.1278    0.0000 C   0  0  0  0  0  0  0  0  0  0  0  0
  5  6  1  0
  2  3  1  0
  3  6  2  0
  6  9  1  0
  8  7  1  0
 11 16  1  0
 12 13  1  0
 13 14  1  0
 14 15  1  0
 15 16  1  0
  7  5  1  0
  7 17  2  0
  8  9  2  0
 16 18  2  0
  1  2  2  0
 10 19  1  0
  5  4  2  0
 19 20  1  0
  4  1  1  0
 20 21  2  0
  9 10  1  0
 21 22  1  0
 10 12  1  0
 22 23  2  0
 11  8  1  0
 23 24  1  0
 11 12  2  0
 24 25  2  0
 25 20  1  0
M  END
>  <Classification>  (214) 
0

>  <pchembl>  (214) 
4.52

>  <InChI_steorem>  (214) 
InChI=1S/C22H17NO2/c24-18-12-6-11-17-19(18)20-21(15-9-4-5-10-16(15)22(20)25)23(17)13-14-7-2-1-3-8-14/h1-5,7-10H,6,11-13H2

>  <source>  (214) 
ChEMBL25

>  <source_id>  (214) 
25

>  <optional_reference>  (214) 
10.1021/jm500943z

>  <optional_origin>  (214) 
None

>  <target>  (214) 
BCRP

$$$$

     RDKit          2D

 26 30  0  0  0  0  0  0  0  0999 V2000
   11.2718   -5.8960    0.0000 C   0  0  0  0  0  0  0  0  0  0  0  0
   11.2706   -6.7206    0.0000 C   0  0  0  0  0  0  0  0  0  0  0  0
   11.9829   -7.1320    0.0000 C   0  0  0  0  0  0  0  0  0  0  0  0
   11.9811   -5.4848    0.0000 C   0  0  0  0  0  0  0  0  0  0  0  0
   12.6940   -5.8924    0.0000 C   0  0  0  0  0  0  0  0  0  0  0  0
   12.6989   -6.7206    0.0000 C   0  0  0  0  0  0  0  0  0  0  0  0
   13.4802   -5.6320    0.0000 C   0  0  0  0  0  0  0  0  0  0  0  0
   13.9709   -6.2990    0.0000 C   0  0  0  0  0  0  0  0  0  0  0  0
   13.4868   -6.9743    0.0000 C   0  0  0  0  0  0  0  0  0  0  0  0
   13.9793   -7.6434    0.0000 N   0  0  0  0  0  0  0  0  0  0  0  0
   14.7627   -6.5508    0.0000 C   0  0  0  0  0  0  0  0  0  0  0  0
   14.7649   -7.3781    0.0000 C   0  0  0  0  0  0  0  0  0  0  0  0
   15.4784   -7.7876    0.0000 C   0  0  0  0  0  0  0  0  0  0  0  0
   16.1943   -7.3744    0.0000 C   0  0  0  0  0  0  0  0  0  0  0  0
   16.1922   -6.5472    0.0000 C   0  0  0  0  0  0  0  0  0  0  0  0
   15.4741   -6.1331    0.0000 C   0  0  0  0  0  0  0  0  0  0  0  0
   13.7296   -4.8486    0.0000 O   0  0  0  0  0  0  0  0  0  0  0  0
   15.4708   -5.3110    0.0000 O   0  0  0  0  0  0  0  0  0  0  0  0
   13.7323   -8.4276    0.0000 C   0  0  0  0  0  0  0  0  0  0  0  0
   12.9297   -8.6058    0.0000 C   0  0  0  0  0  0  0  0  0  0  0  0
   12.3770   -7.9989    0.0000 C   0  0  0  0  0  0  0  0  0  0  0  0
   11.5750   -8.1766    0.0000 C   0  0  0  0  0  0  0  0  0  0  0  0
   11.3274   -8.9614    0.0000 C   0  0  0  0  0  0  0  0  0  0  0  0
   11.8877   -9.5687    0.0000 C   0  0  0  0  0  0  0  0  0  0  0  0
   12.6875   -9.3881    0.0000 C   0  0  0  0  0  0  0  0  0  0  0  0
   16.9068   -7.7846    0.0000 C   0  0  0  0  0  0  0  0  0  0  0  0
  2  3  1  0
  3  6  2  0
  6  9  1  0
  8  7  1  0
 11 16  1  0
 12 13  1  0
 13 14  1  0
 14 15  1  0
 15 16  1  0
  7  5  1  0
  7 17  2  0
  8  9  2  0
 16 18  2  0
  1  2  2  0
 10 19  1  0
  5  4  2  0
 19 20  1  0
  4  1  1  0
 20 21  2  0
  9 10  1  0
 21 22  1  0
 10 12  1  0
 22 23  2  0
 11  8  1  0
 23 24  1  0
 11 12  2  0
 24 25  2  0
 25 20  1  0
  5  6  1  0
 14 26  1  0
M  END
>  <Classification>  (215) 
0

>  <pchembl>  (215) 
4.82

>  <InChI_steorem>  (215) 
InChI=1S/C23H19NO2/c1-14-11-18-20(19(25)12-14)21-22(16-9-5-6-10-17(16)23(21)26)24(18)13-15-7-3-2-4-8-15/h2-10,14H,11-13H2,1H3

>  <source>  (215) 
ChEMBL25

>  <source_id>  (215) 
25

>  <optional_reference>  (215) 
10.1021/jm500943z

>  <optional_origin>  (215) 
None

>  <target>  (215) 
BCRP

$$$$

     RDKit          2D

 26 30  0  0  0  0  0  0  0  0999 V2000
   -4.1333  -13.4254    0.0000 C   0  0  0  0  0  0  0  0  0  0  0  0
   -4.1344  -14.2500    0.0000 C   0  0  0  0  0  0  0  0  0  0  0  0
   -3.4220  -14.6614    0.0000 C   0  0  0  0  0  0  0  0  0  0  0  0
   -3.4238  -13.0140    0.0000 C   0  0  0  0  0  0  0  0  0  0  0  0
   -2.7108  -13.4218    0.0000 C   0  0  0  0  0  0  0  0  0  0  0  0
   -2.7059  -14.2500    0.0000 C   0  0  0  0  0  0  0  0  0  0  0  0
   -1.9247  -13.1613    0.0000 C   0  0  0  0  0  0  0  0  0  0  0  0
   -1.4338  -13.8284    0.0000 C   0  0  0  0  0  0  0  0  0  0  0  0
   -1.9180  -14.5037    0.0000 C   0  0  0  0  0  0  0  0  0  0  0  0
   -1.4254  -15.1730    0.0000 N   0  0  0  0  0  0  0  0  0  0  0  0
   -0.6419  -14.0803    0.0000 C   0  0  0  0  0  0  0  0  0  0  0  0
   -0.6398  -14.9076    0.0000 C   0  0  0  0  0  0  0  0  0  0  0  0
    0.0738  -15.3171    0.0000 C   0  0  0  0  0  0  0  0  0  0  0  0
    0.7898  -14.9039    0.0000 C   0  0  0  0  0  0  0  0  0  0  0  0
    0.7876  -14.0766    0.0000 C   0  0  0  0  0  0  0  0  0  0  0  0
    0.0695  -13.6625    0.0000 C   0  0  0  0  0  0  0  0  0  0  0  0
   -1.6751  -12.3778    0.0000 O   0  0  0  0  0  0  0  0  0  0  0  0
    0.0662  -12.8403    0.0000 O   0  0  0  0  0  0  0  0  0  0  0  0
   -1.6724  -15.9572    0.0000 C   0  0  0  0  0  0  0  0  0  0  0  0
   -2.4751  -16.1353    0.0000 C   0  0  0  0  0  0  0  0  0  0  0  0
   -2.7222  -16.9195    0.0000 C   0  0  0  0  0  0  0  0  0  0  0  0
   -3.5252  -17.0930    0.0000 C   0  0  0  0  0  0  0  0  0  0  0  0
   -3.7723  -17.8763    0.0000 C   0  0  0  0  0  0  0  0  0  0  0  0
   -3.2165  -18.4834    0.0000 C   0  0  0  0  0  0  0  0  0  0  0  0
   -2.4102  -18.3017    0.0000 C   0  0  0  0  0  0  0  0  0  0  0  0
   -2.1668  -17.5185    0.0000 C   0  0  0  0  0  0  0  0  0  0  0  0
  2  3  1  0
  3  6  2  0
  6  9  1  0
  8  7  1  0
 11 16  1  0
 12 13  1  0
 13 14  1  0
 14 15  1  0
 15 16  1  0
  7  5  1  0
  7 17  2  0
  8  9  2  0
 16 18  2  0
  1  2  2  0
 10 19  1  0
  5  4  2  0
 19 20  1  0
  4  1  1  0
 20 21  1  0
  9 10  1  0
 21 22  2  0
 10 12  1  0
 22 23  1  0
 11  8  1  0
 23 24  2  0
 11 12  2  0
 24 25  1  0
  5  6  1  0
 25 26  2  0
 26 21  1  0
M  END
>  <Classification>  (216) 
1

>  <pchembl>  (216) 
6.37

>  <InChI_steorem>  (216) 
InChI=1S/C23H19NO2/c25-19-12-6-11-18-20(19)21-22(16-9-4-5-10-17(16)23(21)26)24(18)14-13-15-7-2-1-3-8-15/h1-5,7-10H,6,11-14H2

>  <source>  (216) 
ChEMBL25

>  <source_id>  (216) 
25

>  <optional_reference>  (216) 
10.1021/jm500943z

>  <optional_origin>  (216) 
None

>  <target>  (216) 
BCRP

$$$$

     RDKit          2D

 27 31  0  0  0  0  0  0  0  0999 V2000
    3.9703  -13.4525    0.0000 C   0  0  0  0  0  0  0  0  0  0  0  0
    3.9691  -14.2775    0.0000 C   0  0  0  0  0  0  0  0  0  0  0  0
    4.6820  -14.6892    0.0000 C   0  0  0  0  0  0  0  0  0  0  0  0
    4.6802  -13.0409    0.0000 C   0  0  0  0  0  0  0  0  0  0  0  0
    5.3934  -13.4489    0.0000 C   0  0  0  0  0  0  0  0  0  0  0  0
    5.3983  -14.2775    0.0000 C   0  0  0  0  0  0  0  0  0  0  0  0
    6.1800  -13.1882    0.0000 C   0  0  0  0  0  0  0  0  0  0  0  0
    6.6711  -13.8557    0.0000 C   0  0  0  0  0  0  0  0  0  0  0  0
    6.1867  -14.5313    0.0000 C   0  0  0  0  0  0  0  0  0  0  0  0
    6.6796  -15.2009    0.0000 N   0  0  0  0  0  0  0  0  0  0  0  0
    7.4633  -14.1076    0.0000 C   0  0  0  0  0  0  0  0  0  0  0  0
    7.4655  -14.9353    0.0000 C   0  0  0  0  0  0  0  0  0  0  0  0
    8.1794  -15.3451    0.0000 C   0  0  0  0  0  0  0  0  0  0  0  0
    8.8958  -14.9316    0.0000 C   0  0  0  0  0  0  0  0  0  0  0  0
    8.8936  -14.1040    0.0000 C   0  0  0  0  0  0  0  0  0  0  0  0
    8.1751  -13.6897    0.0000 C   0  0  0  0  0  0  0  0  0  0  0  0
    6.4296  -12.4044    0.0000 O   0  0  0  0  0  0  0  0  0  0  0  0
    8.1718  -12.8671    0.0000 O   0  0  0  0  0  0  0  0  0  0  0  0
    6.4324  -15.9855    0.0000 C   0  0  0  0  0  0  0  0  0  0  0  0
    5.6293  -16.1638    0.0000 C   0  0  0  0  0  0  0  0  0  0  0  0
    5.3821  -16.9483    0.0000 C   0  0  0  0  0  0  0  0  0  0  0  0
    4.5791  -17.1266    0.0000 C   0  0  0  0  0  0  0  0  0  0  0  0
    4.0259  -16.5180    0.0000 C   0  0  0  0  0  0  0  0  0  0  0  0
    3.2235  -16.6957    0.0000 C   0  0  0  0  0  0  0  0  0  0  0  0
    2.9756  -17.4810    0.0000 C   0  0  0  0  0  0  0  0  0  0  0  0
    3.5363  -18.0888    0.0000 C   0  0  0  0  0  0  0  0  0  0  0  0
    4.3367  -17.9079    0.0000 C   0  0  0  0  0  0  0  0  0  0  0  0
  2  3  1  0
  3  6  2  0
  6  9  1  0
  8  7  1  0
 11 16  1  0
 12 13  1  0
 13 14  1  0
 14 15  1  0
 15 16  1  0
  7  5  1  0
  7 17  2  0
  8  9  2  0
 16 18  2  0
  1  2  2  0
 10 19  1  0
  5  4  2  0
 19 20  1  0
  4  1  1  0
 20 21  1  0
  9 10  1  0
 21 22  1  0
 10 12  1  0
 22 23  2  0
 11  8  1  0
 23 24  1  0
 11 12  2  0
 24 25  2  0
  5  6  1  0
 25 26  1  0
 26 27  2  0
 27 22  1  0
M  END
>  <Classification>  (217) 
1

>  <pchembl>  (217) 
6.1

>  <InChI_steorem>  (217) 
InChI=1S/C24H21NO2/c26-20-14-6-13-19-21(20)22-23(17-11-4-5-12-18(17)24(22)27)25(19)15-7-10-16-8-2-1-3-9-16/h1-5,8-9,11-12H,6-7,10,13-15H2

>  <source>  (217) 
ChEMBL25

>  <source_id>  (217) 
25

>  <optional_reference>  (217) 
10.1021/jm500943z

>  <optional_origin>  (217) 
None

>  <target>  (217) 
BCRP

$$$$

     RDKit          2D

 31 36  0  0  0  0  0  0  0  0999 V2000
    4.0640   -5.8130    0.0000 C   0  0  0  0  0  0  0  0  0  0  0  0
    4.0628   -6.6393    0.0000 C   0  0  0  0  0  0  0  0  0  0  0  0
    4.7767   -7.0516    0.0000 C   0  0  0  0  0  0  0  0  0  0  0  0
    4.7749   -5.4008    0.0000 C   0  0  0  0  0  0  0  0  0  0  0  0
    5.4893   -5.8095    0.0000 C   0  0  0  0  0  0  0  0  0  0  0  0
    5.4942   -6.6393    0.0000 C   0  0  0  0  0  0  0  0  0  0  0  0
    6.2771   -5.5484    0.0000 C   0  0  0  0  0  0  0  0  0  0  0  0
    6.7690   -6.2169    0.0000 C   0  0  0  0  0  0  0  0  0  0  0  0
    6.2838   -6.8936    0.0000 C   0  0  0  0  0  0  0  0  0  0  0  0
    6.7775   -7.5642    0.0000 N   0  0  0  0  0  0  0  0  0  0  0  0
    7.5624   -6.4693    0.0000 C   0  0  0  0  0  0  0  0  0  0  0  0
    7.5646   -7.2983    0.0000 C   0  0  0  0  0  0  0  0  0  0  0  0
    8.2797   -7.7086    0.0000 C   0  0  0  0  0  0  0  0  0  0  0  0
    8.9972   -7.2946    0.0000 C   0  0  0  0  0  0  0  0  0  0  0  0
    8.9950   -6.4656    0.0000 C   0  0  0  0  0  0  0  0  0  0  0  0
    8.2754   -6.0506    0.0000 C   0  0  0  0  0  0  0  0  0  0  0  0
    6.5271   -4.7633    0.0000 O   0  0  0  0  0  0  0  0  0  0  0  0
    8.2721   -5.2267    0.0000 O   0  0  0  0  0  0  0  0  0  0  0  0
    6.5299   -8.3501    0.0000 C   0  0  0  0  0  0  0  0  0  0  0  0
    5.7256   -8.5285    0.0000 C   0  0  0  0  0  0  0  0  0  0  0  0
    5.1716   -7.9204    0.0000 C   0  0  0  0  0  0  0  0  0  0  0  0
    4.3680   -8.0984    0.0000 C   0  0  0  0  0  0  0  0  0  0  0  0
    4.1197   -8.8850    0.0000 C   0  0  0  0  0  0  0  0  0  0  0  0
    4.6813   -9.4936    0.0000 C   0  0  0  0  0  0  0  0  0  0  0  0
    5.4829   -9.3125    0.0000 C   0  0  0  0  0  0  0  0  0  0  0  0
    9.7107   -7.7022    0.0000 C   0  0  0  0  0  0  0  0  0  0  0  0
    9.7103   -8.5272    0.0000 C   0  0  0  0  0  0  0  0  0  0  0  0
   10.4234   -8.9382    0.0000 C   0  0  0  0  0  0  0  0  0  0  0  0
   11.1374   -8.5253    0.0000 C   0  0  0  0  0  0  0  0  0  0  0  0
   11.1338   -7.6972    0.0000 C   0  0  0  0  0  0  0  0  0  0  0  0
   10.4200   -7.2899    0.0000 C   0  0  0  0  0  0  0  0  0  0  0  0
 11 16  1  0
 12 13  1  0
 13 14  1  0
 14 15  1  0
 15 16  1  0
  7  5  1  0
  7 17  2  0
  8  9  2  0
 16 18  2  0
  1  2  2  0
 10 19  1  0
  5  4  2  0
 19 20  1  0
  4  1  1  0
 20 21  2  0
  9 10  1  0
 21 22  1  0
 10 12  1  0
 22 23  2  0
 11  8  1  0
 23 24  1  0
 11 12  2  0
 24 25  2  0
 25 20  1  0
  5  6  1  0
 26 27  2  0
  2  3  1  0
 27 28  1  0
  3  6  2  0
 28 29  2  0
  6  9  1  0
 29 30  1  0
  8  7  1  0
 30 31  2  0
 31 26  1  0
 14 26  1  0
M  END
>  <Classification>  (218) 
1

>  <pchembl>  (218) 
6.02

>  <InChI_steorem>  (218) 
InChI=1S/C28H21NO2/c30-24-16-20(19-11-5-2-6-12-19)15-23-25(24)26-27(21-13-7-8-14-22(21)28(26)31)29(23)17-18-9-3-1-4-10-18/h1-14,20H,15-17H2

>  <source>  (218) 
ChEMBL25

>  <source_id>  (218) 
25

>  <optional_reference>  (218) 
10.1021/jm500943z

>  <optional_origin>  (218) 
None

>  <target>  (218) 
BCRP

$$$$

     RDKit          2D

 22 25  0  0  0  0  0  0  0  0999 V2000
   19.7309  -15.2625    0.0000 C   0  0  0  0  0  0  0  0  0  0  0  0
   19.7297  -16.0820    0.0000 C   0  0  0  0  0  0  0  0  0  0  0  0
   20.4378  -16.4910    0.0000 C   0  0  0  0  0  0  0  0  0  0  0  0
   20.4360  -14.8536    0.0000 C   0  0  0  0  0  0  0  0  0  0  0  0
   21.1446  -15.2589    0.0000 C   0  0  0  0  0  0  0  0  0  0  0  0
   21.1449  -16.0775    0.0000 C   0  0  0  0  0  0  0  0  0  0  0  0
   21.9231  -15.0057    0.0000 C   0  0  0  0  0  0  0  0  0  0  0  0
   22.4045  -15.6678    0.0000 C   0  0  0  0  0  0  0  0  0  0  0  0
   21.9249  -16.3260    0.0000 C   0  0  0  0  0  0  0  0  0  0  0  0
   22.4027  -16.9857    0.0000 N   0  0  0  0  0  0  0  0  0  0  0  0
   23.1788  -15.9206    0.0000 C   0  0  0  0  0  0  0  0  0  0  0  0
   23.1741  -16.7360    0.0000 C   0  0  0  0  0  0  0  0  0  0  0  0
   23.8740  -17.1455    0.0000 C   0  0  0  0  0  0  0  0  0  0  0  0
   24.5831  -16.7441    0.0000 C   0  0  0  0  0  0  0  0  0  0  0  0
   24.5878  -15.9287    0.0000 C   0  0  0  0  0  0  0  0  0  0  0  0
   23.8834  -15.5147    0.0000 C   0  0  0  0  0  0  0  0  0  0  0  0
   22.1753  -14.2284    0.0000 O   0  0  0  0  0  0  0  0  0  0  0  0
   23.8870  -14.6975    0.0000 O   0  0  0  0  0  0  0  0  0  0  0  0
   22.1492  -17.7626    0.0000 C   0  0  0  0  0  0  0  0  0  0  0  0
   21.3497  -17.9315    0.0000 C   0  0  0  0  0  0  0  0  0  0  0  0
   22.6953  -18.3705    0.0000 C   0  0  0  0  0  0  0  0  0  0  0  0
   25.2983  -15.5249    0.0000 C   0  0  0  0  0  0  0  0  0  0  0  0
  1  2  2  0
  2  3  1  0
  3  6  2  0
  5  4  2  0
  4  1  1  0
  5  6  1  0
  6  9  1  0
  8  7  1  0
  7  5  1  0
  8  9  2  0
  9 10  1  0
 10 12  1  0
 11  8  1  0
 11 12  2  0
 11 16  1  0
 12 13  1  0
 13 14  1  0
 14 15  1  0
 15 16  1  0
  7 17  2  0
 16 18  2  0
 10 19  1  0
 19 20  1  0
 19 21  1  0
 15 22  1  0
M  END
>  <Classification>  (219) 
0

>  <pchembl>  (219) 
4.7

>  <InChI_steorem>  (219) 
InChI=1S/C19H19NO2/c1-10(2)20-14-9-8-11(3)18(21)15(14)16-17(20)12-6-4-5-7-13(12)19(16)22/h4-7,10-11H,8-9H2,1-3H3

>  <source>  (219) 
ChEMBL25

>  <source_id>  (219) 
25

>  <optional_reference>  (219) 
10.1021/jm500943z

>  <optional_origin>  (219) 
None

>  <target>  (219) 
BCRP

$$$$

     RDKit          2D

 22 25  0  0  0  0  0  0  0  0999 V2000
   23.2638   -1.8366    0.0000 C   0  0  0  0  0  0  0  0  0  0  0  0
   23.2626   -2.6561    0.0000 C   0  0  0  0  0  0  0  0  0  0  0  0
   23.9707   -3.0651    0.0000 C   0  0  0  0  0  0  0  0  0  0  0  0
   23.9689   -1.4277    0.0000 C   0  0  0  0  0  0  0  0  0  0  0  0
   24.6775   -1.8330    0.0000 C   0  0  0  0  0  0  0  0  0  0  0  0
   24.6778   -2.6516    0.0000 C   0  0  0  0  0  0  0  0  0  0  0  0
   25.4560   -1.5798    0.0000 C   0  0  0  0  0  0  0  0  0  0  0  0
   25.9374   -2.2419    0.0000 C   0  0  0  0  0  0  0  0  0  0  0  0
   25.4578   -2.9002    0.0000 C   0  0  0  0  0  0  0  0  0  0  0  0
   25.9356   -3.5598    0.0000 N   0  0  0  0  0  0  0  0  0  0  0  0
   26.7117   -2.4947    0.0000 C   0  0  0  0  0  0  0  0  0  0  0  0
   26.7070   -3.3101    0.0000 C   0  0  0  0  0  0  0  0  0  0  0  0
   27.4069   -3.7196    0.0000 C   0  0  0  0  0  0  0  0  0  0  0  0
   28.1160   -3.3182    0.0000 C   0  0  0  0  0  0  0  0  0  0  0  0
   28.1207   -2.5028    0.0000 C   0  0  0  0  0  0  0  0  0  0  0  0
   27.4163   -2.0888    0.0000 C   0  0  0  0  0  0  0  0  0  0  0  0
   25.7082   -0.8025    0.0000 O   0  0  0  0  0  0  0  0  0  0  0  0
   27.4199   -1.2716    0.0000 O   0  0  0  0  0  0  0  0  0  0  0  0
   25.6821   -4.3367    0.0000 C   0  0  0  0  0  0  0  0  0  0  0  0
   24.8826   -4.5056    0.0000 C   0  0  0  0  0  0  0  0  0  0  0  0
   26.2282   -4.9447    0.0000 C   0  0  0  0  0  0  0  0  0  0  0  0
   28.8208   -3.7319    0.0000 C   0  0  0  0  0  0  0  0  0  0  0  0
  1  2  2  0
  2  3  1  0
  3  6  2  0
  5  4  2  0
  4  1  1  0
  5  6  1  0
  6  9  1  0
  8  7  1  0
  7  5  1  0
  8  9  2  0
  9 10  1  0
 10 12  1  0
 11  8  1  0
 11 12  2  0
 11 16  1  0
 12 13  1  0
 13 14  1  0
 14 15  1  0
 15 16  1  0
  7 17  2  0
 16 18  2  0
 10 19  1  0
 19 20  1  0
 19 21  1  0
 14 22  1  0
M  END
>  <Classification>  (220) 
1

>  <pchembl>  (220) 
5.39

>  <InChI_steorem>  (220) 
InChI=1S/C19H19NO2/c1-10(2)20-14-8-11(3)9-15(21)16(14)17-18(20)12-6-4-5-7-13(12)19(17)22/h4-7,10-11H,8-9H2,1-3H3

>  <source>  (220) 
ChEMBL25

>  <source_id>  (220) 
25

>  <optional_reference>  (220) 
10.1021/jm500943z

>  <optional_origin>  (220) 
None

>  <target>  (220) 
BCRP

$$$$

     RDKit          2D

 27 30  0  0  0  0  0  0  0  0999 V2000
   12.1574  -14.6681    0.0000 C   0  0  0  0  0  0  0  0  0  0  0  0
   12.1563  -15.4877    0.0000 C   0  0  0  0  0  0  0  0  0  0  0  0
   12.8643  -15.8966    0.0000 C   0  0  0  0  0  0  0  0  0  0  0  0
   12.8625  -14.2593    0.0000 C   0  0  0  0  0  0  0  0  0  0  0  0
   13.5711  -14.6645    0.0000 C   0  0  0  0  0  0  0  0  0  0  0  0
   13.5714  -15.4832    0.0000 C   0  0  0  0  0  0  0  0  0  0  0  0
   14.3496  -14.4114    0.0000 C   0  0  0  0  0  0  0  0  0  0  0  0
   14.8311  -15.0734    0.0000 C   0  0  0  0  0  0  0  0  0  0  0  0
   14.3514  -15.7317    0.0000 C   0  0  0  0  0  0  0  0  0  0  0  0
   14.8292  -16.3914    0.0000 N   0  0  0  0  0  0  0  0  0  0  0  0
   15.6053  -15.3263    0.0000 C   0  0  0  0  0  0  0  0  0  0  0  0
   15.6006  -16.1416    0.0000 C   0  0  0  0  0  0  0  0  0  0  0  0
   16.3005  -16.5512    0.0000 C   0  0  0  0  0  0  0  0  0  0  0  0
   17.0096  -16.1498    0.0000 C   0  0  0  0  0  0  0  0  0  0  0  0
   17.0143  -15.3344    0.0000 C   0  0  0  0  0  0  0  0  0  0  0  0
   16.3099  -14.9204    0.0000 C   0  0  0  0  0  0  0  0  0  0  0  0
   14.6019  -13.6341    0.0000 O   0  0  0  0  0  0  0  0  0  0  0  0
   16.3135  -14.1032    0.0000 O   0  0  0  0  0  0  0  0  0  0  0  0
   14.5757  -17.1682    0.0000 C   0  0  0  0  0  0  0  0  0  0  0  0
   13.7762  -17.3371    0.0000 C   0  0  0  0  0  0  0  0  0  0  0  0
   15.1218  -17.7762    0.0000 C   0  0  0  0  0  0  0  0  0  0  0  0
   12.8665  -16.7138    0.0000 O   0  0  0  0  0  0  0  0  0  0  0  0
   12.1599  -17.1243    0.0000 C   0  0  0  0  0  0  0  0  0  0  0  0
   12.1621  -17.9415    0.0000 C   0  0  0  0  0  0  0  0  0  0  0  0
   11.4554  -18.3520    0.0000 C   0  0  0  0  0  0  0  0  0  0  0  0
   11.4576  -19.1692    0.0000 C   0  0  0  0  0  0  0  0  0  0  0  0
   10.7466  -17.9453    0.0000 C   0  0  0  0  0  0  0  0  0  0  0  0
  1  2  2  0
  2  3  1  0
  3  6  2  0
  5  4  2  0
  4  1  1  0
  5  6  1  0
  6  9  1  0
  8  7  1  0
  7  5  1  0
  8  9  2  0
  9 10  1  0
 10 12  1  0
 11  8  1  0
 11 12  2  0
 11 16  1  0
 12 13  1  0
 13 14  1  0
 14 15  1  0
 15 16  1  0
  7 17  2  0
 16 18  2  0
 10 19  1  0
 19 20  1  0
 19 21  1  0
  3 22  1  0
 22 23  1  0
 23 24  1  0
 24 25  2  3
 25 26  1  0
 25 27  1  0
M  END
>  <Classification>  (221) 
1

>  <pchembl>  (221) 
5.8

>  <InChI_steorem>  (221) 
InChI=1S/C23H25NO3/c1-13(2)11-12-27-18-10-5-7-15-19(18)22-21(23(15)26)20-16(24(22)14(3)4)8-6-9-17(20)25/h5,7,10-11,14H,6,8-9,12H2,1-4H3

>  <source>  (221) 
ChEMBL25

>  <source_id>  (221) 
25

>  <optional_reference>  (221) 
10.1021/jm500943z

>  <optional_origin>  (221) 
None

>  <target>  (221) 
BCRP

$$$$

     RDKit          2D

 27 30  0  0  0  0  0  0  0  0999 V2000
    2.9908  -15.7742    0.0000 C   0  0  0  0  0  0  0  0  0  0  0  0
    2.9897  -16.5938    0.0000 C   0  0  0  0  0  0  0  0  0  0  0  0
    3.6977  -17.0027    0.0000 C   0  0  0  0  0  0  0  0  0  0  0  0
    3.6959  -15.3654    0.0000 C   0  0  0  0  0  0  0  0  0  0  0  0
    4.4046  -15.7706    0.0000 C   0  0  0  0  0  0  0  0  0  0  0  0
    4.4048  -16.5893    0.0000 C   0  0  0  0  0  0  0  0  0  0  0  0
    5.1830  -15.5175    0.0000 C   0  0  0  0  0  0  0  0  0  0  0  0
    5.6645  -16.1795    0.0000 C   0  0  0  0  0  0  0  0  0  0  0  0
    5.1848  -16.8378    0.0000 C   0  0  0  0  0  0  0  0  0  0  0  0
    5.6627  -17.4975    0.0000 N   0  0  0  0  0  0  0  0  0  0  0  0
    6.4387  -16.4324    0.0000 C   0  0  0  0  0  0  0  0  0  0  0  0
    6.4340  -17.2477    0.0000 C   0  0  0  0  0  0  0  0  0  0  0  0
    7.1339  -17.6572    0.0000 C   0  0  0  0  0  0  0  0  0  0  0  0
    7.8430  -17.2559    0.0000 C   0  0  0  0  0  0  0  0  0  0  0  0
    7.8478  -16.4405    0.0000 C   0  0  0  0  0  0  0  0  0  0  0  0
    7.1434  -16.0265    0.0000 C   0  0  0  0  0  0  0  0  0  0  0  0
    5.4353  -14.7402    0.0000 O   0  0  0  0  0  0  0  0  0  0  0  0
    7.1470  -15.2093    0.0000 O   0  0  0  0  0  0  0  0  0  0  0  0
    5.4092  -18.2743    0.0000 C   0  0  0  0  0  0  0  0  0  0  0  0
    4.6096  -18.4432    0.0000 C   0  0  0  0  0  0  0  0  0  0  0  0
    5.9552  -18.8823    0.0000 C   0  0  0  0  0  0  0  0  0  0  0  0
    3.6935  -14.5482    0.0000 O   0  0  0  0  0  0  0  0  0  0  0  0
    2.9846  -14.1417    0.0000 C   0  0  0  0  0  0  0  0  0  0  0  0
    2.2781  -14.5524    0.0000 C   0  0  0  0  0  0  0  0  0  0  0  0
    1.5692  -14.1459    0.0000 C   0  0  0  0  0  0  0  0  0  0  0  0
    0.8627  -14.5566    0.0000 C   0  0  0  0  0  0  0  0  0  0  0  0
    1.5667  -13.3287    0.0000 C   0  0  0  0  0  0  0  0  0  0  0  0
  1  2  2  0
  2  3  1  0
  3  6  2  0
  5  4  2  0
  4  1  1  0
  5  6  1  0
  6  9  1  0
  8  7  1  0
  7  5  1  0
  8  9  2  0
  9 10  1  0
 10 12  1  0
 11  8  1  0
 11 12  2  0
 11 16  1  0
 12 13  1  0
 13 14  1  0
 14 15  1  0
 15 16  1  0
  7 17  2  0
 16 18  2  0
 10 19  1  0
 19 20  1  0
 19 21  1  0
  4 22  1  0
 22 23  1  0
 23 24  1  0
 24 25  2  3
 25 26  1  0
 25 27  1  0
M  END
>  <Classification>  (222) 
1

>  <pchembl>  (222) 
5.52

>  <InChI_steorem>  (222) 
InChI=1S/C23H25NO3/c1-13(2)11-12-27-18-10-5-7-15-19(18)23(26)21-20-16(8-6-9-17(20)25)24(14(3)4)22(15)21/h5,7,10-11,14H,6,8-9,12H2,1-4H3

>  <source>  (222) 
ChEMBL25

>  <source_id>  (222) 
25

>  <optional_reference>  (222) 
10.1021/jm500943z

>  <optional_origin>  (222) 
None

>  <target>  (222) 
BCRP

$$$$

     RDKit          2D

 27 31  0  0  0  0  0  0  0  0999 V2000
    7.4647   -7.7138    0.0000 C   0  0  0  0  0  0  0  0  0  0  0  0
    7.4636   -8.5333    0.0000 C   0  0  0  0  0  0  0  0  0  0  0  0
    8.1716   -8.9423    0.0000 C   0  0  0  0  0  0  0  0  0  0  0  0
    8.1699   -7.3049    0.0000 C   0  0  0  0  0  0  0  0  0  0  0  0
    8.8785   -7.7102    0.0000 C   0  0  0  0  0  0  0  0  0  0  0  0
    8.8787   -8.5288    0.0000 C   0  0  0  0  0  0  0  0  0  0  0  0
    9.6570   -7.4570    0.0000 C   0  0  0  0  0  0  0  0  0  0  0  0
   10.1384   -8.1191    0.0000 C   0  0  0  0  0  0  0  0  0  0  0  0
    9.6588   -8.7773    0.0000 C   0  0  0  0  0  0  0  0  0  0  0  0
   10.1366   -9.4370    0.0000 N   0  0  0  0  0  0  0  0  0  0  0  0
   10.9127   -8.3719    0.0000 C   0  0  0  0  0  0  0  0  0  0  0  0
   10.9080   -9.1873    0.0000 C   0  0  0  0  0  0  0  0  0  0  0  0
   11.6079   -9.5968    0.0000 C   0  0  0  0  0  0  0  0  0  0  0  0
   12.3170   -9.1954    0.0000 C   0  0  0  0  0  0  0  0  0  0  0  0
   12.3217   -8.3800    0.0000 C   0  0  0  0  0  0  0  0  0  0  0  0
   11.6173   -7.9660    0.0000 C   0  0  0  0  0  0  0  0  0  0  0  0
    9.9092   -6.6797    0.0000 O   0  0  0  0  0  0  0  0  0  0  0  0
   11.6209   -7.1488    0.0000 O   0  0  0  0  0  0  0  0  0  0  0  0
    9.7313  -10.1468    0.0000 C   0  0  0  0  0  0  0  0  0  0  0  0
   10.1437  -10.8524    0.0000 C   0  0  0  0  0  0  0  0  0  0  0  0
    9.7389  -11.5622    0.0000 C   0  0  0  0  0  0  0  0  0  0  0  0
    8.9218  -11.5618    0.0000 C   0  0  0  0  0  0  0  0  0  0  0  0
    8.5170  -12.2709    0.0000 C   0  0  0  0  0  0  0  0  0  0  0  0
    8.9295  -12.9774    0.0000 C   0  0  0  0  0  0  0  0  0  0  0  0
    9.7509  -12.9703    0.0000 C   0  0  0  0  0  0  0  0  0  0  0  0
   10.1519  -12.2608    0.0000 C   0  0  0  0  0  0  0  0  0  0  0  0
   13.0217   -9.6091    0.0000 C   0  0  0  0  0  0  0  0  0  0  0  0
  1  2  2  0
  2  3  1  0
  3  6  2  0
  5  4  2  0
  4  1  1  0
  5  6  1  0
  6  9  1  0
  8  7  1  0
  7  5  1  0
  8  9  2  0
  9 10  1  0
 10 12  1  0
 11  8  1  0
 11 12  2  0
 11 16  1  0
 12 13  1  0
 13 14  1  0
 14 15  1  0
 15 16  1  0
  7 17  2  0
 16 18  2  0
 10 19  1  0
 19 20  1  0
 20 21  1  0
 21 22  2  0
 22 23  1  0
 23 24  2  0
 24 25  1  0
 25 26  2  0
 26 21  1  0
 14 27  1  0
M  END
>  <Classification>  (223) 
1

>  <pchembl>  (223) 
6.64

>  <InChI_steorem>  (223) 
InChI=1S/C24H21NO2/c1-15-13-19-21(20(26)14-15)22-23(17-9-5-6-10-18(17)24(22)27)25(19)12-11-16-7-3-2-4-8-16/h2-10,15H,11-14H2,1H3

>  <source>  (223) 
ChEMBL25

>  <source_id>  (223) 
25

>  <optional_reference>  (223) 
10.1021/jm500943z

>  <optional_origin>  (223) 
None

>  <target>  (223) 
BCRP

$$$$

     RDKit          2D

 28 32  0  0  0  0  0  0  0  0999 V2000
   20.6719   -8.1719    0.0000 C   0  0  0  0  0  0  0  0  0  0  0  0
   20.6707   -8.9914    0.0000 C   0  0  0  0  0  0  0  0  0  0  0  0
   21.3788   -9.4004    0.0000 C   0  0  0  0  0  0  0  0  0  0  0  0
   21.3770   -7.7630    0.0000 C   0  0  0  0  0  0  0  0  0  0  0  0
   22.0856   -8.1683    0.0000 C   0  0  0  0  0  0  0  0  0  0  0  0
   22.0859   -8.9869    0.0000 C   0  0  0  0  0  0  0  0  0  0  0  0
   22.8641   -7.9151    0.0000 C   0  0  0  0  0  0  0  0  0  0  0  0
   23.3455   -8.5772    0.0000 C   0  0  0  0  0  0  0  0  0  0  0  0
   22.8659   -9.2355    0.0000 C   0  0  0  0  0  0  0  0  0  0  0  0
   23.3437   -9.8951    0.0000 N   0  0  0  0  0  0  0  0  0  0  0  0
   24.1198   -8.8300    0.0000 C   0  0  0  0  0  0  0  0  0  0  0  0
   24.1151   -9.6454    0.0000 C   0  0  0  0  0  0  0  0  0  0  0  0
   24.8150  -10.0549    0.0000 C   0  0  0  0  0  0  0  0  0  0  0  0
   25.5241   -9.6535    0.0000 C   0  0  0  0  0  0  0  0  0  0  0  0
   25.5288   -8.8381    0.0000 C   0  0  0  0  0  0  0  0  0  0  0  0
   24.8244   -8.4241    0.0000 C   0  0  0  0  0  0  0  0  0  0  0  0
   23.1163   -7.1378    0.0000 O   0  0  0  0  0  0  0  0  0  0  0  0
   24.8280   -7.6069    0.0000 O   0  0  0  0  0  0  0  0  0  0  0  0
   22.9385  -10.6050    0.0000 C   0  0  0  0  0  0  0  0  0  0  0  0
   23.3508  -11.3105    0.0000 C   0  0  0  0  0  0  0  0  0  0  0  0
   22.9460  -12.0203    0.0000 C   0  0  0  0  0  0  0  0  0  0  0  0
   22.1289  -12.0199    0.0000 C   0  0  0  0  0  0  0  0  0  0  0  0
   21.7242  -12.7290    0.0000 C   0  0  0  0  0  0  0  0  0  0  0  0
   22.1366  -13.4355    0.0000 C   0  0  0  0  0  0  0  0  0  0  0  0
   22.9580  -13.4285    0.0000 C   0  0  0  0  0  0  0  0  0  0  0  0
   23.3590  -12.7189    0.0000 C   0  0  0  0  0  0  0  0  0  0  0  0
   24.1762  -12.7109    0.0000 O   0  0  0  0  0  0  0  0  0  0  0  0
   24.5917  -13.4146    0.0000 C   0  0  0  0  0  0  0  0  0  0  0  0
  1  2  2  0
  2  3  1  0
  3  6  2  0
  5  4  2  0
  4  1  1  0
  5  6  1  0
  6  9  1  0
  8  7  1  0
  7  5  1  0
  8  9  2  0
  9 10  1  0
 10 12  1  0
 11  8  1  0
 11 12  2  0
 11 16  1  0
 12 13  1  0
 13 14  1  0
 14 15  1  0
 15 16  1  0
  7 17  2  0
 16 18  2  0
 10 19  1  0
 19 20  1  0
 20 21  1  0
 21 22  2  0
 22 23  1  0
 23 24  2  0
 24 25  1  0
 25 26  2  0
 26 21  1  0
 26 27  1  0
 27 28  1  0
M  END
>  <Classification>  (224) 
1

>  <pchembl>  (224) 
6.68

>  <InChI_steorem>  (224) 
InChI=1S/C24H21NO3/c1-28-20-12-5-2-7-15(20)13-14-25-18-10-6-11-19(26)21(18)22-23(25)16-8-3-4-9-17(16)24(22)27/h2-5,7-9,12H,6,10-11,13-14H2,1H3

>  <source>  (224) 
ChEMBL25

>  <source_id>  (224) 
25

>  <optional_reference>  (224) 
10.1021/jm500943z

>  <optional_origin>  (224) 
None

>  <target>  (224) 
BCRP

$$$$

     RDKit          2D

 28 32  0  0  0  0  0  0  0  0999 V2000
   26.2147   -7.4702    0.0000 C   0  0  0  0  0  0  0  0  0  0  0  0
   26.2136   -8.2898    0.0000 C   0  0  0  0  0  0  0  0  0  0  0  0
   26.9216   -8.6987    0.0000 C   0  0  0  0  0  0  0  0  0  0  0  0
   26.9199   -7.0614    0.0000 C   0  0  0  0  0  0  0  0  0  0  0  0
   27.6285   -7.4666    0.0000 C   0  0  0  0  0  0  0  0  0  0  0  0
   27.6287   -8.2853    0.0000 C   0  0  0  0  0  0  0  0  0  0  0  0
   28.4070   -7.2135    0.0000 C   0  0  0  0  0  0  0  0  0  0  0  0
   28.8884   -7.8756    0.0000 C   0  0  0  0  0  0  0  0  0  0  0  0
   28.4088   -8.5338    0.0000 C   0  0  0  0  0  0  0  0  0  0  0  0
   28.8866   -9.1935    0.0000 N   0  0  0  0  0  0  0  0  0  0  0  0
   29.6627   -8.1284    0.0000 C   0  0  0  0  0  0  0  0  0  0  0  0
   29.6580   -8.9438    0.0000 C   0  0  0  0  0  0  0  0  0  0  0  0
   30.3579   -9.3533    0.0000 C   0  0  0  0  0  0  0  0  0  0  0  0
   31.0670   -8.9519    0.0000 C   0  0  0  0  0  0  0  0  0  0  0  0
   31.0717   -8.1365    0.0000 C   0  0  0  0  0  0  0  0  0  0  0  0
   30.3673   -7.7225    0.0000 C   0  0  0  0  0  0  0  0  0  0  0  0
   28.6592   -6.4362    0.0000 O   0  0  0  0  0  0  0  0  0  0  0  0
   30.3709   -6.9053    0.0000 O   0  0  0  0  0  0  0  0  0  0  0  0
   28.4813   -9.9033    0.0000 C   0  0  0  0  0  0  0  0  0  0  0  0
   28.8937  -10.6088    0.0000 C   0  0  0  0  0  0  0  0  0  0  0  0
   28.4889  -11.3187    0.0000 C   0  0  0  0  0  0  0  0  0  0  0  0
   27.6718  -11.3183    0.0000 C   0  0  0  0  0  0  0  0  0  0  0  0
   27.2670  -12.0273    0.0000 C   0  0  0  0  0  0  0  0  0  0  0  0
   27.6795  -12.7338    0.0000 C   0  0  0  0  0  0  0  0  0  0  0  0
   28.5009  -12.7268    0.0000 C   0  0  0  0  0  0  0  0  0  0  0  0
   28.9019  -12.0172    0.0000 C   0  0  0  0  0  0  0  0  0  0  0  0
   28.9157  -13.4309    0.0000 O   0  0  0  0  0  0  0  0  0  0  0  0
   28.5134  -14.1422    0.0000 C   0  0  0  0  0  0  0  0  0  0  0  0
  1  2  2  0
  2  3  1  0
  3  6  2  0
  5  4  2  0
  4  1  1  0
  5  6  1  0
  6  9  1  0
  8  7  1  0
  7  5  1  0
  8  9  2  0
  9 10  1  0
 10 12  1  0
 11  8  1  0
 11 12  2  0
 11 16  1  0
 12 13  1  0
 13 14  1  0
 14 15  1  0
 15 16  1  0
  7 17  2  0
 16 18  2  0
 10 19  1  0
 19 20  1  0
 20 21  1  0
 21 22  2  0
 22 23  1  0
 23 24  2  0
 24 25  1  0
 25 26  2  0
 26 21  1  0
 25 27  1  0
 27 28  1  0
M  END
>  <Classification>  (225) 
1

>  <pchembl>  (225) 
6.51

>  <InChI_steorem>  (225) 
InChI=1S/C24H21NO3/c1-28-16-7-4-6-15(14-16)12-13-25-19-10-5-11-20(26)21(19)22-23(25)17-8-2-3-9-18(17)24(22)27/h2-4,6-9,14H,5,10-13H2,1H3

>  <source>  (225) 
ChEMBL25

>  <source_id>  (225) 
25

>  <optional_reference>  (225) 
10.1021/jm500943z

>  <optional_origin>  (225) 
None

>  <target>  (225) 
BCRP

$$$$

     RDKit          2D

 28 32  0  0  0  0  0  0  0  0999 V2000
   32.3437   -7.1813    0.0000 C   0  0  0  0  0  0  0  0  0  0  0  0
   32.3425   -8.0009    0.0000 C   0  0  0  0  0  0  0  0  0  0  0  0
   33.0506   -8.4098    0.0000 C   0  0  0  0  0  0  0  0  0  0  0  0
   33.0488   -6.7725    0.0000 C   0  0  0  0  0  0  0  0  0  0  0  0
   33.7574   -7.1777    0.0000 C   0  0  0  0  0  0  0  0  0  0  0  0
   33.7577   -7.9964    0.0000 C   0  0  0  0  0  0  0  0  0  0  0  0
   34.5359   -6.9246    0.0000 C   0  0  0  0  0  0  0  0  0  0  0  0
   35.0173   -7.5866    0.0000 C   0  0  0  0  0  0  0  0  0  0  0  0
   34.5377   -8.2449    0.0000 C   0  0  0  0  0  0  0  0  0  0  0  0
   35.0155   -8.9046    0.0000 N   0  0  0  0  0  0  0  0  0  0  0  0
   35.7916   -7.8395    0.0000 C   0  0  0  0  0  0  0  0  0  0  0  0
   35.7869   -8.6549    0.0000 C   0  0  0  0  0  0  0  0  0  0  0  0
   36.4868   -9.0644    0.0000 C   0  0  0  0  0  0  0  0  0  0  0  0
   37.1959   -8.6630    0.0000 C   0  0  0  0  0  0  0  0  0  0  0  0
   37.2006   -7.8476    0.0000 C   0  0  0  0  0  0  0  0  0  0  0  0
   36.4962   -7.4336    0.0000 C   0  0  0  0  0  0  0  0  0  0  0  0
   34.7882   -6.1473    0.0000 O   0  0  0  0  0  0  0  0  0  0  0  0
   36.4998   -6.6164    0.0000 O   0  0  0  0  0  0  0  0  0  0  0  0
   34.6103   -9.6144    0.0000 C   0  0  0  0  0  0  0  0  0  0  0  0
   35.0226  -10.3199    0.0000 C   0  0  0  0  0  0  0  0  0  0  0  0
   34.6178  -11.0298    0.0000 C   0  0  0  0  0  0  0  0  0  0  0  0
   33.8007  -11.0294    0.0000 C   0  0  0  0  0  0  0  0  0  0  0  0
   33.3960  -11.7384    0.0000 C   0  0  0  0  0  0  0  0  0  0  0  0
   33.8084  -12.4449    0.0000 C   0  0  0  0  0  0  0  0  0  0  0  0
   34.6298  -12.4379    0.0000 C   0  0  0  0  0  0  0  0  0  0  0  0
   35.0308  -11.7283    0.0000 C   0  0  0  0  0  0  0  0  0  0  0  0
   33.4045  -13.1554    0.0000 O   0  0  0  0  0  0  0  0  0  0  0  0
   32.5873  -13.1608    0.0000 C   0  0  0  0  0  0  0  0  0  0  0  0
  1  2  2  0
  2  3  1  0
  3  6  2  0
  5  4  2  0
  4  1  1  0
  5  6  1  0
  6  9  1  0
  8  7  1  0
  7  5  1  0
  8  9  2  0
  9 10  1  0
 10 12  1  0
 11  8  1  0
 11 12  2  0
 11 16  1  0
 12 13  1  0
 13 14  1  0
 14 15  1  0
 15 16  1  0
  7 17  2  0
 16 18  2  0
 10 19  1  0
 19 20  1  0
 20 21  1  0
 21 22  2  0
 22 23  1  0
 23 24  2  0
 24 25  1  0
 25 26  2  0
 26 21  1  0
 24 27  1  0
 27 28  1  0
M  END
>  <Classification>  (226) 
1

>  <pchembl>  (226) 
6.16

>  <InChI_steorem>  (226) 
InChI=1S/C24H21NO3/c1-28-16-11-9-15(10-12-16)13-14-25-19-7-4-8-20(26)21(19)22-23(25)17-5-2-3-6-18(17)24(22)27/h2-3,5-6,9-12H,4,7-8,13-14H2,1H3

>  <source>  (226) 
ChEMBL25

>  <source_id>  (226) 
25

>  <optional_reference>  (226) 
10.1021/jm500943z

>  <optional_origin>  (226) 
None

>  <target>  (226) 
BCRP

$$$$

     RDKit          2D

 32 37  0  0  0  0  0  0  0  0999 V2000
   13.9115   -7.8376    0.0000 C   0  0  0  0  0  0  0  0  0  0  0  0
   13.9103   -8.6571    0.0000 C   0  0  0  0  0  0  0  0  0  0  0  0
   14.6184   -9.0661    0.0000 C   0  0  0  0  0  0  0  0  0  0  0  0
   14.6166   -7.4287    0.0000 C   0  0  0  0  0  0  0  0  0  0  0  0
   15.3252   -7.8340    0.0000 C   0  0  0  0  0  0  0  0  0  0  0  0
   15.3255   -8.6526    0.0000 C   0  0  0  0  0  0  0  0  0  0  0  0
   16.1037   -7.5808    0.0000 C   0  0  0  0  0  0  0  0  0  0  0  0
   16.5851   -8.2429    0.0000 C   0  0  0  0  0  0  0  0  0  0  0  0
   16.1055   -8.9012    0.0000 C   0  0  0  0  0  0  0  0  0  0  0  0
   16.5833   -9.5608    0.0000 N   0  0  0  0  0  0  0  0  0  0  0  0
   17.3594   -8.4957    0.0000 C   0  0  0  0  0  0  0  0  0  0  0  0
   17.3547   -9.3111    0.0000 C   0  0  0  0  0  0  0  0  0  0  0  0
   18.0546   -9.7206    0.0000 C   0  0  0  0  0  0  0  0  0  0  0  0
   18.7637   -9.3192    0.0000 C   0  0  0  0  0  0  0  0  0  0  0  0
   18.7684   -8.5038    0.0000 C   0  0  0  0  0  0  0  0  0  0  0  0
   18.0640   -8.0898    0.0000 C   0  0  0  0  0  0  0  0  0  0  0  0
   16.3559   -6.8035    0.0000 O   0  0  0  0  0  0  0  0  0  0  0  0
   18.0676   -7.2726    0.0000 O   0  0  0  0  0  0  0  0  0  0  0  0
   16.1781  -10.2706    0.0000 C   0  0  0  0  0  0  0  0  0  0  0  0
   16.5904  -10.9762    0.0000 C   0  0  0  0  0  0  0  0  0  0  0  0
   16.1856  -11.6860    0.0000 C   0  0  0  0  0  0  0  0  0  0  0  0
   15.3685  -11.6856    0.0000 C   0  0  0  0  0  0  0  0  0  0  0  0
   14.9638  -12.3947    0.0000 C   0  0  0  0  0  0  0  0  0  0  0  0
   15.3762  -13.1012    0.0000 C   0  0  0  0  0  0  0  0  0  0  0  0
   16.1976  -13.0942    0.0000 C   0  0  0  0  0  0  0  0  0  0  0  0
   16.5986  -12.3846    0.0000 C   0  0  0  0  0  0  0  0  0  0  0  0
   19.4685   -9.7329    0.0000 C   0  0  0  0  0  0  0  0  0  0  0  0
   19.4595  -10.5502    0.0000 C   0  0  0  0  0  0  0  0  0  0  0  0
   20.1635  -10.9638    0.0000 C   0  0  0  0  0  0  0  0  0  0  0  0
   20.8751  -10.5602    0.0000 C   0  0  0  0  0  0  0  0  0  0  0  0
   20.8783   -9.7388    0.0000 C   0  0  0  0  0  0  0  0  0  0  0  0
   20.1738   -9.3289    0.0000 C   0  0  0  0  0  0  0  0  0  0  0  0
  1  2  2  0
  2  3  1  0
  3  6  2  0
  5  4  2  0
  4  1  1  0
  5  6  1  0
  6  9  1  0
  8  7  1  0
  7  5  1  0
  8  9  2  0
  9 10  1  0
 10 12  1  0
 11  8  1  0
 11 12  2  0
 11 16  1  0
 12 13  1  0
 13 14  1  0
 14 15  1  0
 15 16  1  0
  7 17  2  0
 16 18  2  0
 10 19  1  0
 19 20  1  0
 20 21  1  0
 21 22  2  0
 22 23  1  0
 23 24  2  0
 24 25  1  0
 25 26  2  0
 26 21  1  0
 14 27  1  0
 27 28  2  0
 28 29  1  0
 29 30  2  0
 30 31  1  0
 31 32  2  0
 32 27  1  0
M  END
>  <Classification>  (227) 
1

>  <pchembl>  (227) 
6.31

>  <InChI_steorem>  (227) 
InChI=1S/C29H23NO2/c31-25-18-21(20-11-5-2-6-12-20)17-24-26(25)27-28(22-13-7-8-14-23(22)29(27)32)30(24)16-15-19-9-3-1-4-10-19/h1-14,21H,15-18H2

>  <source>  (227) 
ChEMBL25

>  <source_id>  (227) 
25

>  <optional_reference>  (227) 
10.1021/jm500943z

>  <optional_origin>  (227) 
None

>  <target>  (227) 
BCRP

$$$$

     RDKit          2D

 35 40  0  0  0  0  0  0  0  0999 V2000
   28.7489  -15.8609    0.0000 C   0  0  0  0  0  0  0  0  0  0  0  0
   28.7477  -16.6804    0.0000 C   0  0  0  0  0  0  0  0  0  0  0  0
   29.4558  -17.0894    0.0000 C   0  0  0  0  0  0  0  0  0  0  0  0
   29.4540  -15.4520    0.0000 C   0  0  0  0  0  0  0  0  0  0  0  0
   30.1626  -15.8573    0.0000 C   0  0  0  0  0  0  0  0  0  0  0  0
   30.1629  -16.6759    0.0000 C   0  0  0  0  0  0  0  0  0  0  0  0
   30.9411  -15.6042    0.0000 C   0  0  0  0  0  0  0  0  0  0  0  0
   31.4225  -16.2662    0.0000 C   0  0  0  0  0  0  0  0  0  0  0  0
   30.9429  -16.9245    0.0000 C   0  0  0  0  0  0  0  0  0  0  0  0
   31.4207  -17.5841    0.0000 N   0  0  0  0  0  0  0  0  0  0  0  0
   32.1968  -16.5190    0.0000 C   0  0  0  0  0  0  0  0  0  0  0  0
   32.1921  -17.3344    0.0000 C   0  0  0  0  0  0  0  0  0  0  0  0
   32.8920  -17.7439    0.0000 C   0  0  0  0  0  0  0  0  0  0  0  0
   33.6011  -17.3426    0.0000 C   0  0  0  0  0  0  0  0  0  0  0  0
   33.6058  -16.5272    0.0000 C   0  0  0  0  0  0  0  0  0  0  0  0
   32.9014  -16.1131    0.0000 C   0  0  0  0  0  0  0  0  0  0  0  0
   31.1933  -14.8269    0.0000 O   0  0  0  0  0  0  0  0  0  0  0  0
   32.9050  -15.2959    0.0000 O   0  0  0  0  0  0  0  0  0  0  0  0
   31.1672  -18.3610    0.0000 C   0  0  0  0  0  0  0  0  0  0  0  0
   30.3677  -18.5299    0.0000 C   0  0  0  0  0  0  0  0  0  0  0  0
   31.7132  -18.9690    0.0000 C   0  0  0  0  0  0  0  0  0  0  0  0
   33.5998  -15.7082    0.0000 C   0  0  0  0  0  0  0  0  0  0  0  0
   34.3922  -16.7359    0.0000 C   0  0  0  0  0  0  0  0  0  0  0  0
   34.3045  -15.2944    0.0000 C   0  0  0  0  0  0  0  0  0  0  0  0
   34.6056  -17.5248    0.0000 C   0  0  0  0  0  0  0  0  0  0  0  0
   35.0126  -15.6983    0.0000 C   0  0  0  0  0  0  0  0  0  0  0  0
   35.7168  -15.2852    0.0000 C   0  0  0  0  0  0  0  0  0  0  0  0
   35.7112  -14.4672    0.0000 C   0  0  0  0  0  0  0  0  0  0  0  0
   34.9956  -14.0640    0.0000 C   0  0  0  0  0  0  0  0  0  0  0  0
   34.2943  -14.4794    0.0000 C   0  0  0  0  0  0  0  0  0  0  0  0
   34.0276  -18.1033    0.0000 C   0  0  0  0  0  0  0  0  0  0  0  0
   34.2405  -18.8915    0.0000 C   0  0  0  0  0  0  0  0  0  0  0  0
   35.0310  -19.1018    0.0000 C   0  0  0  0  0  0  0  0  0  0  0  0
   35.6086  -18.5177    0.0000 C   0  0  0  0  0  0  0  0  0  0  0  0
   35.3928  -17.7317    0.0000 C   0  0  0  0  0  0  0  0  0  0  0  0
  1  2  2  0
  2  3  1  0
  3  6  2  0
  5  4  2  0
  4  1  1  0
  5  6  1  0
  6  9  1  0
  8  7  1  0
  7  5  1  0
  8  9  2  0
  9 10  1  0
 10 12  1  0
 11  8  1  0
 11 12  2  0
 11 16  1  0
 12 13  1  0
 13 14  1  0
 14 15  1  0
 15 16  1  0
  7 17  2  0
 16 18  2  0
 10 19  1  0
 19 20  1  0
 19 21  1  0
 15 22  1  0
 15 23  1  0
 22 24  1  0
 23 25  1  0
 24 26  2  0
 26 27  1  0
 27 28  2  0
 28 29  1  0
 29 30  2  0
 30 24  1  0
 25 31  2  0
 31 32  1  0
 32 33  2  0
 33 34  1  0
 34 35  2  0
 35 25  1  0
M  END
>  <Classification>  (228) 
1

>  <pchembl>  (228) 
6.21

>  <InChI_steorem>  (228) 
InChI=1S/C32H29NO2/c1-21(2)33-26-17-18-32(19-22-11-5-3-6-12-22,20-23-13-7-4-8-14-23)31(35)27(26)28-29(33)24-15-9-10-16-25(24)30(28)34/h3-16,21H,17-20H2,1-2H3

>  <source>  (228) 
ChEMBL25

>  <source_id>  (228) 
25

>  <optional_reference>  (228) 
10.1021/jm500943z

>  <optional_origin>  (228) 
None

>  <target>  (228) 
BCRP

$$$$

     RDKit          2D

 26 28  0  0  0  0  0  0  0  0999 V2000
   -2.6111    0.7486    0.0000 C   0  0  0  0  0  0  0  0  0  0  0  0
   -2.6111   -0.7486    0.0000 C   0  0  0  0  0  0  0  0  0  0  0  0
   -1.2964   -1.4973    0.0000 C   0  0  0  0  0  0  0  0  0  0  0  0
   -1.2964    1.4973    0.0000 C   0  0  0  0  0  0  0  0  0  0  0  0
    0.0000    0.7486    0.0000 C   0  0  0  0  0  0  0  0  0  0  0  0
    0.0000   -0.7486    0.0000 C   0  0  0  0  0  0  0  0  0  0  0  0
    1.2964   -1.4973    0.0000 C   0  0  0  0  0  0  0  0  0  0  0  0
    2.5929   -0.7486    0.0000 C   0  0  0  0  0  0  0  0  0  0  0  0
    2.5929    0.7486    0.0000 C   0  0  0  0  0  0  0  0  0  0  0  0
    1.2964    1.4973    0.0000 O   0  0  0  0  0  0  0  0  0  0  0  0
    1.2964   -2.6973    0.0000 O   0  0  0  0  0  0  0  0  0  0  0  0
    3.8926    1.4990    0.0000 C   0  0  0  0  0  0  0  0  0  0  0  0
    3.8951    2.9990    0.0000 C   0  0  0  0  0  0  0  0  0  0  0  0
    5.1953    3.7469    0.0000 C   0  0  0  0  0  0  0  0  0  0  0  0
    6.4931    2.9949    0.0000 C   0  0  0  0  0  0  0  0  0  0  0  0
    6.4907    1.4949    0.0000 C   0  0  0  0  0  0  0  0  0  0  0  0
    5.1905    0.7469    0.0000 C   0  0  0  0  0  0  0  0  0  0  0  0
   -1.2907    2.9981    0.0000 C   0  0  0  0  0  0  0  0  0  0  0  0
   -2.5870    3.7544    0.0000 C   0  0  0  0  0  0  0  0  0  0  0  0
   -2.5812    5.2552    0.0000 C   0  0  0  0  0  0  0  0  0  0  0  0
   -3.6177    5.8599    0.0000 C   0  0  0  0  0  0  0  0  0  0  0  0
   -1.5395    5.8509    0.0000 C   0  0  0  0  0  0  0  0  0  0  0  0
   -3.6486    1.3517    0.0000 O   0  0  0  0  0  0  0  0  0  0  0  0
   -1.2928   -2.6973    0.0000 O   0  0  0  0  0  0  0  0  0  0  0  0
    7.7956    3.7405    0.0000 O   0  0  0  0  0  0  0  0  0  0  0  0
    8.8331    3.1374    0.0000 C   0  0  0  0  0  0  0  0  0  0  0  0
  2  3  1  0
 12 13  2  0
  3  6  2  0
 13 14  1  0
  1  2  2  0
 14 15  2  0
  5  4  2  0
 15 16  1  0
  4  1  1  0
 16 17  2  0
 17 12  1  0
  9 12  1  0
  5 10  1  0
  4 18  1  0
  6  7  1  0
 18 19  1  0
  7  8  1  0
 19 20  2  3
  8  9  1  0
 20 21  1  0
  9 10  1  0
 20 22  1  0
  5  6  1  0
  1 23  1  0
  7 11  2  0
  3 24  1  0
 15 25  1  0
 25 26  1  0
M  END
>  <Classification>  (229) 
0

>  <pchembl>  (229) 
4.65

>  <InChI_steorem>  (229) 
InChI=1S/C21H22O5/c1-12(2)4-9-15-16(22)10-17(23)20-18(24)11-19(26-21(15)20)13-5-7-14(25-3)8-6-13/h4-8,10,19,22-23H,9,11H2,1-3H3

>  <source>  (229) 
ChEMBL25

>  <source_id>  (229) 
25

>  <optional_reference>  (229) 
10.1021/np100797y

>  <optional_origin>  (229) 
None

>  <target>  (229) 
BCRP

$$$$

     RDKit          2D

 30 33  0  0  0  0  0  0  0  0999 V2000
    6.6760    0.1513    0.0000 Br  0  0  0  0  0  0  0  0  0  0  0  0
    0.9603    5.1013    0.0000 Br  0  0  0  0  0  0  0  0  0  0  0  0
    6.6760    0.9762    0.0000 O   0  0  0  0  0  0  0  0  0  0  0  0
    6.6760    2.6262    0.0000 O   0  0  0  0  0  0  0  0  0  0  0  0
    3.8181    2.6263    0.0000 N   0  0  0  0  0  0  0  0  0  0  0  0
    3.1037    1.3887    0.0000 N   0  0  0  0  0  0  0  0  0  0  0  0
    3.8181    0.1512    0.0000 N   0  0  0  0  0  0  0  0  0  0  0  0
    2.3892    2.6262    0.0000 N   0  0  0  0  0  0  0  0  0  0  0  0
    4.5326    1.3887    0.0000 C   0  0  0  0  0  0  0  0  0  0  0  0
    4.5326    2.2137    0.0000 C   0  0  0  0  0  0  0  0  0  0  0  0
    3.8181    0.9762    0.0000 C   0  0  0  0  0  0  0  0  0  0  0  0
    3.1037    2.2138    0.0000 C   0  0  0  0  0  0  0  0  0  0  0  0
    5.2471    0.9763    0.0000 C   0  0  0  0  0  0  0  0  0  0  0  0
    5.9616    1.3887    0.0000 C   0  0  0  0  0  0  0  0  0  0  0  0
    5.9616    2.2138    0.0000 C   0  0  0  0  0  0  0  0  0  0  0  0
    5.2471    2.6263    0.0000 C   0  0  0  0  0  0  0  0  0  0  0  0
    4.5326   -0.2613    0.0000 C   0  0  0  0  0  0  0  0  0  0  0  0
    2.3892    3.4512    0.0000 C   0  0  0  0  0  0  0  0  0  0  0  0
    5.2471    0.1513    0.0000 C   0  0  0  0  0  0  0  0  0  0  0  0
    4.5326   -1.0862    0.0000 C   0  0  0  0  0  0  0  0  0  0  0  0
    1.6747    3.8638    0.0000 C   0  0  0  0  0  0  0  0  0  0  0  0
    3.1037    3.8638    0.0000 C   0  0  0  0  0  0  0  0  0  0  0  0
    5.9616   -0.2612    0.0000 C   0  0  0  0  0  0  0  0  0  0  0  0
    1.6747    4.6888    0.0000 C   0  0  0  0  0  0  0  0  0  0  0  0
    5.2471   -1.4987    0.0000 C   0  0  0  0  0  0  0  0  0  0  0  0
    5.9616   -1.0862    0.0000 C   0  0  0  0  0  0  0  0  0  0  0  0
    7.3905    1.3887    0.0000 C   0  0  0  0  0  0  0  0  0  0  0  0
    6.6760    3.4512    0.0000 C   0  0  0  0  0  0  0  0  0  0  0  0
    3.1037    4.6888    0.0000 C   0  0  0  0  0  0  0  0  0  0  0  0
    2.3892    5.1013    0.0000 C   0  0  0  0  0  0  0  0  0  0  0  0
  1 23  1  0
  2 24  1  0
  3 14  1  0
  3 27  1  0
  4 15  1  0
  4 28  1  0
  5 10  2  0
  5 12  1  0
  6 11  1  0
  6 12  2  0
  7 11  1  0
  7 17  1  0
  8 12  1  0
  8 18  1  0
  9 10  1  0
  9 11  2  0
  9 13  1  0
 10 16  1  0
 13 14  2  0
 14 15  1  0
 15 16  2  0
 17 19  2  0
 17 20  1  0
 18 21  2  0
 18 22  1  0
 19 23  1  0
 20 25  2  0
 21 24  1  0
 22 29  2  0
 23 26  2  0
 24 30  2  0
 25 26  1  0
 29 30  1  0
M  END
>  <Classification>  (230) 
1

>  <pchembl>  (230) 
6.07

>  <InChI_steorem>  (230) 
InChI=1S/C22H18Br2N4O2/c1-29-19-11-17-18(12-20(19)30-2)27-22(26-16-8-4-6-14(24)10-16)28-21(17)25-15-7-3-5-13(23)9-15/h3-12H,1-2H3,(H2,25,26,27,28)

>  <source>  (230) 
ChEMBL25

>  <source_id>  (230) 
25

>  <optional_reference>  (230) 
10.1016/j.bmc.2013.10.007

>  <optional_origin>  (230) 
None

>  <target>  (230) 
BCRP

$$$$

     RDKit          2D

 21 23  0  0  0  0  0  0  0  0999 V2000
   -4.3988   -3.6644    0.0000 C   0  0  0  0  0  0  0  0  0  0  0  0
   -4.4000   -4.4914    0.0000 C   0  0  0  0  0  0  0  0  0  0  0  0
   -3.6856   -4.9040    0.0000 C   0  0  0  0  0  0  0  0  0  0  0  0
   -3.6874   -3.2520    0.0000 C   0  0  0  0  0  0  0  0  0  0  0  0
   -2.9725   -3.6608    0.0000 C   0  0  0  0  0  0  0  0  0  0  0  0
   -2.9737   -4.4935    0.0000 C   0  0  0  0  0  0  0  0  0  0  0  0
   -2.2572   -4.9084    0.0000 C   0  0  0  0  0  0  0  0  0  0  0  0
   -1.5349   -4.4955    0.0000 C   0  0  0  0  0  0  0  0  0  0  0  0
   -1.5337   -3.6629    0.0000 C   0  0  0  0  0  0  0  0  0  0  0  0
   -2.2548   -3.2433    0.0000 O   0  0  0  0  0  0  0  0  0  0  0  0
   -2.2595   -5.7329    0.0000 O   0  0  0  0  0  0  0  0  0  0  0  0
   -0.8204   -3.2550    0.0000 C   0  0  0  0  0  0  0  0  0  0  0  0
   -0.1070   -3.6707    0.0000 C   0  0  0  0  0  0  0  0  0  0  0  0
    0.6075   -3.2609    0.0000 C   0  0  0  0  0  0  0  0  0  0  0  0
    0.6099   -2.4355    0.0000 C   0  0  0  0  0  0  0  0  0  0  0  0
   -0.1081   -2.0216    0.0000 C   0  0  0  0  0  0  0  0  0  0  0  0
   -0.8197   -2.4339    0.0000 C   0  0  0  0  0  0  0  0  0  0  0  0
   -5.1144   -4.9030    0.0000 C   0  0  0  0  0  0  0  0  0  0  0  0
   -3.6859   -5.7285    0.0000 O   0  0  0  0  0  0  0  0  0  0  0  0
   -5.1130   -3.2524    0.0000 O   0  0  0  0  0  0  0  0  0  0  0  0
   -5.1132   -2.4279    0.0000 C   0  0  0  0  0  0  0  0  0  0  0  0
  9 10  1  0
  5  6  1  0
  7 11  2  0
  2  3  1  0
 12 13  2  0
  3  6  2  0
 13 14  1  0
  1  2  2  0
 14 15  2  0
  5  4  2  0
 15 16  1  0
  4  1  1  0
 16 17  2  0
 17 12  1  0
  9 12  1  0
  5 10  1  0
  2 18  1  0
  6  7  1  0
  3 19  1  0
  7  8  1  0
  1 20  1  0
  8  9  1  0
 20 21  1  0
M  END
>  <Classification>  (231) 
1

>  <pchembl>  (231) 
5.31

>  <InChI_steorem>  (231) 
InChI=1S/C17H16O4/c1-10-13(20-2)9-15-16(17(10)19)12(18)8-14(21-15)11-6-4-3-5-7-11/h3-7,9,14,19H,8H2,1-2H3

>  <source>  (231) 
ChEMBL25

>  <source_id>  (231) 
25

>  <optional_reference>  (231) 
10.1016/j.bmc.2010.12.043

>  <optional_origin>  (231) 
None

>  <target>  (231) 
BCRP

$$$$

     RDKit          2D

 22 24  0  0  0  0  0  0  0  0999 V2000
   17.6018  -25.9196    0.0000 C   0  0  0  0  0  0  0  0  0  0  0  0
   17.6006  -26.7466    0.0000 C   0  0  0  0  0  0  0  0  0  0  0  0
   18.3150  -27.1592    0.0000 C   0  0  0  0  0  0  0  0  0  0  0  0
   18.3132  -25.5071    0.0000 C   0  0  0  0  0  0  0  0  0  0  0  0
   19.0283  -25.9160    0.0000 C   0  0  0  0  0  0  0  0  0  0  0  0
   19.0271  -26.7486    0.0000 C   0  0  0  0  0  0  0  0  0  0  0  0
   19.7436  -27.1637    0.0000 C   0  0  0  0  0  0  0  0  0  0  0  0
   20.4659  -26.7507    0.0000 C   0  0  0  0  0  0  0  0  0  0  0  0
   20.4671  -25.9180    0.0000 C   0  0  0  0  0  0  0  0  0  0  0  0
   19.7460  -25.4985    0.0000 O   0  0  0  0  0  0  0  0  0  0  0  0
   19.7413  -27.9882    0.0000 O   0  0  0  0  0  0  0  0  0  0  0  0
   21.1804  -25.5102    0.0000 C   0  0  0  0  0  0  0  0  0  0  0  0
   21.8939  -25.9258    0.0000 C   0  0  0  0  0  0  0  0  0  0  0  0
   22.6085  -25.5160    0.0000 C   0  0  0  0  0  0  0  0  0  0  0  0
   22.6109  -24.6906    0.0000 C   0  0  0  0  0  0  0  0  0  0  0  0
   21.8928  -24.2767    0.0000 C   0  0  0  0  0  0  0  0  0  0  0  0
   21.1811  -24.6890    0.0000 C   0  0  0  0  0  0  0  0  0  0  0  0
   18.3147  -27.9837    0.0000 O   0  0  0  0  0  0  0  0  0  0  0  0
   16.8862  -27.1583    0.0000 C   0  0  0  0  0  0  0  0  0  0  0  0
   16.8876  -25.5076    0.0000 O   0  0  0  0  0  0  0  0  0  0  0  0
   16.1736  -25.9199    0.0000 C   0  0  0  0  0  0  0  0  0  0  0  0
   17.6005  -28.3958    0.0000 C   0  0  0  0  0  0  0  0  0  0  0  0
  5  6  1  0
  7 11  2  0
  2  3  1  0
 12 13  2  0
  3  6  2  0
 13 14  1  0
  1  2  2  0
 14 15  2  0
  5  4  2  0
 15 16  1  0
  4  1  1  0
 16 17  2  0
 17 12  1  0
  9 12  1  0
  5 10  1  0
  3 18  1  0
  6  7  1  0
  2 19  1  0
  7  8  1  0
  1 20  1  0
  8  9  2  0
 20 21  1  0
  9 10  1  0
 18 22  1  0
M  END
>  <Classification>  (232) 
1

>  <pchembl>  (232) 
5.23

>  <InChI_steorem>  (232) 
InChI=1S/C18H16O4/c1-11-14(20-2)10-16-17(18(11)21-3)13(19)9-15(22-16)12-7-5-4-6-8-12/h4-10H,1-3H3

>  <source>  (232) 
ChEMBL25

>  <source_id>  (232) 
25

>  <optional_reference>  (232) 
10.1016/j.bmc.2010.12.043

>  <optional_origin>  (232) 
None

>  <target>  (232) 
BCRP

$$$$

     RDKit          2D

 22 24  0  0  0  0  0  0  0  0999 V2000
    2.9636   -3.9687    0.0000 C   0  0  0  0  0  0  0  0  0  0  0  0
    2.9625   -4.7957    0.0000 C   0  0  0  0  0  0  0  0  0  0  0  0
    3.6770   -5.2083    0.0000 C   0  0  0  0  0  0  0  0  0  0  0  0
    3.6752   -3.5561    0.0000 C   0  0  0  0  0  0  0  0  0  0  0  0
    4.3902   -3.9651    0.0000 C   0  0  0  0  0  0  0  0  0  0  0  0
    4.3890   -4.7977    0.0000 C   0  0  0  0  0  0  0  0  0  0  0  0
    5.1055   -5.2128    0.0000 C   0  0  0  0  0  0  0  0  0  0  0  0
    5.8277   -4.7998    0.0000 C   0  0  0  0  0  0  0  0  0  0  0  0
    5.8289   -3.9671    0.0000 C   0  0  0  0  0  0  0  0  0  0  0  0
    5.1079   -3.5475    0.0000 O   0  0  0  0  0  0  0  0  0  0  0  0
    5.1031   -6.0373    0.0000 O   0  0  0  0  0  0  0  0  0  0  0  0
    6.5424   -3.5592    0.0000 C   0  0  0  0  0  0  0  0  0  0  0  0
    7.2557   -3.9749    0.0000 C   0  0  0  0  0  0  0  0  0  0  0  0
    7.9703   -3.5651    0.0000 C   0  0  0  0  0  0  0  0  0  0  0  0
    7.9728   -2.7397    0.0000 C   0  0  0  0  0  0  0  0  0  0  0  0
    7.2547   -2.3258    0.0000 C   0  0  0  0  0  0  0  0  0  0  0  0
    6.5431   -2.7381    0.0000 C   0  0  0  0  0  0  0  0  0  0  0  0
    3.6767   -6.0328    0.0000 O   0  0  0  0  0  0  0  0  0  0  0  0
    2.9624   -6.4449    0.0000 C   0  0  0  0  0  0  0  0  0  0  0  0
    2.2495   -3.5566    0.0000 O   0  0  0  0  0  0  0  0  0  0  0  0
    2.2493   -2.7321    0.0000 C   0  0  0  0  0  0  0  0  0  0  0  0
    3.6727   -2.7316    0.0000 C   0  0  0  0  0  0  0  0  0  0  0  0
  5  6  1  0
  7 11  2  0
  2  3  1  0
 12 13  2  0
  3  6  2  0
 13 14  1  0
  1  2  2  0
 14 15  2  0
  5  4  2  0
 15 16  1  0
  4  1  1  0
 16 17  2  0
 17 12  1  0
  9 12  1  0
  5 10  1  0
  3 18  1  0
  6  7  1  0
 18 19  1  0
  7  8  1  0
  1 20  1  0
  8  9  1  0
 20 21  1  0
  9 10  1  0
  4 22  1  0
M  END
>  <Classification>  (233) 
1

>  <pchembl>  (233) 
5.03

>  <InChI_steorem>  (233) 
InChI=1S/C18H18O4/c1-11-14(20-2)10-16(21-3)17-13(19)9-15(22-18(11)17)12-7-5-4-6-8-12/h4-8,10,15H,9H2,1-3H3

>  <source>  (233) 
ChEMBL25

>  <source_id>  (233) 
25

>  <optional_reference>  (233) 
10.1016/j.bmc.2010.12.043

>  <optional_origin>  (233) 
None

>  <target>  (233) 
BCRP

$$$$

     RDKit          2D

 27 29  0  0  0  0  0  0  0  0999 V2000
    7.8777    0.3459    0.0000 C   0  0  0  0  0  0  0  0  0  0  0  0
    7.8766   -0.4815    0.0000 C   0  0  0  0  0  0  0  0  0  0  0  0
    8.5914   -0.8944    0.0000 C   0  0  0  0  0  0  0  0  0  0  0  0
    8.5896    0.7586    0.0000 C   0  0  0  0  0  0  0  0  0  0  0  0
    8.5912   -1.7194    0.0000 O   0  0  0  0  0  0  0  0  0  0  0  0
    7.1632    0.7582    0.0000 O   0  0  0  0  0  0  0  0  0  0  0  0
    9.3050    0.3495    0.0000 C   0  0  0  0  0  0  0  0  0  0  0  0
    9.3084   -0.4836    0.0000 C   0  0  0  0  0  0  0  0  0  0  0  0
   10.0276   -0.8949    0.0000 C   0  0  0  0  0  0  0  0  0  0  0  0
   10.7480   -0.4777    0.0000 C   0  0  0  0  0  0  0  0  0  0  0  0
   10.7445    0.3554    0.0000 C   0  0  0  0  0  0  0  0  0  0  0  0
   10.0207    0.7713    0.0000 O   0  0  0  0  0  0  0  0  0  0  0  0
   10.0298   -1.7199    0.0000 O   0  0  0  0  0  0  0  0  0  0  0  0
    8.5871    1.5836    0.0000 C   0  0  0  0  0  0  0  0  0  0  0  0
    7.8714    1.9940    0.0000 C   0  0  0  0  0  0  0  0  0  0  0  0
    7.8690    2.8190    0.0000 C   0  0  0  0  0  0  0  0  0  0  0  0
    7.1533    3.2294    0.0000 C   0  0  0  0  0  0  0  0  0  0  0  0
    8.5822    3.2336    0.0000 C   0  0  0  0  0  0  0  0  0  0  0  0
   11.4577    0.7701    0.0000 C   0  0  0  0  0  0  0  0  0  0  0  0
   12.1727    0.3578    0.0000 C   0  0  0  0  0  0  0  0  0  0  0  0
   12.8854    0.7718    0.0000 C   0  0  0  0  0  0  0  0  0  0  0  0
   12.8833    1.5977    0.0000 C   0  0  0  0  0  0  0  0  0  0  0  0
   12.1625    2.0078    0.0000 C   0  0  0  0  0  0  0  0  0  0  0  0
   11.4528    1.5914    0.0000 C   0  0  0  0  0  0  0  0  0  0  0  0
   13.6010    0.3611    0.0000 O   0  0  0  0  0  0  0  0  0  0  0  0
   14.3122    1.6040    0.0000 C   0  0  0  0  0  0  0  0  0  0  0  0
   13.5959    2.0134    0.0000 O   0  0  0  0  0  0  0  0  0  0  0  0
 14 15  1  0
  3  8  2  0
 15 16  2  3
  1  2  2  0
 16 17  1  0
  7  4  2  0
 16 18  1  0
  4  1  1  0
 11 19  1  0
 19 20  2  0
  3  5  1  0
 20 21  1  0
  7 12  1  0
 21 22  2  0
  8  9  1  0
 22 23  1  0
  9 10  1  0
 23 24  2  0
 24 19  1  0
 10 11  1  0
 21 25  1  0
 11 12  1  0
  2  3  1  0
  9 13  2  0
  1  6  1  0
  4 14  1  0
  7  8  1  0
 22 27  1  0
 27 26  1  0
M  END
>  <Classification>  (234) 
1

>  <pchembl>  (234) 
5.18

>  <InChI_steorem>  (234) 
InChI=1S/C21H22O6/c1-11(2)4-6-13-14(22)9-16(24)20-17(25)10-19(27-21(13)20)12-5-7-18(26-3)15(23)8-12/h4-5,7-9,19,22-24H,6,10H2,1-3H3

>  <source>  (234) 
ChEMBL25

>  <source_id>  (234) 
25

>  <optional_reference>  (234) 
10.1021/np100797y

>  <optional_origin>  (234) 
None

>  <target>  (234) 
BCRP

$$$$

     RDKit          2D

 29 31  0  0  0  0  0  0  0  0999 V2000
    6.8152   -5.9375    0.0000 C   0  0  0  0  0  0  0  0  0  0  0  0
    6.8141   -6.7648    0.0000 C   0  0  0  0  0  0  0  0  0  0  0  0
    7.5289   -7.1777    0.0000 C   0  0  0  0  0  0  0  0  0  0  0  0
    7.5271   -5.5247    0.0000 C   0  0  0  0  0  0  0  0  0  0  0  0
    7.5287   -8.0027    0.0000 O   0  0  0  0  0  0  0  0  0  0  0  0
    6.1007   -5.5251    0.0000 O   0  0  0  0  0  0  0  0  0  0  0  0
    8.2425   -5.9338    0.0000 C   0  0  0  0  0  0  0  0  0  0  0  0
    8.2459   -6.7669    0.0000 C   0  0  0  0  0  0  0  0  0  0  0  0
    8.9651   -7.1782    0.0000 C   0  0  0  0  0  0  0  0  0  0  0  0
    9.6855   -6.7610    0.0000 C   0  0  0  0  0  0  0  0  0  0  0  0
    9.6820   -5.9279    0.0000 C   0  0  0  0  0  0  0  0  0  0  0  0
    8.9582   -5.5120    0.0000 O   0  0  0  0  0  0  0  0  0  0  0  0
    8.9673   -8.0032    0.0000 O   0  0  0  0  0  0  0  0  0  0  0  0
   10.3952   -5.5132    0.0000 C   0  0  0  0  0  0  0  0  0  0  0  0
   11.1102   -5.9256    0.0000 C   0  0  0  0  0  0  0  0  0  0  0  0
   11.8229   -5.5116    0.0000 C   0  0  0  0  0  0  0  0  0  0  0  0
   11.8208   -4.6857    0.0000 C   0  0  0  0  0  0  0  0  0  0  0  0
   11.1000   -4.2756    0.0000 C   0  0  0  0  0  0  0  0  0  0  0  0
   10.3903   -4.6919    0.0000 C   0  0  0  0  0  0  0  0  0  0  0  0
   12.5385   -5.9222    0.0000 O   0  0  0  0  0  0  0  0  0  0  0  0
   10.4011   -7.1716    0.0000 O   0  0  0  0  0  0  0  0  0  0  0  0
   10.4033   -7.9965    0.0000 C   0  0  0  0  0  0  0  0  0  0  0  0
   11.0946   -3.4506    0.0000 O   0  0  0  0  0  0  0  0  0  0  0  0
   11.8063   -3.0334    0.0000 C   0  0  0  0  0  0  0  0  0  0  0  0
   11.1115   -6.7506    0.0000 C   0  0  0  0  0  0  0  0  0  0  0  0
   11.8266   -7.1620    0.0000 C   0  0  0  0  0  0  0  0  0  0  0  0
   11.8279   -7.9870    0.0000 C   0  0  0  0  0  0  0  0  0  0  0  0
   12.5430   -8.3983    0.0000 C   0  0  0  0  0  0  0  0  0  0  0  0
   11.1141   -8.4006    0.0000 C   0  0  0  0  0  0  0  0  0  0  0  0
 11 14  1  0
  7  8  1  0
 14 15  2  0
  3  8  2  0
 15 16  1  0
  1  2  2  0
 16 17  2  0
  7  4  2  0
 17 18  1  0
  4  1  1  0
 18 19  2  0
 19 14  1  0
 16 20  1  0
  3  5  1  0
 10 21  1  0
  7 12  1  0
 21 22  1  0
  8  9  1  0
 18 23  1  0
  9 10  1  0
 23 24  1  0
 10 11  2  0
 15 25  1  0
 11 12  1  0
 25 26  1  0
  2  3  1  0
 26 27  2  3
  9 13  2  0
 27 28  1  0
  1  6  1  0
 27 29  1  0
M  END
>  <Classification>  (235) 
1

>  <pchembl>  (235) 
5.08

>  <InChI_steorem>  (235) 
InChI=1S/C22H22O7/c1-11(2)5-6-14-15(9-13(27-3)10-16(14)24)21-22(28-4)20(26)19-17(25)7-12(23)8-18(19)29-21/h5,7-10,23-25H,6H2,1-4H3

>  <source>  (235) 
ChEMBL25

>  <source_id>  (235) 
25

>  <optional_reference>  (235) 
10.1021/np100797y

>  <optional_origin>  (235) 
None

>  <target>  (235) 
BCRP

$$$$

     RDKit          2D

 31 33  0  0  0  0  0  0  0  0999 V2000
   -3.0598   -8.4000    0.0000 C   0  0  0  0  0  0  0  0  0  0  0  0
   -3.0609   -9.2273    0.0000 C   0  0  0  0  0  0  0  0  0  0  0  0
   -2.3461   -9.6402    0.0000 C   0  0  0  0  0  0  0  0  0  0  0  0
   -2.3479   -7.9872    0.0000 C   0  0  0  0  0  0  0  0  0  0  0  0
   -2.3463  -10.4652    0.0000 O   0  0  0  0  0  0  0  0  0  0  0  0
   -3.7743   -7.9876    0.0000 O   0  0  0  0  0  0  0  0  0  0  0  0
   -1.6325   -8.3963    0.0000 C   0  0  0  0  0  0  0  0  0  0  0  0
   -1.6291   -9.2294    0.0000 C   0  0  0  0  0  0  0  0  0  0  0  0
   -0.9099   -9.6407    0.0000 C   0  0  0  0  0  0  0  0  0  0  0  0
   -0.1895   -9.2235    0.0000 C   0  0  0  0  0  0  0  0  0  0  0  0
   -0.1930   -8.3904    0.0000 C   0  0  0  0  0  0  0  0  0  0  0  0
   -0.9168   -7.9745    0.0000 O   0  0  0  0  0  0  0  0  0  0  0  0
   -0.9077  -10.4657    0.0000 O   0  0  0  0  0  0  0  0  0  0  0  0
   -2.3504   -7.1622    0.0000 C   0  0  0  0  0  0  0  0  0  0  0  0
   -3.0661   -6.7518    0.0000 C   0  0  0  0  0  0  0  0  0  0  0  0
   -3.0685   -5.9268    0.0000 C   0  0  0  0  0  0  0  0  0  0  0  0
   -3.7842   -5.5165    0.0000 C   0  0  0  0  0  0  0  0  0  0  0  0
   -2.3553   -5.5122    0.0000 C   0  0  0  0  0  0  0  0  0  0  0  0
    0.5202   -7.9757    0.0000 C   0  0  0  0  0  0  0  0  0  0  0  0
    1.2352   -8.3881    0.0000 C   0  0  0  0  0  0  0  0  0  0  0  0
    1.9479   -7.9741    0.0000 C   0  0  0  0  0  0  0  0  0  0  0  0
    1.9458   -7.1482    0.0000 C   0  0  0  0  0  0  0  0  0  0  0  0
    1.2250   -6.7381    0.0000 C   0  0  0  0  0  0  0  0  0  0  0  0
    0.5153   -7.1544    0.0000 C   0  0  0  0  0  0  0  0  0  0  0  0
    2.6635   -8.3847    0.0000 O   0  0  0  0  0  0  0  0  0  0  0  0
    1.2196   -5.9131    0.0000 O   0  0  0  0  0  0  0  0  0  0  0  0
   -3.7867   -4.6915    0.0000 C   0  0  0  0  0  0  0  0  0  0  0  0
   -4.5024   -4.2811    0.0000 C   0  0  0  0  0  0  0  0  0  0  0  0
   -4.5049   -3.4561    0.0000 C   0  0  0  0  0  0  0  0  0  0  0  0
   -5.2128   -3.0457    0.0000 C   0  0  0  0  0  0  0  0  0  0  0  0
   -3.7916   -3.0415    0.0000 C   0  0  0  0  0  0  0  0  0  0  0  0
 14 15  1  0
  3  8  2  0
 15 16  2  3
  1  2  2  0
 16 17  1  0
  7  4  2  0
 16 18  1  0
  4  1  1  0
 11 19  1  0
 19 20  2  0
  3  5  1  0
 20 21  1  0
  7 12  1  0
 21 22  2  0
  8  9  1  0
 22 23  1  0
  9 10  1  0
 23 24  2  0
 24 19  1  0
 10 11  1  0
 21 25  1  0
 11 12  1  0
 23 26  1  0
  2  3  1  0
 17 27  1  0
  9 13  2  0
 27 28  1  0
  1  6  1  0
 28 29  2  3
  4 14  1  0
 29 30  1  0
  7  8  1  0
 29 31  1  0
M  END
>  <Classification>  (236) 
0

>  <pchembl>  (236) 
4.81

>  <InChI_steorem>  (236) 
InChI=1S/C25H28O6/c1-14(2)5-4-6-15(3)7-8-19-20(28)12-21(29)24-22(30)13-23(31-25(19)24)16-9-17(26)11-18(27)10-16/h5,7,9-12,23,26-29H,4,6,8,13H2,1-3H3

>  <source>  (236) 
ChEMBL25

>  <source_id>  (236) 
25

>  <optional_reference>  (236) 
10.1021/np100797y

>  <optional_origin>  (236) 
None

>  <target>  (236) 
BCRP

$$$$

     RDKit          2D

 31 33  0  0  0  0  0  0  0  0999 V2000
    7.8777    0.3459    0.0000 C   0  0  0  0  0  0  0  0  0  0  0  0
    7.8766   -0.4815    0.0000 C   0  0  0  0  0  0  0  0  0  0  0  0
    8.5914   -0.8944    0.0000 C   0  0  0  0  0  0  0  0  0  0  0  0
    8.5896    0.7586    0.0000 C   0  0  0  0  0  0  0  0  0  0  0  0
    8.5912   -1.7194    0.0000 O   0  0  0  0  0  0  0  0  0  0  0  0
    7.1632    0.7582    0.0000 O   0  0  0  0  0  0  0  0  0  0  0  0
    9.3050    0.3495    0.0000 C   0  0  0  0  0  0  0  0  0  0  0  0
    9.3084   -0.4836    0.0000 C   0  0  0  0  0  0  0  0  0  0  0  0
   10.0276   -0.8949    0.0000 C   0  0  0  0  0  0  0  0  0  0  0  0
   10.7480   -0.4777    0.0000 C   0  0  0  0  0  0  0  0  0  0  0  0
   10.7445    0.3554    0.0000 C   0  0  0  0  0  0  0  0  0  0  0  0
   10.0207    0.7713    0.0000 O   0  0  0  0  0  0  0  0  0  0  0  0
   10.0298   -1.7199    0.0000 O   0  0  0  0  0  0  0  0  0  0  0  0
    8.5871    1.5836    0.0000 C   0  0  0  0  0  0  0  0  0  0  0  0
    7.8714    1.9940    0.0000 C   0  0  0  0  0  0  0  0  0  0  0  0
    7.8690    2.8190    0.0000 C   0  0  0  0  0  0  0  0  0  0  0  0
    7.1533    3.2294    0.0000 C   0  0  0  0  0  0  0  0  0  0  0  0
    8.5822    3.2336    0.0000 C   0  0  0  0  0  0  0  0  0  0  0  0
   11.4577    0.7701    0.0000 C   0  0  0  0  0  0  0  0  0  0  0  0
   12.1727    0.3578    0.0000 C   0  0  0  0  0  0  0  0  0  0  0  0
   12.8854    0.7718    0.0000 C   0  0  0  0  0  0  0  0  0  0  0  0
   12.8833    1.5977    0.0000 C   0  0  0  0  0  0  0  0  0  0  0  0
   12.1625    2.0078    0.0000 C   0  0  0  0  0  0  0  0  0  0  0  0
   11.4528    1.5914    0.0000 C   0  0  0  0  0  0  0  0  0  0  0  0
   13.6010    0.3611    0.0000 O   0  0  0  0  0  0  0  0  0  0  0  0
   12.1571    2.8328    0.0000 O   0  0  0  0  0  0  0  0  0  0  0  0
    7.1618   -0.8934    0.0000 C   0  0  0  0  0  0  0  0  0  0  0  0
    6.4476   -0.4804    0.0000 C   0  0  0  0  0  0  0  0  0  0  0  0
    5.7328   -0.8923    0.0000 C   0  0  0  0  0  0  0  0  0  0  0  0
    5.0187   -0.4792    0.0000 C   0  0  0  0  0  0  0  0  0  0  0  0
    5.7322   -1.7173    0.0000 C   0  0  0  0  0  0  0  0  0  0  0  0
 14 15  1  0
  3  8  2  0
 15 16  2  3
  1  2  2  0
 16 17  1  0
  7  4  2  0
 16 18  1  0
  4  1  1  0
 11 19  1  0
 19 20  2  0
  3  5  1  0
 20 21  1  0
  7 12  1  0
 21 22  2  0
  8  9  1  0
 22 23  1  0
  9 10  1  0
 23 24  2  0
 24 19  1  0
 10 11  1  0
 21 25  1  0
 11 12  1  0
 23 26  1  0
  2  3  1  0
  2 27  1  0
  9 13  2  0
 27 28  1  0
  1  6  1  0
 28 29  2  3
  4 14  1  0
 29 30  1  0
  7  8  1  0
 29 31  1  0
M  END
>  <Classification>  (237) 
1

>  <pchembl>  (237) 
5.39

>  <InChI_steorem>  (237) 
InChI=1S/C25H28O6/c1-13(2)5-7-18-23(29)19(8-6-14(3)4)25-22(24(18)30)20(28)12-21(31-25)15-9-16(26)11-17(27)10-15/h5-6,9-11,21,26-27,29-30H,7-8,12H2,1-4H3

>  <source>  (237) 
ChEMBL25

>  <source_id>  (237) 
25

>  <optional_reference>  (237) 
10.1021/np100797y

>  <optional_origin>  (237) 
None

>  <target>  (237) 
BCRP

$$$$

     RDKit          2D

 33 36  0  0  0  0  0  0  0  0999 V2000
   -2.9889  -11.7291    0.0000 C   0  0  0  0  0  0  0  0  0  0  0  0
   -2.9901  -12.5565    0.0000 C   0  0  0  0  0  0  0  0  0  0  0  0
   -2.2753  -12.9694    0.0000 C   0  0  0  0  0  0  0  0  0  0  0  0
   -2.2771  -11.3164    0.0000 C   0  0  0  0  0  0  0  0  0  0  0  0
   -2.2755  -13.7944    0.0000 O   0  0  0  0  0  0  0  0  0  0  0  0
   -3.7035  -11.3168    0.0000 O   0  0  0  0  0  0  0  0  0  0  0  0
   -1.5617  -11.7255    0.0000 C   0  0  0  0  0  0  0  0  0  0  0  0
   -1.5583  -12.5586    0.0000 C   0  0  0  0  0  0  0  0  0  0  0  0
   -0.8391  -12.9699    0.0000 C   0  0  0  0  0  0  0  0  0  0  0  0
   -0.1187  -12.5527    0.0000 C   0  0  0  0  0  0  0  0  0  0  0  0
   -0.1221  -11.7196    0.0000 C   0  0  0  0  0  0  0  0  0  0  0  0
   -0.8459  -11.3037    0.0000 O   0  0  0  0  0  0  0  0  0  0  0  0
   -0.8368  -13.7949    0.0000 O   0  0  0  0  0  0  0  0  0  0  0  0
    0.5911  -11.3049    0.0000 C   0  0  0  0  0  0  0  0  0  0  0  0
    1.3060  -11.7172    0.0000 C   0  0  0  0  0  0  0  0  0  0  0  0
    2.0187  -11.3032    0.0000 C   0  0  0  0  0  0  0  0  0  0  0  0
    2.0166  -10.4773    0.0000 C   0  0  0  0  0  0  0  0  0  0  0  0
    1.2959  -10.0672    0.0000 C   0  0  0  0  0  0  0  0  0  0  0  0
    0.5861  -10.4836    0.0000 C   0  0  0  0  0  0  0  0  0  0  0  0
    2.7343  -11.7139    0.0000 O   0  0  0  0  0  0  0  0  0  0  0  0
   -0.1310  -10.0758    0.0000 O   0  0  0  0  0  0  0  0  0  0  0  0
    2.7293  -10.0617    0.0000 O   0  0  0  0  0  0  0  0  0  0  0  0
    0.5969  -12.9632    0.0000 C   0  0  0  0  0  0  0  0  0  0  0  0
    1.3102  -12.5488    0.0000 C   0  0  0  0  0  0  0  0  0  0  0  0
    2.0258  -12.9593    0.0000 C   0  0  0  0  0  0  0  0  0  0  0  0
    2.7392  -12.5449    0.0000 C   0  0  0  0  0  0  0  0  0  0  0  0
   -2.2795  -10.4914    0.0000 C   0  0  0  0  0  0  0  0  0  0  0  0
   -2.9952  -10.0810    0.0000 C   0  0  0  0  0  0  0  0  0  0  0  0
   -3.7037  -10.4918    0.0000 C   0  0  0  0  0  0  0  0  0  0  0  0
   -4.1208   -9.7750    0.0000 C   0  0  0  0  0  0  0  0  0  0  0  0
   -4.4208  -10.9000    0.0000 C   0  0  0  0  0  0  0  0  0  0  0  0
    2.0281  -13.7843    0.0000 C   0  0  0  0  0  0  0  0  0  0  0  0
    2.7437  -14.1948    0.0000 O   0  0  0  0  0  0  0  0  0  0  0  0
  3  8  2  0
 15 16  2  0
  1  2  2  0
 16 17  1  0
  7  4  2  0
 17 18  2  0
  4  1  1  0
 18 19  1  0
 19 14  2  0
 16 20  1  0
  3  5  1  0
 19 21  1  0
  7 12  1  0
 17 22  1  0
  8  9  1  0
 10 23  1  0
  9 10  1  0
 23 24  1  0
 10 11  2  0
 24 25  2  3
 11 12  1  0
 25 26  1  0
  2  3  1  0
 25 32  1  0
  9 13  2  0
  4 27  1  0
  1  6  1  0
 27 28  2  0
 28 29  1  0
 11 14  1  0
  6 29  1  0
  7  8  1  0
 29 30  1  0
 14 15  1  0
 29 31  1  0
 32 33  1  0
M  END
>  <Classification>  (238) 
1

>  <pchembl>  (238) 
5.19

>  <InChI_steorem>  (238) 
InChI=1S/C25H24O8/c1-12(11-26)4-5-14-22(31)21-19(30)10-20-13(6-7-25(2,3)33-20)24(21)32-23(14)15-8-17(28)18(29)9-16(15)27/h4,6-10,26-30H,5,11H2,1-3H3

>  <source>  (238) 
ChEMBL25

>  <source_id>  (238) 
25

>  <optional_reference>  (238) 
10.1021/np100797y

>  <optional_origin>  (238) 
None

>  <target>  (238) 
BCRP

$$$$

     RDKit          2D

 45 51  0  0  0  0  0  0  0  0999 V2000
   -1.1755  -17.5333    0.0000 C   0  0  0  0  0  0  0  0  0  0  0  0
   -0.4635  -17.1250    0.0000 C   0  0  0  0  0  0  0  0  0  0  0  0
   -0.4635  -16.3000    0.0000 C   0  0  0  0  0  0  0  0  0  0  0  0
   -1.8875  -17.1250    0.0000 C   0  0  0  0  0  0  0  0  0  0  0  0
   -2.5980  -15.8898    0.0000 O   0  0  0  0  0  0  0  0  0  0  0  0
   -3.3131  -16.3000    0.0000 C   0  0  0  0  0  0  0  0  0  0  0  0
   -3.3131  -17.1250    0.0000 C   0  0  0  0  0  0  0  0  0  0  0  0
   -2.5980  -17.5398    0.0000 C   0  0  0  0  0  0  0  0  0  0  0  0
   -1.1755  -18.3583    0.0000 O   0  0  0  0  0  0  0  0  0  0  0  0
    0.2504  -17.5385    0.0000 O   0  0  0  0  0  0  0  0  0  0  0  0
    0.2492  -18.3635    0.0000 C   0  0  0  0  0  0  0  0  0  0  0  0
    0.9655  -16.3042    0.0000 C   0  0  0  0  0  0  0  0  0  0  0  0
   -4.0270  -15.8865    0.0000 C   0  0  0  0  0  0  0  0  0  0  0  0
   -4.0209  -15.0636    0.0000 C   0  0  0  0  0  0  0  0  0  0  0  0
   -4.7340  -14.6502    0.0000 C   0  0  0  0  0  0  0  0  0  0  0  0
   -5.4500  -15.0618    0.0000 C   0  0  0  0  0  0  0  0  0  0  0  0
   -5.4485  -15.8910    0.0000 C   0  0  0  0  0  0  0  0  0  0  0  0
   -4.7349  -16.3007    0.0000 C   0  0  0  0  0  0  0  0  0  0  0  0
   -1.1755  -15.0583    0.0000 C   0  0  0  0  0  0  0  0  0  0  0  0
   -0.4589  -14.6473    0.0000 C   0  0  0  0  0  0  0  0  0  0  0  0
   -0.4586  -13.8231    0.0000 C   0  0  0  0  0  0  0  0  0  0  0  0
   -1.8873  -14.6495    0.0000 C   0  0  0  0  0  0  0  0  0  0  0  0
   -1.8898  -16.2961    0.0000 C   0  0  0  0  0  0  0  0  0  0  0  0
   -1.1755  -15.8833    0.0000 C   0  0  0  0  0  0  0  0  0  0  0  0
   -2.2333  -15.4375    0.0000 O   0  0  0  0  0  0  0  0  0  0  0  0
   -1.8904  -13.8267    0.0000 C   0  0  0  0  0  0  0  0  0  0  0  0
   -1.1741  -13.4118    0.0000 C   0  0  0  0  0  0  0  0  0  0  0  0
   -1.1752  -12.5887    0.0000 O   0  0  0  0  0  0  0  0  0  0  0  0
   -1.8910  -12.1741    0.0000 C   0  0  0  0  0  0  0  0  0  0  0  0
   -2.6072  -12.5889    0.0000 C   0  0  0  0  0  0  0  0  0  0  0  0
   -2.6078  -13.4183    0.0000 C   0  0  0  0  0  0  0  0  0  0  0  0
   -1.8909  -11.3491    0.0000 C   0  0  0  0  0  0  0  0  0  0  0  0
   -1.1765  -10.9407    0.0000 C   0  0  0  0  0  0  0  0  0  0  0  0
   -1.1761  -10.1165    0.0000 C   0  0  0  0  0  0  0  0  0  0  0  0
   -1.8911   -9.7031    0.0000 C   0  0  0  0  0  0  0  0  0  0  0  0
   -2.6080  -10.1200    0.0000 C   0  0  0  0  0  0  0  0  0  0  0  0
   -2.6049  -10.9429    0.0000 C   0  0  0  0  0  0  0  0  0  0  0  0
   -3.3212  -13.8328    0.0000 O   0  0  0  0  0  0  0  0  0  0  0  0
    0.2556  -13.4100    0.0000 O   0  0  0  0  0  0  0  0  0  0  0  0
    0.9704  -13.8219    0.0000 C   0  0  0  0  0  0  0  0  0  0  0  0
    0.2549  -15.0609    0.0000 O   0  0  0  0  0  0  0  0  0  0  0  0
    0.2536  -15.8859    0.0000 O   0  0  0  0  0  0  0  0  0  0  0  0
    0.9700  -14.6496    0.0000 C   0  0  0  0  0  0  0  0  0  0  0  0
   -0.4667  -15.4667    0.0000 O   0  0  0  0  0  0  0  0  0  0  0  0
    0.3583  -15.4667    0.0000 C   0  0  0  0  0  0  0  0  0  0  0  0
  1  9  2  0
 20 21  2  0
 21 27  1  0
 26 22  1  0
 22 19  2  0
 23 24  1  0
  2 10  1  0
  4  1  1  0
 10 11  1  0
 23 25  1  0
 22 25  1  0
 26 27  2  0
  3 42  1  0
  1  2  1  0
 42 12  1  0
  2  3  2  0
  6 13  1  0
  3 24  1  0
 26 31  1  0
 27 28  1  0
 28 29  1  0
 29 30  1  0
 30 31  1  0
 13 14  2  0
 29 32  1  0
  4  8  2  0
 32 33  2  0
 14 15  1  0
 33 34  1  0
 23  5  1  0
 34 35  2  0
 15 16  2  0
 35 36  1  0
  5  6  1  0
 36 37  2  0
 37 32  1  0
 16 17  1  0
 31 38  1  0
  6  7  1  0
 21 39  1  0
 17 18  2  0
 39 40  1  0
 18 13  1  0
 20 41  1  0
  7  8  1  0
 24 19  1  0
 41 43  1  0
  4 23  1  0
 24 44  1  0
 19 20  1  0
 44 45  1  0
M  END
>  <Classification>  (239) 
0

>  <pchembl>  (239) 
4.96

>  <InChI_steorem>  (239) 
InChI=1S/C35H34O10/c1-38-30-26-28(25-22(36)18-24(20-14-10-7-11-15-20)43-29(25)32(30)40-3)45-35-21(16-17-23(44-35)19-12-8-6-9-13-19)27(37)31(39-2)33(41-4)34(26,35)42-5/h6-16,22-24,36H,17-18H2,1-5H3

>  <source>  (239) 
ChEMBL25

>  <source_id>  (239) 
25

>  <optional_reference>  (239) 
10.1016/j.bmc.2010.12.043

>  <optional_origin>  (239) 
None

>  <target>  (239) 
BCRP

$$$$

     RDKit          2D

 46 52  0  0  0  0  0  0  0  0999 V2000
    8.3245  -17.0083    0.0000 C   0  0  0  0  0  0  0  0  0  0  0  0
    9.0365  -16.6000    0.0000 C   0  0  0  0  0  0  0  0  0  0  0  0
    9.0365  -15.7750    0.0000 C   0  0  0  0  0  0  0  0  0  0  0  0
    7.6125  -16.6000    0.0000 C   0  0  0  0  0  0  0  0  0  0  0  0
    6.9020  -15.3648    0.0000 O   0  0  0  0  0  0  0  0  0  0  0  0
    6.1869  -15.7750    0.0000 C   0  0  0  0  0  0  0  0  0  0  0  0
    6.1869  -16.6000    0.0000 C   0  0  0  0  0  0  0  0  0  0  0  0
    6.9020  -17.0148    0.0000 C   0  0  0  0  0  0  0  0  0  0  0  0
    8.3245  -17.8333    0.0000 O   0  0  0  0  0  0  0  0  0  0  0  0
    9.7504  -17.0135    0.0000 O   0  0  0  0  0  0  0  0  0  0  0  0
    9.7492  -17.8385    0.0000 C   0  0  0  0  0  0  0  0  0  0  0  0
   10.4655  -15.7792    0.0000 C   0  0  0  0  0  0  0  0  0  0  0  0
    5.4730  -15.3615    0.0000 C   0  0  0  0  0  0  0  0  0  0  0  0
    5.4791  -14.5386    0.0000 C   0  0  0  0  0  0  0  0  0  0  0  0
    4.7660  -14.1252    0.0000 C   0  0  0  0  0  0  0  0  0  0  0  0
    4.0500  -14.5368    0.0000 C   0  0  0  0  0  0  0  0  0  0  0  0
    4.0515  -15.3660    0.0000 C   0  0  0  0  0  0  0  0  0  0  0  0
    4.7651  -15.7757    0.0000 C   0  0  0  0  0  0  0  0  0  0  0  0
    8.3245  -14.5333    0.0000 C   0  0  0  0  0  0  0  0  0  0  0  0
    9.0411  -14.1223    0.0000 C   0  0  0  0  0  0  0  0  0  0  0  0
    9.0414  -13.2981    0.0000 C   0  0  0  0  0  0  0  0  0  0  0  0
    7.6127  -14.1245    0.0000 C   0  0  0  0  0  0  0  0  0  0  0  0
    7.6102  -15.7711    0.0000 C   0  0  0  0  0  0  0  0  0  0  0  0
    8.3245  -15.3583    0.0000 C   0  0  0  0  0  0  0  0  0  0  0  0
    7.2667  -14.9125    0.0000 O   0  0  0  0  0  0  0  0  0  0  0  0
    7.6096  -13.3017    0.0000 C   0  0  0  0  0  0  0  0  0  0  0  0
    8.3259  -12.8868    0.0000 C   0  0  0  0  0  0  0  0  0  0  0  0
    8.3248  -12.0637    0.0000 O   0  0  0  0  0  0  0  0  0  0  0  0
    7.6090  -11.6491    0.0000 C   0  0  0  0  0  0  0  0  0  0  0  0
    6.8928  -12.0639    0.0000 C   0  0  0  0  0  0  0  0  0  0  0  0
    6.8922  -12.8933    0.0000 C   0  0  0  0  0  0  0  0  0  0  0  0
    7.6091  -10.8241    0.0000 C   0  0  0  0  0  0  0  0  0  0  0  0
    8.3235  -10.4157    0.0000 C   0  0  0  0  0  0  0  0  0  0  0  0
    8.3239   -9.5915    0.0000 C   0  0  0  0  0  0  0  0  0  0  0  0
    7.6089   -9.1781    0.0000 C   0  0  0  0  0  0  0  0  0  0  0  0
    6.8920   -9.5950    0.0000 C   0  0  0  0  0  0  0  0  0  0  0  0
    6.8951  -10.4179    0.0000 C   0  0  0  0  0  0  0  0  0  0  0  0
    6.1788  -13.3078    0.0000 O   0  0  0  0  0  0  0  0  0  0  0  0
    9.7556  -12.8850    0.0000 O   0  0  0  0  0  0  0  0  0  0  0  0
   10.4704  -13.2969    0.0000 C   0  0  0  0  0  0  0  0  0  0  0  0
    9.7549  -14.5359    0.0000 O   0  0  0  0  0  0  0  0  0  0  0  0
    9.7536  -15.3609    0.0000 O   0  0  0  0  0  0  0  0  0  0  0  0
   10.4700  -14.1246    0.0000 C   0  0  0  0  0  0  0  0  0  0  0  0
    9.0333  -14.9417    0.0000 O   0  0  0  0  0  0  0  0  0  0  0  0
    9.8583  -14.9417    0.0000 C   0  0  0  0  0  0  0  0  0  0  0  0
    5.4632  -12.8972    0.0000 C   0  0  0  0  0  0  0  0  0  0  0  0
 20 21  2  0
 21 27  1  0
 26 22  1  0
 22 19  2  0
 23 24  1  0
  2 10  1  0
  4  1  1  0
 10 11  1  0
 23 25  1  0
 22 25  1  0
 26 27  2  0
  3 42  1  0
  1  2  1  0
 42 12  1  0
  2  3  2  0
  6 13  1  0
  3 24  1  0
 26 31  1  0
 27 28  1  0
 28 29  1  0
 29 30  1  0
 30 31  1  0
 13 14  2  0
 29 32  1  0
  4  8  2  0
 32 33  2  0
 14 15  1  0
 33 34  1  0
 23  5  1  0
 34 35  2  0
 15 16  2  0
 35 36  1  0
  5  6  1  0
 36 37  2  0
 37 32  1  0
 16 17  1  0
 31 38  1  0
  6  7  1  0
 21 39  1  0
 17 18  2  0
 39 40  1  0
 18 13  1  0
 20 41  1  0
  7  8  1  0
 24 19  1  0
 41 43  1  0
  4 23  1  0
 24 44  1  0
 19 20  1  0
 44 45  1  0
  1  9  2  0
 38 46  1  0
M  END
>  <Classification>  (240) 
0

>  <pchembl>  (240) 
4.8

>  <InChI_steorem>  (240) 
InChI=1S/C36H36O10/c1-38-25-19-24(21-15-11-8-12-16-21)44-30-26(25)29-27(31(39-2)33(30)41-4)35(43-6)34(42-5)32(40-3)28(37)22-17-18-23(45-36(22,35)46-29)20-13-9-7-10-14-20/h7-17,23-25H,18-19H2,1-6H3

>  <source>  (240) 
ChEMBL25

>  <source_id>  (240) 
25

>  <optional_reference>  (240) 
10.1016/j.bmc.2010.12.043

>  <optional_origin>  (240) 
None

>  <target>  (240) 
BCRP

$$$$

     RDKit          2D

 47 53  0  0  0  0  0  0  0  0999 V2000
   15.3771  -15.1683    0.0000 C   0  0  0  0  0  0  0  0  0  0  0  0
   15.3771  -15.9954    0.0000 C   0  0  0  0  0  0  0  0  0  0  0  0
   16.0910  -16.4048    0.0000 C   0  0  0  0  0  0  0  0  0  0  0  0
   16.8048  -15.1683    0.0000 C   0  0  0  0  0  0  0  0  0  0  0  0
   16.8013  -15.9954    0.0000 C   0  0  0  0  0  0  0  0  0  0  0  0
   17.5119  -16.4097    0.0000 C   0  0  0  0  0  0  0  0  0  0  0  0
   18.2306  -16.0014    0.0000 C   0  0  0  0  0  0  0  0  0  0  0  0
   17.5073  -17.2368    0.0000 O   0  0  0  0  0  0  0  0  0  0  0  0
   17.5190  -14.7554    0.0000 C   0  0  0  0  0  0  0  0  0  0  0  0
   18.2315  -15.1705    0.0000 C   0  0  0  0  0  0  0  0  0  0  0  0
   18.8465  -14.6211    0.0000 O   0  0  0  0  0  0  0  0  0  0  0  0
   17.6935  -13.9496    0.0000 C   0  0  0  0  0  0  0  0  0  0  0  0
   18.5108  -13.8688    0.0000 C   0  0  0  0  0  0  0  0  0  0  0  0
   17.5487  -12.5402    0.0000 C   0  0  0  0  0  0  0  0  0  0  0  0
   17.2154  -13.2873    0.0000 C   0  0  0  0  0  0  0  0  0  0  0  0
   18.3687  -12.4552    0.0000 C   0  0  0  0  0  0  0  0  0  0  0  0
   18.8445  -13.1236    0.0000 C   0  0  0  0  0  0  0  0  0  0  0  0
   19.6567  -13.0462    0.0000 C   0  0  0  0  0  0  0  0  0  0  0  0
   19.9995  -12.3016    0.0000 C   0  0  0  0  0  0  0  0  0  0  0  0
   19.5237  -11.6332    0.0000 C   0  0  0  0  0  0  0  0  0  0  0  0
   18.7052  -11.7095    0.0000 O   0  0  0  0  0  0  0  0  0  0  0  0
   19.8683  -10.8812    0.0000 C   0  0  0  0  0  0  0  0  0  0  0  0
   20.6900  -10.8071    0.0000 C   0  0  0  0  0  0  0  0  0  0  0  0
   21.0345  -10.0559    0.0000 C   0  0  0  0  0  0  0  0  0  0  0  0
   20.5555   -9.3806    0.0000 C   0  0  0  0  0  0  0  0  0  0  0  0
   19.7280   -9.4612    0.0000 C   0  0  0  0  0  0  0  0  0  0  0  0
   19.3872  -10.2125    0.0000 C   0  0  0  0  0  0  0  0  0  0  0  0
   20.1353  -13.7208    0.0000 O   0  0  0  0  0  0  0  0  0  0  0  0
   17.0633  -11.8705    0.0000 O   0  0  0  0  0  0  0  0  0  0  0  0
   17.4005  -11.1153    0.0000 C   0  0  0  0  0  0  0  0  0  0  0  0
   16.0919  -17.2319    0.0000 O   0  0  0  0  0  0  0  0  0  0  0  0
   15.3760  -17.6463    0.0000 C   0  0  0  0  0  0  0  0  0  0  0  0
   14.6596  -14.7568    0.0000 C   0  0  0  0  0  0  0  0  0  0  0  0
   14.6610  -13.9307    0.0000 C   0  0  0  0  0  0  0  0  0  0  0  0
   13.9442  -13.5192    0.0000 C   0  0  0  0  0  0  0  0  0  0  0  0
   13.2282  -13.9350    0.0000 C   0  0  0  0  0  0  0  0  0  0  0  0
   13.2333  -14.7664    0.0000 C   0  0  0  0  0  0  0  0  0  0  0  0
   13.9506  -15.1740    0.0000 C   0  0  0  0  0  0  0  0  0  0  0  0
   16.3927  -13.3723    0.0000 O   0  0  0  0  0  0  0  0  0  0  0  0
   15.9077  -12.7021    0.0000 C   0  0  0  0  0  0  0  0  0  0  0  0
   18.9446  -15.5819    0.0000 O   0  0  0  0  0  0  0  0  0  0  0  0
   16.7975  -14.3412    0.0000 O   0  0  0  0  0  0  0  0  0  0  0  0
   16.0822  -14.7563    0.0000 O   0  0  0  0  0  0  0  0  0  0  0  0
   15.9704  -14.3370    0.0000 C   0  0  0  0  0  0  0  0  0  0  0  0
   19.6608  -15.1680    0.0000 C   0  0  0  0  0  0  0  0  0  0  0  0
   18.9452  -16.4179    0.0000 O   0  0  0  0  0  0  0  0  0  0  0  0
   18.9419  -17.2451    0.0000 C   0  0  0  0  0  0  0  0  0  0  0  0
 20 21  1  0
  4 43  1  0
 20 22  1  0
  4  5  2  0
 22 23  2  0
  1  2  1  0
 23 24  1  0
 10 11  1  0
 24 25  2  0
 11 13  1  0
 25 26  1  0
 12  9  1  0
 26 27  2  0
 27 22  1  0
 18 28  1  0
  1 43  1  0
 14 29  1  0
 12 13  2  0
 29 30  1  0
 13 17  1  0
  3 31  1  0
  2  3  1  0
 31 32  1  0
 16 14  1  0
  1 33  1  0
  4  9  1  0
 33 34  2  0
 14 15  2  0
 34 35  1  0
 15 12  1  0
 35 36  2  0
 16 17  2  0
 36 37  1  0
  5  6  1  0
 37 38  2  0
 38 33  1  0
  6  7  1  0
 15 39  1  0
  7 10  1  0
 39 40  1  0
  3  5  1  0
 10 41  1  0
  6  8  2  0
  9 42  1  0
  9 10  1  0
 16 21  1  0
 42 44  1  0
 17 18  1  0
 41 45  1  0
 18 19  1  0
  7 46  1  0
 19 20  1  0
 46 47  1  0
M  END
>  <Classification>  (241) 
0

>  <pchembl>  (241) 
4.54

>  <InChI_steorem>  (241) 
InChI=1S/C36H38O11/c1-39-24-18-23(20-15-11-8-12-16-20)46-33-26(24)28(38)34(42-4)36(44-6)35(33,43-5)27-29(47-36)25-21(37)17-22(19-13-9-7-10-14-19)45-30(25)32(41-3)31(27)40-2/h7-16,21-24,34,37H,17-18H2,1-6H3

>  <source>  (241) 
ChEMBL25

>  <source_id>  (241) 
25

>  <optional_reference>  (241) 
10.1016/j.bmc.2010.12.043

>  <optional_origin>  (241) 
None

>  <target>  (241) 
BCRP

$$$$

     RDKit          2D

 23 25  0  0  0  0  0  0  0  0999 V2000
    3.9537   -3.7594    0.0000 O   0  0  0  0  0  0  0  0  0  0  0  0
    5.5955   -6.6007    0.0000 N   0  0  0  0  0  0  0  0  0  0  0  0
    3.1329   -3.7594    0.0000 C   0  0  0  0  0  0  0  0  0  0  0  0
    5.1830   -4.4697    0.0000 C   0  0  0  0  0  0  0  0  0  0  0  0
    3.9537   -5.1801    0.0000 C   0  0  0  0  0  0  0  0  0  0  0  0
    5.1830   -5.8904    0.0000 C   0  0  0  0  0  0  0  0  0  0  0  0
    6.8247   -4.4697    0.0000 N   0  0  0  0  0  0  0  0  0  0  0  0
    2.7204   -5.8904    0.0000 C   0  0  0  0  0  0  0  0  0  0  0  0
    3.1329   -5.1801    0.0000 O   0  0  0  0  0  0  0  0  0  0  0  0
    6.4163   -6.6007    0.0000 C   0  0  0  0  0  0  0  0  0  0  0  0
    6.4163   -5.1801    0.0000 C   0  0  0  0  0  0  0  0  0  0  0  0
    5.5955   -5.1801    0.0000 C   0  0  0  0  0  0  0  0  0  0  0  0
    6.8247   -5.8904    0.0000 N   0  0  0  0  0  0  0  0  0  0  0  0
    4.3621   -4.4697    0.0000 C   0  0  0  0  0  0  0  0  0  0  0  0
    4.3621   -5.8904    0.0000 C   0  0  0  0  0  0  0  0  0  0  0  0
    7.6419   -4.4682    0.0000 C   0  0  0  0  0  0  0  0  0  0  0  0
    8.0466   -5.1765    0.0000 C   0  0  0  0  0  0  0  0  0  0  0  0
    8.8631   -5.1753    0.0000 C   0  0  0  0  0  0  0  0  0  0  0  0
    9.2712   -4.4663    0.0000 C   0  0  0  0  0  0  0  0  0  0  0  0
    8.8569   -3.7570    0.0000 C   0  0  0  0  0  0  0  0  0  0  0  0
    8.0418   -3.7617    0.0000 C   0  0  0  0  0  0  0  0  0  0  0  0
    9.2726   -5.8824    0.0000 C   0  0  0  0  0  0  0  0  0  0  0  0
    9.6817   -6.5862    0.0000 N   0  0  0  0  0  0  0  0  0  0  0  0
  4 14  2  0
  1  3  1  0
 10 13  2  0
 14  5  1  0
 14  1  1  0
  5  9  1  0
 15  6  1  0
 13 11  1  0
  9  8  1  0
 11  7  1  0
 11 12  2  0
  2  6  2  0
  5 15  2  0
 12  6  1  0
 12  4  1  0
  2 10  1  0
  7 16  1  0
 16 17  2  0
 17 18  1  0
 18 19  2  0
 19 20  1  0
 20 21  2  0
 21 16  1  0
 18 22  1  0
 22 23  3  0
M  END
>  <Classification>  (242) 
1

>  <pchembl>  (242) 
6.03

>  <InChI_steorem>  (242) 
InChI=1S/C17H14N4O2/c1-22-15-7-13-14(8-16(15)23-2)19-10-20-17(13)21-12-5-3-4-11(6-12)9-18/h3-8,10H,1-2H3,(H,19,20,21)

>  <source>  (242) 
ChEMBL25

>  <source_id>  (242) 
25

>  <optional_reference>  (242) 
10.1016/j.bmc.2013.10.007

>  <optional_origin>  (242) 
None

>  <target>  (242) 
BCRP

$$$$

     RDKit          2D

 24 26  0  0  0  0  0  0  0  0999 V2000
   12.3651   -9.6248    0.0000 C   0  0  0  0  0  0  0  0  0  0  0  0
   12.3651  -10.4420    0.0000 C   0  0  0  0  0  0  0  0  0  0  0  0
   13.0717  -10.8506    0.0000 O   0  0  0  0  0  0  0  0  0  0  0  0
   11.6584  -10.8506    0.0000 C   0  0  0  0  0  0  0  0  0  0  0  0
   11.6584  -11.6678    0.0000 O   0  0  0  0  0  0  0  0  0  0  0  0
   10.9517  -10.4420    0.0000 C   0  0  0  0  0  0  0  0  0  0  0  0
   10.2409  -10.8506    0.0000 C   0  0  0  0  0  0  0  0  0  0  0  0
   10.2409  -11.6678    0.0000 O   0  0  0  0  0  0  0  0  0  0  0  0
    9.5342  -10.4420    0.0000 C   0  0  0  0  0  0  0  0  0  0  0  0
    9.5342   -9.6248    0.0000 C   0  0  0  0  0  0  0  0  0  0  0  0
    8.8275   -9.2162    0.0000 O   0  0  0  0  0  0  0  0  0  0  0  0
   10.2409   -9.2162    0.0000 C   0  0  0  0  0  0  0  0  0  0  0  0
   10.9517   -9.6248    0.0000 C   0  0  0  0  0  0  0  0  0  0  0  0
   11.6584   -9.2162    0.0000 O   0  0  0  0  0  0  0  0  0  0  0  0
   13.0717   -9.2162    0.0000 C   0  0  0  0  0  0  0  0  0  0  0  0
   13.0717   -8.3990    0.0000 C   0  0  0  0  0  0  0  0  0  0  0  0
   13.7826   -7.9904    0.0000 C   0  0  0  0  0  0  0  0  0  0  0  0
   14.4892   -8.3990    0.0000 C   0  0  0  0  0  0  0  0  0  0  0  0
   15.1959   -7.9904    0.0000 O   0  0  0  0  0  0  0  0  0  0  0  0
   14.4892   -9.2162    0.0000 C   0  0  0  0  0  0  0  0  0  0  0  0
   13.7826   -9.6248    0.0000 C   0  0  0  0  0  0  0  0  0  0  0  0
   15.9026   -8.3990    0.0000 C   0  0  0  0  0  0  0  0  0  0  0  0
    8.1208   -9.6248    0.0000 C   0  0  0  0  0  0  0  0  0  0  0  0
    9.5342  -12.0763    0.0000 C   0  0  0  0  0  0  0  0  0  0  0  0
  1  2  2  0
  2  3  1  0
  2  4  1  0
  4  5  2  0
  4  6  1  0
  6  7  2  0
  7  8  1  0
  7  9  1  0
  9 10  2  0
 10 11  1  0
 10 12  1  0
 12 13  2  0
  6 13  1  0
 13 14  1  0
  1 14  1  0
  1 15  1  0
 15 16  2  0
 16 17  1  0
 17 18  2  0
 18 19  1  0
 18 20  1  0
 20 21  2  0
 15 21  1  0
 19 22  1  0
 11 23  1  0
  8 24  1  0
M  END
>  <Classification>  (243) 
1

>  <pchembl>  (243) 
5.05

>  <InChI_steorem>  (243) 
InChI=1S/C18H16O6/c1-21-11-6-4-10(5-7-11)18-17(20)16(19)15-13(23-3)8-12(22-2)9-14(15)24-18/h4-9,20H,1-3H3

>  <source>  (243) 
ChEMBL25

>  <source_id>  (243) 
25

>  <optional_reference>  (243) 
10.1016/j.ejmech.2013.06.035

>  <optional_origin>  (243) 
None

>  <target>  (243) 
BCRP

$$$$

     RDKit          2D

 40 45  0  0  0  0  0  0  0  0999 V2000
   12.4251   -6.7723    0.0000 C   0  0  0  0  0  0  0  0  0  0  0  0
   10.2989   -6.3547    0.0000 C   0  0  0  0  0  0  0  0  0  0  0  0
   10.2948   -7.9919    0.0000 N   0  0  0  0  0  0  0  0  0  0  0  0
   12.4203   -7.5879    0.0000 C   0  0  0  0  0  0  0  0  0  0  0  0
    9.5903   -6.7610    0.0000 C   0  0  0  0  0  0  0  0  0  0  0  0
    9.5863   -7.5836    0.0000 C   0  0  0  0  0  0  0  0  0  0  0  0
   11.7193   -6.3561    0.0000 C   0  0  0  0  0  0  0  0  0  0  0  0
   11.0028   -7.5860    0.0000 C   0  0  0  0  0  0  0  0  0  0  0  0
   11.7097   -7.9981    0.0000 C   0  0  0  0  0  0  0  0  0  0  0  0
   11.0028   -6.7666    0.0000 C   0  0  0  0  0  0  0  0  0  0  0  0
   13.1359   -6.3691    0.0000 C   0  0  0  0  0  0  0  0  0  0  0  0
   12.4467  -10.0624    0.0000 C   0  0  0  0  0  0  0  0  0  0  0  0
    8.1852   -9.2762    0.0000 C   0  0  0  0  0  0  0  0  0  0  0  0
   10.3208  -10.4915    0.0000 C   0  0  0  0  0  0  0  0  0  0  0  0
   13.8493   -6.7720    0.0000 N   0  0  0  0  0  0  0  0  0  0  0  0
   13.8555   -7.5930    0.0000 C   0  0  0  0  0  0  0  0  0  0  0  0
   13.1503   -8.0100    0.0000 C   0  0  0  0  0  0  0  0  0  0  0  0
    7.4846  -10.5132    0.0000 C   0  0  0  0  0  0  0  0  0  0  0  0
   11.7409  -10.4786    0.0000 C   0  0  0  0  0  0  0  0  0  0  0  0
   11.0277  -10.0728    0.0000 C   0  0  0  0  0  0  0  0  0  0  0  0
   11.0208   -9.2464    0.0000 C   0  0  0  0  0  0  0  0  0  0  0  0
   15.2808   -7.5861    0.0000 C   0  0  0  0  0  0  0  0  0  0  0  0
   13.1296   -5.5482    0.0000 O   0  0  0  0  0  0  0  0  0  0  0  0
   14.5726   -8.0024    0.0000 C   0  0  0  0  0  0  0  0  0  0  0  0
   15.2763   -6.7653    0.0000 O   0  0  0  0  0  0  0  0  0  0  0  0
   14.5754   -8.8243    0.0000 C   0  0  0  0  0  0  0  0  0  0  0  0
   12.4438   -9.2391    0.0000 C   0  0  0  0  0  0  0  0  0  0  0  0
   15.9933   -7.9949    0.0000 O   0  0  0  0  0  0  0  0  0  0  0  0
    7.4739   -8.8722    0.0000 C   0  0  0  0  0  0  0  0  0  0  0  0
    8.8927   -8.8647    0.0000 C   0  0  0  0  0  0  0  0  0  0  0  0
   13.8672   -9.2348    0.0000 C   0  0  0  0  0  0  0  0  0  0  0  0
    6.7613   -9.2845    0.0000 C   0  0  0  0  0  0  0  0  0  0  0  0
    8.1885  -10.0975    0.0000 C   0  0  0  0  0  0  0  0  0  0  0  0
   16.7015   -7.5786    0.0000 C   0  0  0  0  0  0  0  0  0  0  0  0
   13.1549   -8.8276    0.0000 C   0  0  0  0  0  0  0  0  0  0  0  0
   11.7312   -8.8338    0.0000 C   0  0  0  0  0  0  0  0  0  0  0  0
    8.9028  -10.5085    0.0000 C   0  0  0  0  0  0  0  0  0  0  0  0
    6.7686  -10.1089    0.0000 C   0  0  0  0  0  0  0  0  0  0  0  0
    9.6026   -9.2668    0.0000 C   0  0  0  0  0  0  0  0  0  0  0  0
    9.6070  -10.0851    0.0000 N   0  0  0  0  0  0  0  0  0  0  0  0
  7  1  2  0
  6  5  1  0
  5  2  2  0
  3  6  2  0
 10  8  2  0
  2 10  1  0
  4  9  2  0
  1  4  1  0
  9  8  1  0
  8  3  1  0
 10  7  1  0
  1 11  1  0
 35 31  1  0
 17 35  2  0
 30 13  1  0
 26 24  1  0
 22 28  1  0
 14 40  1  0
 16 17  1  0
 22 25  2  0
 24 22  1  0
 36 21  1  0
 16 15  1  0
 20 19  1  0
 21 20  2  0
 19 12  2  0
 40 39  1  0
 24 16  2  0
 15 11  1  0
 38 18  2  0
 32 38  1  0
 11 23  2  0
 27 36  2  0
 28 34  1  0
 13 29  1  0
 33 13  2  0
 18 33  1  0
 40 37  1  0
 27 35  1  0
 33 37  1  0
 12 27  1  0
 29 32  2  0
 31 26  2  0
 39 30  1  0
 20 14  1  0
M  END
>  <Classification>  (244) 
1

>  <pchembl>  (244) 
6.19

>  <InChI_steorem>  (244) 
InChI=1S/C34H29N3O3/c1-40-34(39)30-14-12-26(20-32(30)36-33(38)28-13-15-31-27(19-28)7-4-17-35-31)25-10-8-23(9-11-25)21-37-18-16-24-5-2-3-6-29(24)22-37/h2-15,17,19-20H,16,18,21-22H2,1H3,(H,36,38)

>  <source>  (244) 
ChEMBL25

>  <source_id>  (244) 
25

>  <optional_reference>  (244) 
10.1021/ml4000832

>  <optional_origin>  (244) 
None

>  <target>  (244) 
BCRP

$$$$

     RDKit          2D

 40 45  0  0  0  0  0  0  0  0999 V2000
   24.7362   -9.2745    0.0000 C   0  0  0  0  0  0  0  0  0  0  0  0
   24.7350  -10.1026    0.0000 C   0  0  0  0  0  0  0  0  0  0  0  0
   25.4504  -10.5157    0.0000 C   0  0  0  0  0  0  0  0  0  0  0  0
   26.1675  -10.1021    0.0000 C   0  0  0  0  0  0  0  0  0  0  0  0
   26.1646   -9.2708    0.0000 C   0  0  0  0  0  0  0  0  0  0  0  0
   25.4486   -8.8614    0.0000 C   0  0  0  0  0  0  0  0  0  0  0  0
   26.8781   -8.8553    0.0000 C   0  0  0  0  0  0  0  0  0  0  0  0
   27.5947   -9.2655    0.0000 N   0  0  0  0  0  0  0  0  0  0  0  0
   27.5952  -10.0883    0.0000 C   0  0  0  0  0  0  0  0  0  0  0  0
   28.3077  -10.4984    0.0000 C   0  0  0  0  0  0  0  0  0  0  0  0
   28.3055   -8.8451    0.0000 C   0  0  0  0  0  0  0  0  0  0  0  0
   29.0226   -9.2597    0.0000 C   0  0  0  0  0  0  0  0  0  0  0  0
   29.0220  -10.0858    0.0000 C   0  0  0  0  0  0  0  0  0  0  0  0
   29.7360  -10.4977    0.0000 C   0  0  0  0  0  0  0  0  0  0  0  0
   30.4511  -10.0845    0.0000 C   0  0  0  0  0  0  0  0  0  0  0  0
   30.4477   -9.2552    0.0000 C   0  0  0  0  0  0  0  0  0  0  0  0
   29.7331   -8.8472    0.0000 C   0  0  0  0  0  0  0  0  0  0  0  0
   24.0215  -10.5151    0.0000 C   0  0  0  0  0  0  0  0  0  0  0  0
   23.3065  -10.1000    0.0000 C   0  0  0  0  0  0  0  0  0  0  0  0
   22.5916  -10.5116    0.0000 C   0  0  0  0  0  0  0  0  0  0  0  0
   22.5904  -11.3381    0.0000 C   0  0  0  0  0  0  0  0  0  0  0  0
   23.3103  -11.7514    0.0000 C   0  0  0  0  0  0  0  0  0  0  0  0
   24.0222  -11.3374    0.0000 C   0  0  0  0  0  0  0  0  0  0  0  0
   21.8756  -11.7514    0.0000 C   0  0  0  0  0  0  0  0  0  0  0  0
   21.1603  -11.3389    0.0000 O   0  0  0  0  0  0  0  0  0  0  0  0
   21.8761  -12.5771    0.0000 O   0  0  0  0  0  0  0  0  0  0  0  0
   20.4454  -11.7522    0.0000 C   0  0  0  0  0  0  0  0  0  0  0  0
   23.3125  -12.5771    0.0000 N   0  0  0  0  0  0  0  0  0  0  0  0
   24.0287  -12.9880    0.0000 C   0  0  0  0  0  0  0  0  0  0  0  0
   24.0310  -13.8137    0.0000 O   0  0  0  0  0  0  0  0  0  0  0  0
   24.7426  -12.5731    0.0000 C   0  0  0  0  0  0  0  0  0  0  0  0
   25.4579  -12.9878    0.0000 N   0  0  0  0  0  0  0  0  0  0  0  0
   25.4483  -11.3364    0.0000 C   0  0  0  0  0  0  0  0  0  0  0  0
   24.7379  -11.7528    0.0000 C   0  0  0  0  0  0  0  0  0  0  0  0
   26.1695  -11.7470    0.0000 C   0  0  0  0  0  0  0  0  0  0  0  0
   26.1695  -12.5713    0.0000 C   0  0  0  0  0  0  0  0  0  0  0  0
   26.8823  -12.9816    0.0000 C   0  0  0  0  0  0  0  0  0  0  0  0
   27.5954  -12.5689    0.0000 C   0  0  0  0  0  0  0  0  0  0  0  0
   27.5914  -11.7415    0.0000 C   0  0  0  0  0  0  0  0  0  0  0  0
   26.8781  -11.3349    0.0000 C   0  0  0  0  0  0  0  0  0  0  0  0
  1  2  2  0
  2  3  1  0
  3  4  2  0
  4  5  1  0
  5  6  2  0
  6  1  1  0
  5  7  1  0
  7  8  1  0
  8  9  1  0
  8 11  1  0
  9 10  1  0
 10 13  1  0
 12 11  1  0
 12 13  2  0
 13 14  1  0
 14 15  2  0
 15 16  1  0
 16 17  2  0
 17 12  1  0
 18 19  2  0
 19 20  1  0
 20 21  2  0
 21 22  1  0
 22 23  2  0
 23 18  1  0
  2 18  1  0
 21 24  1  0
 24 25  1  0
 24 26  2  0
 25 27  1  0
 22 28  1  0
 28 29  1  0
 29 30  2  0
 29 31  1  0
 31 32  2  0
 32 36  1  0
 35 33  1  0
 33 34  2  0
 34 31  1  0
 35 36  2  0
 36 37  1  0
 37 38  2  0
 38 39  1  0
 39 40  2  0
 40 35  1  0
M  END
>  <Classification>  (245) 
1

>  <pchembl>  (245) 
5.83

>  <InChI_steorem>  (245) 
InChI=1S/C34H29N3O3/c1-40-34(39)29-16-14-27(20-32(29)36-33(38)31-17-15-26-7-4-5-9-30(26)35-31)25-12-10-23(11-13-25)21-37-19-18-24-6-2-3-8-28(24)22-37/h2-17,20H,18-19,21-22H2,1H3,(H,36,38)

>  <source>  (245) 
ChEMBL25

>  <source_id>  (245) 
25

>  <optional_reference>  (245) 
10.1021/ml4000832

>  <optional_origin>  (245) 
None

>  <target>  (245) 
BCRP

$$$$

     RDKit          2D

 41 46  0  0  0  0  0  0  0  0999 V2000
    6.8311   -1.0271    0.0000 C   0  0  0  0  0  0  0  0  0  0  0  0
    6.8315   -1.8415    0.0000 N   0  0  0  0  0  0  0  0  0  0  0  0
    7.5367   -2.2473    0.0000 C   0  0  0  0  0  0  0  0  0  0  0  0
    7.5345   -0.6111    0.0000 C   0  0  0  0  0  0  0  0  0  0  0  0
    8.2442   -1.0214    0.0000 C   0  0  0  0  0  0  0  0  0  0  0  0
    8.2436   -1.8390    0.0000 C   0  0  0  0  0  0  0  0  0  0  0  0
    8.9502   -2.2466    0.0000 C   0  0  0  0  0  0  0  0  0  0  0  0
    9.6580   -1.8377    0.0000 C   0  0  0  0  0  0  0  0  0  0  0  0
    9.6546   -1.0169    0.0000 C   0  0  0  0  0  0  0  0  0  0  0  0
    8.9474   -0.6131    0.0000 C   0  0  0  0  0  0  0  0  0  0  0  0
    3.2962   -2.2617    0.0000 C   0  0  0  0  0  0  0  0  0  0  0  0
    3.2951   -3.0812    0.0000 C   0  0  0  0  0  0  0  0  0  0  0  0
    4.0031   -3.4902    0.0000 C   0  0  0  0  0  0  0  0  0  0  0  0
    4.7128   -3.0807    0.0000 C   0  0  0  0  0  0  0  0  0  0  0  0
    4.7100   -2.2581    0.0000 C   0  0  0  0  0  0  0  0  0  0  0  0
    4.0014   -1.8528    0.0000 C   0  0  0  0  0  0  0  0  0  0  0  0
    5.4161   -1.8468    0.0000 C   0  0  0  0  0  0  0  0  0  0  0  0
    2.5890   -3.4895    0.0000 C   0  0  0  0  0  0  0  0  0  0  0  0
    1.8813   -3.0787    0.0000 C   0  0  0  0  0  0  0  0  0  0  0  0
    1.1737   -3.4860    0.0000 C   0  0  0  0  0  0  0  0  0  0  0  0
    1.1727   -4.3041    0.0000 C   0  0  0  0  0  0  0  0  0  0  0  0
    1.8850   -4.7131    0.0000 C   0  0  0  0  0  0  0  0  0  0  0  0
    2.5896   -4.3034    0.0000 C   0  0  0  0  0  0  0  0  0  0  0  0
    0.4652   -4.7131    0.0000 C   0  0  0  0  0  0  0  0  0  0  0  0
   -0.2442   -4.3049    0.0000 O   0  0  0  0  0  0  0  0  0  0  0  0
    0.4656   -5.5303    0.0000 O   0  0  0  0  0  0  0  0  0  0  0  0
   -0.9565   -4.7138    0.0000 C   0  0  0  0  0  0  0  0  0  0  0  0
    1.8872   -5.5303    0.0000 N   0  0  0  0  0  0  0  0  0  0  0  0
    2.5961   -5.9369    0.0000 C   0  0  0  0  0  0  0  0  0  0  0  0
    2.5983   -6.7541    0.0000 O   0  0  0  0  0  0  0  0  0  0  0  0
    3.3027   -5.5264    0.0000 C   0  0  0  0  0  0  0  0  0  0  0  0
    4.0106   -5.9367    0.0000 N   0  0  0  0  0  0  0  0  0  0  0  0
    4.0011   -4.3023    0.0000 C   0  0  0  0  0  0  0  0  0  0  0  0
    3.2979   -4.7145    0.0000 C   0  0  0  0  0  0  0  0  0  0  0  0
    4.7149   -4.7088    0.0000 C   0  0  0  0  0  0  0  0  0  0  0  0
    4.7149   -5.5246    0.0000 C   0  0  0  0  0  0  0  0  0  0  0  0
    5.4202   -5.9307    0.0000 C   0  0  0  0  0  0  0  0  0  0  0  0
    6.1260   -5.5221    0.0000 C   0  0  0  0  0  0  0  0  0  0  0  0
    6.1221   -4.7033    0.0000 C   0  0  0  0  0  0  0  0  0  0  0  0
    5.4162   -4.3009    0.0000 C   0  0  0  0  0  0  0  0  0  0  0  0
    6.1254   -2.2528    0.0000 C   0  0  0  0  0  0  0  0  0  0  0  0
  1  2  1  0
  1  4  1  0
  2  3  1  0
  3  6  1  0
  5  4  1  0
  5  6  2  0
  6  7  1  0
  7  8  2  0
  8  9  1  0
  9 10  2  0
 10  5  1  0
 11 12  2  0
 12 13  1  0
 13 14  2  0
 14 15  1  0
 15 16  2  0
 16 11  1  0
 15 17  1  0
 18 19  2  0
 19 20  1  0
 20 21  2  0
 21 22  1  0
 22 23  2  0
 23 18  1  0
 12 18  1  0
 21 24  1  0
 24 25  1  0
 24 26  2  0
 25 27  1  0
 22 28  1  0
 28 29  1  0
 29 30  2  0
 29 31  1  0
 31 32  2  0
 32 36  1  0
 35 33  1  0
 33 34  2  0
 34 31  1  0
 35 36  2  0
 36 37  1  0
 37 38  2  0
 38 39  1  0
 39 40  2  0
 40 35  1  0
 17 41  1  0
 41  2  1  0
M  END
>  <Classification>  (246) 
1

>  <pchembl>  (246) 
5.96

>  <InChI_steorem>  (246) 
InChI=1S/C35H31N3O3/c1-41-35(40)30-16-14-28(22-33(30)37-34(39)32-17-15-27-7-4-5-9-31(27)36-32)26-12-10-24(11-13-26)18-20-38-21-19-25-6-2-3-8-29(25)23-38/h2-17,22H,18-21,23H2,1H3,(H,37,39)

>  <source>  (246) 
ChEMBL25

>  <source_id>  (246) 
25

>  <optional_reference>  (246) 
10.1021/ml4000832

>  <optional_origin>  (246) 
None

>  <target>  (246) 
BCRP

$$$$

     RDKit          2D

 44 49  0  0  0  0  0  0  0  0999 V2000
   12.5284   -9.6830    0.0000 C   0  0  0  0  0  0  0  0  0  0  0  0
   11.8193  -10.0916    0.0000 C   0  0  0  0  0  0  0  0  0  0  0  0
   11.1102   -9.6830    0.0000 C   0  0  0  0  0  0  0  0  0  0  0  0
   11.1102   -8.8658    0.0000 C   0  0  0  0  0  0  0  0  0  0  0  0
   11.8193   -8.4572    0.0000 C   0  0  0  0  0  0  0  0  0  0  0  0
   12.5284   -8.8658    0.0000 C   0  0  0  0  0  0  0  0  0  0  0  0
   13.2333  -10.0916    0.0000 C   0  0  0  0  0  0  0  0  0  0  0  0
   13.9424   -9.6830    0.0000 C   0  0  0  0  0  0  0  0  0  0  0  0
   14.6515  -10.0916    0.0000 C   0  0  0  0  0  0  0  0  0  0  0  0
   14.6515  -10.9088    0.0000 C   0  0  0  0  0  0  0  0  0  0  0  0
   13.9424  -11.3174    0.0000 C   0  0  0  0  0  0  0  0  0  0  0  0
   13.2333  -10.9088    0.0000 C   0  0  0  0  0  0  0  0  0  0  0  0
   10.4011   -8.4572    0.0000 C   0  0  0  0  0  0  0  0  0  0  0  0
   10.4011   -7.6400    0.0000 O   0  0  0  0  0  0  0  0  0  0  0  0
    9.6961   -8.8658    0.0000 O   0  0  0  0  0  0  0  0  0  0  0  0
   10.4011  -10.0916    0.0000 N   0  0  0  0  0  0  0  0  0  0  0  0
   10.4011  -10.9088    0.0000 C   0  0  0  0  0  0  0  0  0  0  0  0
   11.1102  -11.3174    0.0000 O   0  0  0  0  0  0  0  0  0  0  0  0
    7.5730  -12.5432    0.0000 N   0  0  0  0  0  0  0  0  0  0  0  0
    6.8639  -12.1346    0.0000 C   0  0  0  0  0  0  0  0  0  0  0  0
    6.8639  -11.3174    0.0000 C   0  0  0  0  0  0  0  0  0  0  0  0
    7.5730  -10.9088    0.0000 C   0  0  0  0  0  0  0  0  0  0  0  0
    8.2821  -11.3174    0.0000 C   0  0  0  0  0  0  0  0  0  0  0  0
    8.9870  -10.9088    0.0000 C   0  0  0  0  0  0  0  0  0  0  0  0
    9.6961  -11.3174    0.0000 C   0  0  0  0  0  0  0  0  0  0  0  0
    9.6961  -12.1346    0.0000 C   0  0  0  0  0  0  0  0  0  0  0  0
    8.9870  -12.5432    0.0000 C   0  0  0  0  0  0  0  0  0  0  0  0
    8.2821  -12.1346    0.0000 C   0  0  0  0  0  0  0  0  0  0  0  0
   15.3565  -11.3174    0.0000 C   0  0  0  0  0  0  0  0  0  0  0  0
   16.7746  -11.3174    0.0000 C   0  0  0  0  0  0  0  0  0  0  0  0
   16.0656  -10.9088    0.0000 N   0  0  0  0  0  0  0  0  0  0  0  0
   16.0656  -10.0916    0.0000 C   0  0  0  0  0  0  0  0  0  0  0  0
   16.7746   -9.6830    0.0000 C   0  0  0  0  0  0  0  0  0  0  0  0
   17.4796  -10.0916    0.0000 C   0  0  0  0  0  0  0  0  0  0  0  0
   18.1887   -9.6830    0.0000 C   0  0  0  0  0  0  0  0  0  0  0  0
   18.8978  -10.0916    0.0000 C   0  0  0  0  0  0  0  0  0  0  0  0
   18.8978  -10.9088    0.0000 C   0  0  0  0  0  0  0  0  0  0  0  0
   18.1887  -11.3174    0.0000 C   0  0  0  0  0  0  0  0  0  0  0  0
   17.4796  -10.9088    0.0000 C   0  0  0  0  0  0  0  0  0  0  0  0
   19.6027  -11.3174    0.0000 O   0  0  0  0  0  0  0  0  0  0  0  0
   20.3118  -10.9088    0.0000 C   0  0  0  0  0  0  0  0  0  0  0  0
   19.6027   -9.6830    0.0000 O   0  0  0  0  0  0  0  0  0  0  0  0
   20.3118  -10.0916    0.0000 C   0  0  0  0  0  0  0  0  0  0  0  0
    9.6961   -9.6830    0.0000 C   0  0  0  0  0  0  0  0  0  0  0  0
  1  2  2  0
  2  3  1  0
  3  4  2  0
  4  5  1  0
  5  6  2  0
  1  6  1  0
  7  8  2  0
  8  9  1  0
  9 10  2  0
 10 11  1  0
 11 12  2  0
  7 12  1  0
  1  7  1  0
 13 14  2  0
 13 15  1  0
  4 13  1  0
 17 18  2  0
 19 20  2  0
 20 21  1  0
 21 22  2  0
 22 23  1  0
 23 24  2  0
 24 25  1  0
 25 26  2  0
 26 27  1  0
 27 28  2  0
 19 28  1  0
 23 28  1  0
 17 25  1  0
 16 17  1  0
  3 16  1  0
 30 31  1  0
 31 32  1  0
 32 33  1  0
 33 34  1  0
 34 35  2  0
 35 36  1  0
 36 37  2  0
 37 38  1  0
 38 39  2  0
 30 39  1  0
 34 39  1  0
 40 41  1  0
 37 40  1  0
 42 43  1  0
 36 42  1  0
 29 31  1  0
 10 29  1  0
 15 44  1  0
M  END
>  <Classification>  (247) 
1

>  <pchembl>  (247) 
5.81

>  <InChI_steorem>  (247) 
InChI=1S/C36H33N3O5/c1-42-33-19-26-14-16-39(22-29(26)20-34(33)43-2)21-23-6-8-24(9-7-23)25-10-12-30(36(41)44-3)32(18-25)38-35(40)28-11-13-31-27(17-28)5-4-15-37-31/h4-13,15,17-20H,14,16,21-22H2,1-3H3,(H,38,40)

>  <source>  (247) 
ChEMBL25

>  <source_id>  (247) 
25

>  <optional_reference>  (247) 
10.1021/ml4000832

>  <optional_origin>  (247) 
None

>  <target>  (247) 
BCRP

$$$$

     RDKit          2D

 44 49  0  0  0  0  0  0  0  0999 V2000
    1.3154  -15.4096    0.0000 C   0  0  0  0  0  0  0  0  0  0  0  0
    1.3141  -16.2370    0.0000 C   0  0  0  0  0  0  0  0  0  0  0  0
    2.0291  -16.6499    0.0000 C   0  0  0  0  0  0  0  0  0  0  0  0
    2.7455  -16.2365    0.0000 C   0  0  0  0  0  0  0  0  0  0  0  0
    2.7427  -15.4059    0.0000 C   0  0  0  0  0  0  0  0  0  0  0  0
    2.0272  -14.9967    0.0000 C   0  0  0  0  0  0  0  0  0  0  0  0
    3.4557  -14.9907    0.0000 C   0  0  0  0  0  0  0  0  0  0  0  0
    4.1717  -15.4005    0.0000 N   0  0  0  0  0  0  0  0  0  0  0  0
    4.1722  -16.2227    0.0000 C   0  0  0  0  0  0  0  0  0  0  0  0
    4.8842  -16.6325    0.0000 C   0  0  0  0  0  0  0  0  0  0  0  0
    4.8820  -14.9805    0.0000 C   0  0  0  0  0  0  0  0  0  0  0  0
    5.5985  -15.3948    0.0000 C   0  0  0  0  0  0  0  0  0  0  0  0
    5.5978  -16.2203    0.0000 C   0  0  0  0  0  0  0  0  0  0  0  0
    6.3113  -16.6317    0.0000 C   0  0  0  0  0  0  0  0  0  0  0  0
    7.0259  -16.2189    0.0000 C   0  0  0  0  0  0  0  0  0  0  0  0
    7.0225  -15.3903    0.0000 C   0  0  0  0  0  0  0  0  0  0  0  0
    6.3085  -14.9825    0.0000 C   0  0  0  0  0  0  0  0  0  0  0  0
    0.6012  -16.6492    0.0000 C   0  0  0  0  0  0  0  0  0  0  0  0
   -0.1201  -16.2343    0.0000 C   0  0  0  0  0  0  0  0  0  0  0  0
   -0.8308  -16.6457    0.0000 C   0  0  0  0  0  0  0  0  0  0  0  0
   -0.8297  -17.4716    0.0000 C   0  0  0  0  0  0  0  0  0  0  0  0
   -0.1155  -17.8846    0.0000 C   0  0  0  0  0  0  0  0  0  0  0  0
    0.6019  -17.4708    0.0000 C   0  0  0  0  0  0  0  0  0  0  0  0
   -1.5489  -17.8845    0.0000 C   0  0  0  0  0  0  0  0  0  0  0  0
   -2.2593  -17.4723    0.0000 O   0  0  0  0  0  0  0  0  0  0  0  0
   -1.5494  -18.7096    0.0000 O   0  0  0  0  0  0  0  0  0  0  0  0
   -2.9784  -17.8853    0.0000 C   0  0  0  0  0  0  0  0  0  0  0  0
   -0.1094  -18.7096    0.0000 N   0  0  0  0  0  0  0  0  0  0  0  0
    0.6084  -19.1202    0.0000 C   0  0  0  0  0  0  0  0  0  0  0  0
    0.6107  -19.9452    0.0000 O   0  0  0  0  0  0  0  0  0  0  0  0
    1.3218  -18.7057    0.0000 C   0  0  0  0  0  0  0  0  0  0  0  0
    2.0365  -19.1200    0.0000 N   0  0  0  0  0  0  0  0  0  0  0  0
    2.0269  -17.4698    0.0000 C   0  0  0  0  0  0  0  0  0  0  0  0
    1.3170  -17.8860    0.0000 C   0  0  0  0  0  0  0  0  0  0  0  0
    2.7476  -17.8802    0.0000 C   0  0  0  0  0  0  0  0  0  0  0  0
    2.7476  -18.7038    0.0000 C   0  0  0  0  0  0  0  0  0  0  0  0
    3.4597  -19.1138    0.0000 C   0  0  0  0  0  0  0  0  0  0  0  0
    4.1724  -18.7014    0.0000 C   0  0  0  0  0  0  0  0  0  0  0  0
    4.1684  -17.8746    0.0000 C   0  0  0  0  0  0  0  0  0  0  0  0
    3.4557  -17.4683    0.0000 C   0  0  0  0  0  0  0  0  0  0  0  0
    7.7352  -14.9745    0.0000 O   0  0  0  0  0  0  0  0  0  0  0  0
    8.4516  -15.3839    0.0000 C   0  0  0  0  0  0  0  0  0  0  0  0
    7.7414  -16.6298    0.0000 O   0  0  0  0  0  0  0  0  0  0  0  0
    7.7432  -17.4549    0.0000 C   0  0  0  0  0  0  0  0  0  0  0  0
  1  2  2  0
  2  3  1  0
  3  4  2  0
  4  5  1  0
  5  6  2  0
  6  1  1  0
  5  7  1  0
  7  8  1  0
  8  9  1  0
  8 11  1  0
  9 10  1  0
 10 13  1  0
 12 11  1  0
 12 13  2  0
 13 14  1  0
 14 15  2  0
 15 16  1  0
 16 17  2  0
 17 12  1  0
 18 19  2  0
 19 20  1  0
 20 21  2  0
 21 22  1  0
 22 23  2  0
 23 18  1  0
  2 18  1  0
 21 24  1  0
 24 25  1  0
 24 26  2  0
 25 27  1  0
 22 28  1  0
 28 29  1  0
 29 30  2  0
 29 31  1  0
 31 32  2  0
 32 36  1  0
 35 33  1  0
 33 34  2  0
 34 31  1  0
 35 36  2  0
 36 37  1  0
 37 38  2  0
 38 39  1  0
 39 40  2  0
 40 35  1  0
 16 41  1  0
 41 42  1  0
 15 43  1  0
 43 44  1  0
M  END
>  <Classification>  (248) 
1

>  <pchembl>  (248) 
6.03

>  <InChI_steorem>  (248) 
InChI=1S/C36H33N3O5/c1-42-33-19-27-16-17-39(22-28(27)20-34(33)43-2)21-23-8-10-24(11-9-23)26-12-14-29(36(41)44-3)32(18-26)38-35(40)31-15-13-25-6-4-5-7-30(25)37-31/h4-15,18-20H,16-17,21-22H2,1-3H3,(H,38,40)

>  <source>  (248) 
ChEMBL25

>  <source_id>  (248) 
25

>  <optional_reference>  (248) 
10.1021/ml4000832

>  <optional_origin>  (248) 
None

>  <target>  (248) 
BCRP

$$$$

     RDKit          2D

 45 50  0  0  0  0  0  0  0  0999 V2000
   17.1037   -1.1839    0.0000 C   0  0  0  0  0  0  0  0  0  0  0  0
   17.1042   -1.9983    0.0000 N   0  0  0  0  0  0  0  0  0  0  0  0
   17.8094   -2.4042    0.0000 C   0  0  0  0  0  0  0  0  0  0  0  0
   17.8071   -0.7679    0.0000 C   0  0  0  0  0  0  0  0  0  0  0  0
   18.5169   -1.1783    0.0000 C   0  0  0  0  0  0  0  0  0  0  0  0
   18.5162   -1.9959    0.0000 C   0  0  0  0  0  0  0  0  0  0  0  0
   19.2229   -2.4034    0.0000 C   0  0  0  0  0  0  0  0  0  0  0  0
   19.9306   -1.9945    0.0000 C   0  0  0  0  0  0  0  0  0  0  0  0
   19.9273   -1.1738    0.0000 C   0  0  0  0  0  0  0  0  0  0  0  0
   19.2201   -0.7699    0.0000 C   0  0  0  0  0  0  0  0  0  0  0  0
   20.6332   -0.7620    0.0000 O   0  0  0  0  0  0  0  0  0  0  0  0
   21.3427   -1.1675    0.0000 C   0  0  0  0  0  0  0  0  0  0  0  0
   20.6393   -2.4015    0.0000 O   0  0  0  0  0  0  0  0  0  0  0  0
   21.3461   -1.9914    0.0000 C   0  0  0  0  0  0  0  0  0  0  0  0
   13.5689   -2.4185    0.0000 C   0  0  0  0  0  0  0  0  0  0  0  0
   13.5678   -3.2381    0.0000 C   0  0  0  0  0  0  0  0  0  0  0  0
   14.2758   -3.6470    0.0000 C   0  0  0  0  0  0  0  0  0  0  0  0
   14.9855   -3.2376    0.0000 C   0  0  0  0  0  0  0  0  0  0  0  0
   14.9826   -2.4149    0.0000 C   0  0  0  0  0  0  0  0  0  0  0  0
   14.2740   -2.0097    0.0000 C   0  0  0  0  0  0  0  0  0  0  0  0
   15.6888   -2.0037    0.0000 C   0  0  0  0  0  0  0  0  0  0  0  0
   12.8616   -3.6464    0.0000 C   0  0  0  0  0  0  0  0  0  0  0  0
   12.1540   -3.2355    0.0000 C   0  0  0  0  0  0  0  0  0  0  0  0
   11.4464   -3.6429    0.0000 C   0  0  0  0  0  0  0  0  0  0  0  0
   11.4453   -4.4609    0.0000 C   0  0  0  0  0  0  0  0  0  0  0  0
   12.1577   -4.8699    0.0000 C   0  0  0  0  0  0  0  0  0  0  0  0
   12.8623   -4.4602    0.0000 C   0  0  0  0  0  0  0  0  0  0  0  0
   10.7378   -4.8699    0.0000 C   0  0  0  0  0  0  0  0  0  0  0  0
   10.0299   -4.4617    0.0000 O   0  0  0  0  0  0  0  0  0  0  0  0
   10.7383   -5.6871    0.0000 O   0  0  0  0  0  0  0  0  0  0  0  0
    9.3224   -4.8707    0.0000 C   0  0  0  0  0  0  0  0  0  0  0  0
   12.1599   -5.6871    0.0000 N   0  0  0  0  0  0  0  0  0  0  0  0
   12.8687   -6.0938    0.0000 C   0  0  0  0  0  0  0  0  0  0  0  0
   12.8710   -6.9110    0.0000 O   0  0  0  0  0  0  0  0  0  0  0  0
   13.5753   -5.6832    0.0000 C   0  0  0  0  0  0  0  0  0  0  0  0
   14.2832   -6.0936    0.0000 N   0  0  0  0  0  0  0  0  0  0  0  0
   14.2738   -4.4592    0.0000 C   0  0  0  0  0  0  0  0  0  0  0  0
   13.5706   -4.8713    0.0000 C   0  0  0  0  0  0  0  0  0  0  0  0
   14.9875   -4.8656    0.0000 C   0  0  0  0  0  0  0  0  0  0  0  0
   14.9875   -5.6814    0.0000 C   0  0  0  0  0  0  0  0  0  0  0  0
   15.6929   -6.0875    0.0000 C   0  0  0  0  0  0  0  0  0  0  0  0
   16.3987   -5.6790    0.0000 C   0  0  0  0  0  0  0  0  0  0  0  0
   16.3947   -4.8601    0.0000 C   0  0  0  0  0  0  0  0  0  0  0  0
   15.6888   -4.4577    0.0000 C   0  0  0  0  0  0  0  0  0  0  0  0
   16.3980   -2.4096    0.0000 C   0  0  0  0  0  0  0  0  0  0  0  0
  1  2  1  0
  1  4  1  0
  2  3  1  0
  3  6  1  0
  5  4  1  0
  5  6  2  0
  6  7  1  0
  7  8  2  0
  8  9  1  0
  9 10  2  0
 10  5  1  0
  9 11  1  0
 11 12  1  0
  8 13  1  0
 13 14  1  0
 15 16  2  0
 16 17  1  0
 17 18  2  0
 18 19  1  0
 19 20  2  0
 20 15  1  0
 19 21  1  0
 22 23  2  0
 23 24  1  0
 24 25  2  0
 25 26  1  0
 26 27  2  0
 27 22  1  0
 16 22  1  0
 25 28  1  0
 28 29  1  0
 28 30  2  0
 29 31  1  0
 26 32  1  0
 32 33  1  0
 33 34  2  0
 33 35  1  0
 35 36  2  0
 36 40  1  0
 39 37  1  0
 37 38  2  0
 38 35  1  0
 39 40  2  0
 40 41  1  0
 41 42  2  0
 42 43  1  0
 43 44  2  0
 44 39  1  0
 21 45  1  0
 45  2  1  0
M  END
>  <Classification>  (249) 
1

>  <pchembl>  (249) 
5.49

>  <InChI_steorem>  (249) 
InChI=1S/C37H35N3O5/c1-43-34-21-28-17-19-40(23-29(28)22-35(34)44-2)18-16-24-8-10-25(11-9-24)27-12-14-30(37(42)45-3)33(20-27)39-36(41)32-15-13-26-6-4-5-7-31(26)38-32/h4-15,20-22H,16-19,23H2,1-3H3,(H,39,41)

>  <source>  (249) 
ChEMBL25

>  <source_id>  (249) 
25

>  <optional_reference>  (249) 
10.1021/ml4000832

>  <optional_origin>  (249) 
None

>  <target>  (249) 
BCRP

$$$$

     RDKit          2D

 53 58  0  0  0  0  0  0  0  0999 V2000
   20.5196  -21.0959    0.0000 C   0  0  0  0  0  0  0  0  0  0  0  0
   20.5184  -21.9234    0.0000 C   0  0  0  0  0  0  0  0  0  0  0  0
   21.2332  -22.3362    0.0000 C   0  0  0  0  0  0  0  0  0  0  0  0
   21.9496  -21.9229    0.0000 C   0  0  0  0  0  0  0  0  0  0  0  0
   21.9468  -21.0923    0.0000 C   0  0  0  0  0  0  0  0  0  0  0  0
   21.2314  -20.6832    0.0000 C   0  0  0  0  0  0  0  0  0  0  0  0
   22.6597  -20.6772    0.0000 C   0  0  0  0  0  0  0  0  0  0  0  0
   23.3757  -21.0869    0.0000 N   0  0  0  0  0  0  0  0  0  0  0  0
   23.3762  -21.9091    0.0000 C   0  0  0  0  0  0  0  0  0  0  0  0
   24.0882  -22.3188    0.0000 C   0  0  0  0  0  0  0  0  0  0  0  0
   24.0859  -20.6670    0.0000 C   0  0  0  0  0  0  0  0  0  0  0  0
   24.8023  -21.0812    0.0000 C   0  0  0  0  0  0  0  0  0  0  0  0
   24.8017  -21.9067    0.0000 C   0  0  0  0  0  0  0  0  0  0  0  0
   25.5152  -22.3181    0.0000 C   0  0  0  0  0  0  0  0  0  0  0  0
   26.2297  -21.9053    0.0000 C   0  0  0  0  0  0  0  0  0  0  0  0
   26.2263  -21.0766    0.0000 C   0  0  0  0  0  0  0  0  0  0  0  0
   25.5124  -20.6690    0.0000 C   0  0  0  0  0  0  0  0  0  0  0  0
   19.8055  -22.3356    0.0000 C   0  0  0  0  0  0  0  0  0  0  0  0
   19.0910  -21.9207    0.0000 C   0  0  0  0  0  0  0  0  0  0  0  0
   18.3768  -22.3320    0.0000 C   0  0  0  0  0  0  0  0  0  0  0  0
   18.3757  -23.1579    0.0000 C   0  0  0  0  0  0  0  0  0  0  0  0
   19.0949  -23.5708    0.0000 C   0  0  0  0  0  0  0  0  0  0  0  0
   19.8062  -23.1572    0.0000 C   0  0  0  0  0  0  0  0  0  0  0  0
   17.6614  -23.5708    0.0000 C   0  0  0  0  0  0  0  0  0  0  0  0
   16.9467  -23.1587    0.0000 O   0  0  0  0  0  0  0  0  0  0  0  0
   17.6618  -24.3958    0.0000 O   0  0  0  0  0  0  0  0  0  0  0  0
   16.2325  -23.5716    0.0000 C   0  0  0  0  0  0  0  0  0  0  0  0
   19.0971  -24.3958    0.0000 N   0  0  0  0  0  0  0  0  0  0  0  0
   19.8127  -24.8064    0.0000 C   0  0  0  0  0  0  0  0  0  0  0  0
   19.8150  -25.6314    0.0000 O   0  0  0  0  0  0  0  0  0  0  0  0
   20.5260  -24.3919    0.0000 C   0  0  0  0  0  0  0  0  0  0  0  0
   21.2407  -24.8062    0.0000 N   0  0  0  0  0  0  0  0  0  0  0  0
   21.2311  -23.1561    0.0000 C   0  0  0  0  0  0  0  0  0  0  0  0
   20.5212  -23.5722    0.0000 C   0  0  0  0  0  0  0  0  0  0  0  0
   21.9517  -23.5664    0.0000 C   0  0  0  0  0  0  0  0  0  0  0  0
   21.9517  -24.3900    0.0000 C   0  0  0  0  0  0  0  0  0  0  0  0
   22.6638  -24.8000    0.0000 C   0  0  0  0  0  0  0  0  0  0  0  0
   23.3764  -24.3876    0.0000 C   0  0  0  0  0  0  0  0  0  0  0  0
   23.3724  -23.5609    0.0000 C   0  0  0  0  0  0  0  0  0  0  0  0
   22.6597  -23.1546    0.0000 C   0  0  0  0  0  0  0  0  0  0  0  0
   26.9390  -20.6610    0.0000 O   0  0  0  0  0  0  0  0  0  0  0  0
   27.6553  -21.0704    0.0000 C   0  0  0  0  0  0  0  0  0  0  0  0
   26.9451  -22.3162    0.0000 O   0  0  0  0  0  0  0  0  0  0  0  0
   27.6587  -21.9021    0.0000 C   0  0  0  0  0  0  0  0  0  0  0  0
   28.3679  -20.6548    0.0000 C   0  0  0  0  0  0  0  0  0  0  0  0
   29.0842  -21.0640    0.0000 O   0  0  0  0  0  0  0  0  0  0  0  0
   29.7968  -20.6484    0.0000 C   0  0  0  0  0  0  0  0  0  0  0  0
   30.5131  -21.0578    0.0000 C   0  0  0  0  0  0  0  0  0  0  0  0
   31.2258  -20.6421    0.0000 O   0  0  0  0  0  0  0  0  0  0  0  0
   31.9421  -21.0515    0.0000 C   0  0  0  0  0  0  0  0  0  0  0  0
   32.6547  -20.6358    0.0000 C   0  0  0  0  0  0  0  0  0  0  0  0
   33.3710  -21.0451    0.0000 O   0  0  0  0  0  0  0  0  0  0  0  0
   34.0837  -20.6295    0.0000 C   0  0  0  0  0  0  0  0  0  0  0  0
  1  2  2  0
  2  3  1  0
  3  4  2  0
  4  5  1  0
  5  6  2  0
  6  1  1  0
  5  7  1  0
  7  8  1  0
  8  9  1  0
  8 11  1  0
  9 10  1  0
 10 13  1  0
 12 11  1  0
 12 13  2  0
 13 14  1  0
 14 15  2  0
 15 16  1  0
 16 17  2  0
 17 12  1  0
 18 19  2  0
 19 20  1  0
 20 21  2  0
 21 22  1  0
 22 23  2  0
 23 18  1  0
  2 18  1  0
 21 24  1  0
 24 25  1  0
 24 26  2  0
 25 27  1  0
 22 28  1  0
 28 29  1  0
 29 30  2  0
 29 31  1  0
 31 32  2  0
 32 36  1  0
 35 33  1  0
 33 34  2  0
 34 31  1  0
 35 36  2  0
 36 37  1  0
 37 38  2  0
 38 39  1  0
 39 40  2  0
 40 35  1  0
 16 41  1  0
 41 42  1  0
 15 43  1  0
 43 44  1  0
 42 45  1  0
 45 46  1  0
 46 47  1  0
 47 48  1  0
 48 49  1  0
 49 50  1  0
 50 51  1  0
 51 52  1  0
 52 53  1  0
M  END
>  <Classification>  (250) 
1

>  <pchembl>  (250) 
6.23

>  <InChI_steorem>  (250) 
InChI=1S/C42H45N3O8/c1-48-18-19-51-20-21-52-22-23-53-40-26-34-28-45(17-16-33(34)25-39(40)49-2)27-29-8-10-30(11-9-29)32-12-14-35(42(47)50-3)38(24-32)44-41(46)37-15-13-31-6-4-5-7-36(31)43-37/h4-15,24-26H,16-23,27-28H2,1-3H3,(H,44,46)

>  <source>  (250) 
ChEMBL25

>  <source_id>  (250) 
25

>  <optional_reference>  (250) 
10.1021/ml4000832

>  <optional_origin>  (250) 
None

>  <target>  (250) 
BCRP

$$$$

     RDKit          2D

 53 58  0  0  0  0  0  0  0  0999 V2000
   27.2369  -15.5379    0.0000 C   0  0  0  0  0  0  0  0  0  0  0  0
   27.2357  -16.3653    0.0000 C   0  0  0  0  0  0  0  0  0  0  0  0
   27.9506  -16.7782    0.0000 C   0  0  0  0  0  0  0  0  0  0  0  0
   28.6670  -16.3649    0.0000 C   0  0  0  0  0  0  0  0  0  0  0  0
   28.6641  -15.5343    0.0000 C   0  0  0  0  0  0  0  0  0  0  0  0
   27.9487  -15.1251    0.0000 C   0  0  0  0  0  0  0  0  0  0  0  0
   29.3771  -15.1190    0.0000 C   0  0  0  0  0  0  0  0  0  0  0  0
   30.0931  -15.5289    0.0000 N   0  0  0  0  0  0  0  0  0  0  0  0
   30.0936  -16.3511    0.0000 C   0  0  0  0  0  0  0  0  0  0  0  0
   30.8056  -16.7608    0.0000 C   0  0  0  0  0  0  0  0  0  0  0  0
   30.8032  -15.1088    0.0000 C   0  0  0  0  0  0  0  0  0  0  0  0
   31.5197  -15.5232    0.0000 C   0  0  0  0  0  0  0  0  0  0  0  0
   31.5191  -16.3486    0.0000 C   0  0  0  0  0  0  0  0  0  0  0  0
   32.2326  -16.7601    0.0000 C   0  0  0  0  0  0  0  0  0  0  0  0
   32.9471  -16.3472    0.0000 C   0  0  0  0  0  0  0  0  0  0  0  0
   32.9438  -15.5186    0.0000 C   0  0  0  0  0  0  0  0  0  0  0  0
   32.2298  -15.1109    0.0000 C   0  0  0  0  0  0  0  0  0  0  0  0
   26.5228  -16.7775    0.0000 C   0  0  0  0  0  0  0  0  0  0  0  0
   25.8083  -16.3627    0.0000 C   0  0  0  0  0  0  0  0  0  0  0  0
   25.0940  -16.7739    0.0000 C   0  0  0  0  0  0  0  0  0  0  0  0
   25.0929  -17.5999    0.0000 C   0  0  0  0  0  0  0  0  0  0  0  0
   25.8122  -18.0128    0.0000 C   0  0  0  0  0  0  0  0  0  0  0  0
   26.5235  -17.5992    0.0000 C   0  0  0  0  0  0  0  0  0  0  0  0
   24.3786  -18.0128    0.0000 C   0  0  0  0  0  0  0  0  0  0  0  0
   23.6640  -17.6007    0.0000 O   0  0  0  0  0  0  0  0  0  0  0  0
   24.3790  -18.8378    0.0000 O   0  0  0  0  0  0  0  0  0  0  0  0
   22.9497  -18.0135    0.0000 C   0  0  0  0  0  0  0  0  0  0  0  0
   25.8144  -18.8378    0.0000 N   0  0  0  0  0  0  0  0  0  0  0  0
   26.5300  -19.2483    0.0000 C   0  0  0  0  0  0  0  0  0  0  0  0
   26.5322  -20.0734    0.0000 O   0  0  0  0  0  0  0  0  0  0  0  0
   27.2433  -18.8339    0.0000 C   0  0  0  0  0  0  0  0  0  0  0  0
   27.9580  -19.2481    0.0000 N   0  0  0  0  0  0  0  0  0  0  0  0
   27.9484  -17.5981    0.0000 C   0  0  0  0  0  0  0  0  0  0  0  0
   27.2385  -18.0142    0.0000 C   0  0  0  0  0  0  0  0  0  0  0  0
   28.6691  -18.0085    0.0000 C   0  0  0  0  0  0  0  0  0  0  0  0
   28.6691  -18.8321    0.0000 C   0  0  0  0  0  0  0  0  0  0  0  0
   29.3811  -19.2421    0.0000 C   0  0  0  0  0  0  0  0  0  0  0  0
   30.0938  -18.8296    0.0000 C   0  0  0  0  0  0  0  0  0  0  0  0
   30.0898  -18.0029    0.0000 C   0  0  0  0  0  0  0  0  0  0  0  0
   29.3771  -17.5967    0.0000 C   0  0  0  0  0  0  0  0  0  0  0  0
   33.6564  -15.1030    0.0000 O   0  0  0  0  0  0  0  0  0  0  0  0
   34.3727  -15.5124    0.0000 C   0  0  0  0  0  0  0  0  0  0  0  0
   33.6625  -16.7582    0.0000 O   0  0  0  0  0  0  0  0  0  0  0  0
   34.3762  -16.3441    0.0000 C   0  0  0  0  0  0  0  0  0  0  0  0
   35.0916  -16.7550    0.0000 C   0  0  0  0  0  0  0  0  0  0  0  0
   35.8051  -16.3409    0.0000 O   0  0  0  0  0  0  0  0  0  0  0  0
   36.5205  -16.7518    0.0000 C   0  0  0  0  0  0  0  0  0  0  0  0
   37.2341  -16.3378    0.0000 C   0  0  0  0  0  0  0  0  0  0  0  0
   37.9495  -16.7487    0.0000 O   0  0  0  0  0  0  0  0  0  0  0  0
   38.6631  -16.3346    0.0000 C   0  0  0  0  0  0  0  0  0  0  0  0
   39.3784  -16.7456    0.0000 C   0  0  0  0  0  0  0  0  0  0  0  0
   40.0920  -16.3314    0.0000 O   0  0  0  0  0  0  0  0  0  0  0  0
   40.8074  -16.7423    0.0000 C   0  0  0  0  0  0  0  0  0  0  0  0
  1  2  2  0
  2  3  1  0
  3  4  2  0
  4  5  1  0
  5  6  2  0
  6  1  1  0
  5  7  1  0
  7  8  1  0
  8  9  1  0
  8 11  1  0
  9 10  1  0
 10 13  1  0
 12 11  1  0
 12 13  2  0
 13 14  1  0
 14 15  2  0
 15 16  1  0
 16 17  2  0
 17 12  1  0
 18 19  2  0
 19 20  1  0
 20 21  2  0
 21 22  1  0
 22 23  2  0
 23 18  1  0
  2 18  1  0
 21 24  1  0
 24 25  1  0
 24 26  2  0
 25 27  1  0
 22 28  1  0
 28 29  1  0
 29 30  2  0
 29 31  1  0
 31 32  2  0
 32 36  1  0
 35 33  1  0
 33 34  2  0
 34 31  1  0
 35 36  2  0
 36 37  1  0
 37 38  2  0
 38 39  1  0
 39 40  2  0
 40 35  1  0
 16 41  1  0
 41 42  1  0
 15 43  1  0
 43 44  1  0
 44 45  1  0
 45 46  1  0
 46 47  1  0
 47 48  1  0
 48 49  1  0
 49 50  1  0
 50 51  1  0
 51 52  1  0
 52 53  1  0
M  END
>  <Classification>  (251) 
1

>  <pchembl>  (251) 
5.99

>  <InChI_steorem>  (251) 
InChI=1S/C42H45N3O8/c1-48-18-19-51-20-21-52-22-23-53-40-25-33-16-17-45(28-34(33)26-39(40)49-2)27-29-8-10-30(11-9-29)32-12-14-35(42(47)50-3)38(24-32)44-41(46)37-15-13-31-6-4-5-7-36(31)43-37/h4-15,24-26H,16-23,27-28H2,1-3H3,(H,44,46)

>  <source>  (251) 
ChEMBL25

>  <source_id>  (251) 
25

>  <optional_reference>  (251) 
10.1021/ml4000832

>  <optional_origin>  (251) 
None

>  <target>  (251) 
BCRP

$$$$

     RDKit          2D

 53 58  0  0  0  0  0  0  0  0999 V2000
    8.4167  -11.3303    0.0000 C   0  0  0  0  0  0  0  0  0  0  0  0
   10.5427  -11.7478    0.0000 C   0  0  0  0  0  0  0  0  0  0  0  0
   11.2553  -10.5191    0.0000 C   0  0  0  0  0  0  0  0  0  0  0  0
   11.2513  -11.3416    0.0000 C   0  0  0  0  0  0  0  0  0  0  0  0
   10.5469  -10.1108    0.0000 N   0  0  0  0  0  0  0  0  0  0  0  0
    9.8390  -11.3360    0.0000 C   0  0  0  0  0  0  0  0  0  0  0  0
    9.1320  -10.1047    0.0000 C   0  0  0  0  0  0  0  0  0  0  0  0
    9.1225  -11.7464    0.0000 C   0  0  0  0  0  0  0  0  0  0  0  0
    8.4214  -10.5147    0.0000 C   0  0  0  0  0  0  0  0  0  0  0  0
    9.8389  -10.5165    0.0000 C   0  0  0  0  0  0  0  0  0  0  0  0
    9.1227   -7.6425    0.0000 C   0  0  0  0  0  0  0  0  0  0  0  0
   11.9607   -7.6263    0.0000 C   0  0  0  0  0  0  0  0  0  0  0  0
    5.5629  -11.3387    0.0000 O   0  0  0  0  0  0  0  0  0  0  0  0
   21.9151   -9.2516    0.0000 C   0  0  0  0  0  0  0  0  0  0  0  0
   11.2547   -8.0464    0.0000 N   0  0  0  0  0  0  0  0  0  0  0  0
   14.8014   -7.6204    0.0000 O   0  0  0  0  0  0  0  0  0  0  0  0
   11.2551   -8.8645    0.0000 C   0  0  0  0  0  0  0  0  0  0  0  0
    7.7122  -11.7451    0.0000 C   0  0  0  0  0  0  0  0  0  0  0  0
   17.6489   -9.2610    0.0000 C   0  0  0  0  0  0  0  0  0  0  0  0
   14.8075   -9.2674    0.0000 O   0  0  0  0  0  0  0  0  0  0  0  0
   13.3858   -9.2693    0.0000 C   0  0  0  0  0  0  0  0  0  0  0  0
   13.3830   -7.6283    0.0000 C   0  0  0  0  0  0  0  0  0  0  0  0
    6.9944  -11.3387    0.0000 N   0  0  0  0  0  0  0  0  0  0  0  0
   15.5170   -8.8574    0.0000 C   0  0  0  0  0  0  0  0  0  0  0  0
    4.1421  -10.5185    0.0000 C   0  0  0  0  0  0  0  0  0  0  0  0
    9.8340   -8.0517    0.0000 C   0  0  0  0  0  0  0  0  0  0  0  0
    9.1245   -9.2874    0.0000 C   0  0  0  0  0  0  0  0  0  0  0  0
    8.4150   -8.0554    0.0000 C   0  0  0  0  0  0  0  0  0  0  0  0
    9.8369   -8.8782    0.0000 C   0  0  0  0  0  0  0  0  0  0  0  0
   18.3583   -8.8511    0.0000 C   0  0  0  0  0  0  0  0  0  0  0  0
   16.9376   -8.8543    0.0000 O   0  0  0  0  0  0  0  0  0  0  0  0
   19.0737   -9.2579    0.0000 O   0  0  0  0  0  0  0  0  0  0  0  0
   19.7831   -8.8479    0.0000 C   0  0  0  0  0  0  0  0  0  0  0  0
   14.0962   -8.8605    0.0000 C   0  0  0  0  0  0  0  0  0  0  0  0
   10.5427   -7.6365    0.0000 C   0  0  0  0  0  0  0  0  0  0  0  0
   12.6724   -8.8619    0.0000 C   0  0  0  0  0  0  0  0  0  0  0  0
    7.7050   -9.2867    0.0000 C   0  0  0  0  0  0  0  0  0  0  0  0
    7.7057  -10.1042    0.0000 C   0  0  0  0  0  0  0  0  0  0  0  0
   14.0928   -8.0361    0.0000 C   0  0  0  0  0  0  0  0  0  0  0  0
    6.2772   -9.2832    0.0000 C   0  0  0  0  0  0  0  0  0  0  0  0
    8.4139   -8.8786    0.0000 C   0  0  0  0  0  0  0  0  0  0  0  0
   12.6730   -8.0406    0.0000 C   0  0  0  0  0  0  0  0  0  0  0  0
    6.9838   -8.8761    0.0000 C   0  0  0  0  0  0  0  0  0  0  0  0
    6.9883  -10.5178    0.0000 C   0  0  0  0  0  0  0  0  0  0  0  0
   15.5135   -8.0298    0.0000 C   0  0  0  0  0  0  0  0  0  0  0  0
    7.7145  -12.5659    0.0000 O   0  0  0  0  0  0  0  0  0  0  0  0
   11.9630   -9.2700    0.0000 C   0  0  0  0  0  0  0  0  0  0  0  0
    4.8571  -10.1057    0.0000 O   0  0  0  0  0  0  0  0  0  0  0  0
    5.5633  -10.5178    0.0000 C   0  0  0  0  0  0  0  0  0  0  0  0
    6.2783  -10.1049    0.0000 C   0  0  0  0  0  0  0  0  0  0  0  0
   16.2282   -9.2642    0.0000 C   0  0  0  0  0  0  0  0  0  0  0  0
   21.2038   -8.8448    0.0000 O   0  0  0  0  0  0  0  0  0  0  0  0
   20.4944   -9.2548    0.0000 C   0  0  0  0  0  0  0  0  0  0  0  0
 10  5  1  0
  3  4  1  0
  7 10  1  0
  1  9  1  0
  5  3  2  0
  4  2  2  0
  9  7  2  0
  6 10  2  0
  6  8  1  0
  8  1  2  0
  2  6  1  0
 26 11  2  0
 40 50  1  0
 16 45  1  0
 41 37  1  0
 19 30  1  0
 26 35  1  0
 42 36  2  0
 28 41  2  0
 15 17  1  0
 39 22  2  0
 18 46  2  0
 35 15  1  0
 15 12  1  0
 30 32  1  0
 39 16  1  0
 42 12  1  0
 33 53  1  0
 48 25  1  0
 22 42  1  0
 20 24  1  0
 17 47  1  0
 23 18  1  0
 49 13  2  0
 34 39  1  0
 11 28  1  0
 29 26  1  0
 43 40  2  0
 50 44  2  0
 47 36  1  0
 44 23  1  0
 31 19  1  0
 34 20  1  0
 36 21  1  0
 53 52  1  0
 27 29  2  0
 32 33  1  0
 52 14  1  0
 24 51  1  0
 49 48  1  0
 51 31  1  0
 21 34  2  0
 37 43  1  0
 50 49  1  0
 38 37  2  0
 41 27  1  0
 44 38  1  0
 18  1  1  0
M  END
>  <Classification>  (252) 
1

>  <pchembl>  (252) 
6.62

>  <InChI_steorem>  (252) 
InChI=1S/C42H45N3O8/c1-48-17-18-51-19-20-52-21-22-53-40-25-32-14-16-45(28-35(32)26-39(40)49-2)27-29-6-8-30(9-7-29)31-10-12-36(42(47)50-3)38(24-31)44-41(46)34-11-13-37-33(23-34)5-4-15-43-37/h4-13,15,23-26H,14,16-22,27-28H2,1-3H3,(H,44,46)

>  <source>  (252) 
ChEMBL25

>  <source_id>  (252) 
25

>  <optional_reference>  (252) 
10.1021/ml4000832

>  <optional_origin>  (252) 
None

>  <target>  (252) 
BCRP

$$$$

     RDKit          2D

 54 59  0  0  0  0  0  0  0  0999 V2000
   20.0143  -10.0576    0.0000 C   0  0  0  0  0  0  0  0  0  0  0  0
   23.5792  -10.3770    0.0000 C   0  0  0  0  0  0  0  0  0  0  0  0
   18.5941  -10.0934    0.0000 O   0  0  0  0  0  0  0  0  0  0  0  0
   21.4345  -10.0219    0.0000 C   0  0  0  0  0  0  0  0  0  0  0  0
   20.7347  -10.4489    0.0000 O   0  0  0  0  0  0  0  0  0  0  0  0
   17.8943  -10.5205    0.0000 C   0  0  0  0  0  0  0  0  0  0  0  0
   16.4700  -10.5606    0.0000 O   0  0  0  0  0  0  0  0  0  0  0  0
   17.1739  -10.1290    0.0000 C   0  0  0  0  0  0  0  0  0  0  0  0
   22.1550  -10.4172    0.0000 C   0  0  0  0  0  0  0  0  0  0  0  0
   19.3146  -10.4888    0.0000 C   0  0  0  0  0  0  0  0  0  0  0  0
   22.8588   -9.9861    0.0000 O   0  0  0  0  0  0  0  0  0  0  0  0
    8.5605  -14.0350    0.0000 C   0  0  0  0  0  0  0  0  0  0  0  0
    9.3465  -11.1906    0.0000 C   0  0  0  0  0  0  0  0  0  0  0  0
   12.1386  -12.9032    0.0000 C   0  0  0  0  0  0  0  0  0  0  0  0
   15.7713  -10.1289    0.0000 C   0  0  0  0  0  0  0  0  0  0  0  0
   10.7688  -11.2322    0.0000 C   0  0  0  0  0  0  0  0  0  0  0  0
    5.0346  -12.7036    0.0000 C   0  0  0  0  0  0  0  0  0  0  0  0
   10.0186  -12.4355    0.0000 C   0  0  0  0  0  0  0  0  0  0  0  0
    9.3719  -10.3678    0.0000 C   0  0  0  0  0  0  0  0  0  0  0  0
    9.2815  -13.6459    0.0000 C   0  0  0  0  0  0  0  0  0  0  0  0
    9.3008  -12.8306    0.0000 C   0  0  0  0  0  0  0  0  0  0  0  0
   11.3939  -14.1126    0.0000 C   0  0  0  0  0  0  0  0  0  0  0  0
   12.2148  -10.4429    0.0000 C   0  0  0  0  0  0  0  0  0  0  0  0
    7.9281  -11.1461    0.0000 C   0  0  0  0  0  0  0  0  0  0  0  0
   10.0447  -11.6202    0.0000 C   0  0  0  0  0  0  0  0  0  0  0  0
   12.9354  -10.0488    0.0000 N   0  0  0  0  0  0  0  0  0  0  0  0
   12.9592   -9.2311    0.0000 C   0  0  0  0  0  0  0  0  0  0  0  0
    9.9796  -14.0768    0.0000 N   0  0  0  0  0  0  0  0  0  0  0  0
   15.0948   -8.8758    0.0000 C   0  0  0  0  0  0  0  0  0  0  0  0
    7.8613  -13.6078    0.0000 N   0  0  0  0  0  0  0  0  0  0  0  0
   14.3522  -10.0882    0.0000 C   0  0  0  0  0  0  0  0  0  0  0  0
   10.0915   -9.9761    0.0000 C   0  0  0  0  0  0  0  0  0  0  0  0
   16.5128   -8.9089    0.0000 O   0  0  0  0  0  0  0  0  0  0  0  0
   11.5111  -10.0120    0.0000 C   0  0  0  0  0  0  0  0  0  0  0  0
    7.1808  -12.3533    0.0000 C   0  0  0  0  0  0  0  0  0  0  0  0
   17.2166   -9.3405    0.0000 C   0  0  0  0  0  0  0  0  0  0  0  0
   15.7922   -9.3047    0.0000 C   0  0  0  0  0  0  0  0  0  0  0  0
    7.8833  -12.7872    0.0000 C   0  0  0  0  0  0  0  0  0  0  0  0
    6.4350  -13.5656    0.0000 O   0  0  0  0  0  0  0  0  0  0  0  0
   14.3771   -9.2673    0.0000 C   0  0  0  0  0  0  0  0  0  0  0  0
   13.6308  -10.4793    0.0000 C   0  0  0  0  0  0  0  0  0  0  0  0
   15.0490  -10.5205    0.0000 C   0  0  0  0  0  0  0  0  0  0  0  0
    8.6260  -11.5775    0.0000 C   0  0  0  0  0  0  0  0  0  0  0  0
    6.4588  -12.7451    0.0000 C   0  0  0  0  0  0  0  0  0  0  0  0
    8.5384  -14.8556    0.0000 O   0  0  0  0  0  0  0  0  0  0  0  0
    8.6024  -12.3947    0.0000 C   0  0  0  0  0  0  0  0  0  0  0  0
    7.2062  -11.5320    0.0000 C   0  0  0  0  0  0  0  0  0  0  0  0
   10.7905  -10.4061    0.0000 C   0  0  0  0  0  0  0  0  0  0  0  0
   10.6984  -13.6860    0.0000 C   0  0  0  0  0  0  0  0  0  0  0  0
   11.4383  -12.4761    0.0000 C   0  0  0  0  0  0  0  0  0  0  0  0
   12.1182  -13.7255    0.0000 C   0  0  0  0  0  0  0  0  0  0  0  0
   10.7226  -12.8669    0.0000 C   0  0  0  0  0  0  0  0  0  0  0  0
    5.7566  -12.3119    0.0000 O   0  0  0  0  0  0  0  0  0  0  0  0
   13.6772   -8.8358    0.0000 C   0  0  0  0  0  0  0  0  0  0  0  0
  3 10  1  0
  9 11  1  0
  4  9  1  0
 11  2  1  0
  7  8  1  0
  1  5  1  0
  5  4  1  0
  6  3  1  0
 10  1  1  0
  8  6  1  0
 40 54  1  0
 23 26  1  0
 52 49  2  0
 48 32  2  0
 50 52  1  0
 30 12  1  0
 22 51  2  0
 35 38  1  0
 28 49  1  0
 14 50  2  0
 38 30  1  0
 43 24  2  0
 52 18  1  0
 51 14  1  0
 49 22  1  0
 13 43  1  0
 35 44  1  0
 40 31  2  0
 44 39  2  0
 53 17  1  0
 18 21  2  0
 21 20  1  0
 25 16  2  0
 15  7  1  0
 37 29  2  0
 47 35  2  0
 33 36  1  0
 46 43  1  0
 27 26  1  0
 38 46  2  0
 42 15  2  0
 12 45  2  0
 29 40  1  0
 15 37  1  0
 19 13  2  0
 13 25  1  0
 37 33  1  0
 24 47  1  0
 41 31  1  0
 32 19  1  0
 27 54  1  0
 16 48  1  0
 34 23  1  0
 12 20  1  0
 44 53  1  0
 26 41  1  0
 48 34  1  0
 20 28  2  0
 31 42  1  0
M  END
>  <Classification>  (253) 
1

>  <pchembl>  (253) 
6.12

>  <InChI_steorem>  (253) 
InChI=1S/C43H47N3O8/c1-49-20-21-52-22-23-53-24-25-54-41-28-35-29-46(19-17-34(35)27-40(41)50-2)18-16-30-8-10-31(11-9-30)33-12-14-36(43(48)51-3)39(26-33)45-42(47)38-15-13-32-6-4-5-7-37(32)44-38/h4-15,26-28H,16-25,29H2,1-3H3,(H,45,47)

>  <source>  (253) 
ChEMBL25

>  <source_id>  (253) 
25

>  <optional_reference>  (253) 
10.1021/ml4000832

>  <optional_origin>  (253) 
None

>  <target>  (253) 
BCRP

$$$$

     RDKit          2D

 62 67  0  0  0  0  0  0  0  0999 V2000
    1.9027  -26.6002    0.0000 C   0  0  0  0  0  0  0  0  0  0  0  0
    1.9016  -27.4275    0.0000 C   0  0  0  0  0  0  0  0  0  0  0  0
    2.6164  -27.8404    0.0000 C   0  0  0  0  0  0  0  0  0  0  0  0
    3.3329  -27.4271    0.0000 C   0  0  0  0  0  0  0  0  0  0  0  0
    3.3300  -26.5965    0.0000 C   0  0  0  0  0  0  0  0  0  0  0  0
    2.6146  -26.1874    0.0000 C   0  0  0  0  0  0  0  0  0  0  0  0
    4.0429  -26.1813    0.0000 C   0  0  0  0  0  0  0  0  0  0  0  0
    4.7590  -26.5912    0.0000 N   0  0  0  0  0  0  0  0  0  0  0  0
    4.7595  -27.4134    0.0000 C   0  0  0  0  0  0  0  0  0  0  0  0
    5.4713  -27.8231    0.0000 C   0  0  0  0  0  0  0  0  0  0  0  0
    5.4691  -26.1711    0.0000 C   0  0  0  0  0  0  0  0  0  0  0  0
    6.1856  -26.5854    0.0000 C   0  0  0  0  0  0  0  0  0  0  0  0
    6.1850  -27.4108    0.0000 C   0  0  0  0  0  0  0  0  0  0  0  0
    6.8983  -27.8223    0.0000 C   0  0  0  0  0  0  0  0  0  0  0  0
    7.6129  -27.4094    0.0000 C   0  0  0  0  0  0  0  0  0  0  0  0
    7.6095  -26.5809    0.0000 C   0  0  0  0  0  0  0  0  0  0  0  0
    6.8955  -26.1731    0.0000 C   0  0  0  0  0  0  0  0  0  0  0  0
    1.1887  -27.8397    0.0000 C   0  0  0  0  0  0  0  0  0  0  0  0
    0.4743  -27.4250    0.0000 C   0  0  0  0  0  0  0  0  0  0  0  0
   -0.2433  -27.8362    0.0000 C   0  0  0  0  0  0  0  0  0  0  0  0
   -0.2422  -28.6621    0.0000 C   0  0  0  0  0  0  0  0  0  0  0  0
    0.4780  -29.0750    0.0000 C   0  0  0  0  0  0  0  0  0  0  0  0
    1.1894  -28.6614    0.0000 C   0  0  0  0  0  0  0  0  0  0  0  0
   -0.9613  -29.0750    0.0000 C   0  0  0  0  0  0  0  0  0  0  0  0
   -1.6716  -28.6629    0.0000 O   0  0  0  0  0  0  0  0  0  0  0  0
   -0.9617  -29.9000    0.0000 O   0  0  0  0  0  0  0  0  0  0  0  0
   -2.3906  -29.0757    0.0000 C   0  0  0  0  0  0  0  0  0  0  0  0
    0.4802  -29.9000    0.0000 N   0  0  0  0  0  0  0  0  0  0  0  0
    1.1959  -30.3105    0.0000 C   0  0  0  0  0  0  0  0  0  0  0  0
    1.1981  -31.1355    0.0000 O   0  0  0  0  0  0  0  0  0  0  0  0
    1.9092  -29.8961    0.0000 C   0  0  0  0  0  0  0  0  0  0  0  0
    2.6240  -30.3103    0.0000 N   0  0  0  0  0  0  0  0  0  0  0  0
    2.6144  -28.6603    0.0000 C   0  0  0  0  0  0  0  0  0  0  0  0
    1.9044  -29.0764    0.0000 C   0  0  0  0  0  0  0  0  0  0  0  0
    3.3350  -29.0707    0.0000 C   0  0  0  0  0  0  0  0  0  0  0  0
    3.3350  -29.8943    0.0000 C   0  0  0  0  0  0  0  0  0  0  0  0
    4.0470  -30.3043    0.0000 C   0  0  0  0  0  0  0  0  0  0  0  0
    4.7596  -29.8917    0.0000 C   0  0  0  0  0  0  0  0  0  0  0  0
    4.7556  -29.0651    0.0000 C   0  0  0  0  0  0  0  0  0  0  0  0
    4.0430  -28.6589    0.0000 C   0  0  0  0  0  0  0  0  0  0  0  0
    8.3221  -26.1652    0.0000 O   0  0  0  0  0  0  0  0  0  0  0  0
    9.0384  -26.5745    0.0000 C   0  0  0  0  0  0  0  0  0  0  0  0
    8.3283  -27.8204    0.0000 O   0  0  0  0  0  0  0  0  0  0  0  0
    9.0418  -27.4063    0.0000 C   0  0  0  0  0  0  0  0  0  0  0  0
    9.7511  -26.1589    0.0000 C   0  0  0  0  0  0  0  0  0  0  0  0
   10.4674  -26.5683    0.0000 O   0  0  0  0  0  0  0  0  0  0  0  0
   11.1800  -26.1526    0.0000 C   0  0  0  0  0  0  0  0  0  0  0  0
   11.8963  -26.5620    0.0000 C   0  0  0  0  0  0  0  0  0  0  0  0
   12.6089  -26.1464    0.0000 O   0  0  0  0  0  0  0  0  0  0  0  0
   13.3252  -26.5556    0.0000 C   0  0  0  0  0  0  0  0  0  0  0  0
   14.0379  -26.1400    0.0000 C   0  0  0  0  0  0  0  0  0  0  0  0
   14.7543  -26.5494    0.0000 O   0  0  0  0  0  0  0  0  0  0  0  0
   15.4669  -26.1338    0.0000 C   0  0  0  0  0  0  0  0  0  0  0  0
    9.7572  -27.8172    0.0000 C   0  0  0  0  0  0  0  0  0  0  0  0
   10.4708  -27.4032    0.0000 O   0  0  0  0  0  0  0  0  0  0  0  0
   11.1862  -27.8141    0.0000 C   0  0  0  0  0  0  0  0  0  0  0  0
   11.8997  -27.3999    0.0000 C   0  0  0  0  0  0  0  0  0  0  0  0
   12.6151  -27.8109    0.0000 O   0  0  0  0  0  0  0  0  0  0  0  0
   13.3287  -27.3968    0.0000 C   0  0  0  0  0  0  0  0  0  0  0  0
   14.0441  -27.8077    0.0000 C   0  0  0  0  0  0  0  0  0  0  0  0
   14.7577  -27.3937    0.0000 O   0  0  0  0  0  0  0  0  0  0  0  0
   15.4731  -27.8046    0.0000 C   0  0  0  0  0  0  0  0  0  0  0  0
  1  2  2  0
  2  3  1  0
  3  4  2  0
  4  5  1  0
  5  6  2  0
  6  1  1  0
  5  7  1  0
  7  8  1  0
  8  9  1  0
  8 11  1  0
  9 10  1  0
 10 13  1  0
 12 11  1  0
 12 13  2  0
 13 14  1  0
 14 15  2  0
 15 16  1  0
 16 17  2  0
 17 12  1  0
 18 19  2  0
 19 20  1  0
 20 21  2  0
 21 22  1  0
 22 23  2  0
 23 18  1  0
  2 18  1  0
 21 24  1  0
 24 25  1  0
 24 26  2  0
 25 27  1  0
 22 28  1  0
 28 29  1  0
 29 30  2  0
 29 31  1  0
 31 32  2  0
 32 36  1  0
 35 33  1  0
 33 34  2  0
 34 31  1  0
 35 36  2  0
 36 37  1  0
 37 38  2  0
 38 39  1  0
 39 40  2  0
 40 35  1  0
 16 41  1  0
 41 42  1  0
 15 43  1  0
 43 44  1  0
 42 45  1  0
 45 46  1  0
 46 47  1  0
 47 48  1  0
 48 49  1  0
 49 50  1  0
 50 51  1  0
 51 52  1  0
 52 53  1  0
 44 54  1  0
 54 55  1  0
 55 56  1  0
 56 57  1  0
 57 58  1  0
 58 59  1  0
 59 60  1  0
 60 61  1  0
 61 62  1  0
M  END
>  <Classification>  (254) 
1

>  <pchembl>  (254) 
6.08

>  <InChI_steorem>  (254) 
InChI=1S/C48H57N3O11/c1-54-18-20-57-22-24-59-26-28-61-45-31-39-16-17-51(34-40(39)32-46(45)62-29-27-60-25-23-58-21-19-55-2)33-35-8-10-36(11-9-35)38-12-14-41(48(53)56-3)44(30-38)50-47(52)43-15-13-37-6-4-5-7-42(37)49-43/h4-15,30-32H,16-29,33-34H2,1-3H3,(H,50,52)

>  <source>  (254) 
ChEMBL25

>  <source_id>  (254) 
25

>  <optional_reference>  (254) 
10.1021/ml4000832

>  <optional_origin>  (254) 
None

>  <target>  (254) 
BCRP

$$$$

     RDKit          2D

 63 68  0  0  0  0  0  0  0  0999 V2000
    5.6713   -8.2245    0.0000 C   0  0  0  0  0  0  0  0  0  0  0  0
    5.6718   -9.0467    0.0000 N   0  0  0  0  0  0  0  0  0  0  0  0
    6.3838   -9.4564    0.0000 C   0  0  0  0  0  0  0  0  0  0  0  0
    6.3815   -7.8044    0.0000 C   0  0  0  0  0  0  0  0  0  0  0  0
    7.0980   -8.2188    0.0000 C   0  0  0  0  0  0  0  0  0  0  0  0
    7.0974   -9.0442    0.0000 C   0  0  0  0  0  0  0  0  0  0  0  0
    7.8108   -9.4557    0.0000 C   0  0  0  0  0  0  0  0  0  0  0  0
    8.5254   -9.0428    0.0000 C   0  0  0  0  0  0  0  0  0  0  0  0
    8.5219   -8.2142    0.0000 C   0  0  0  0  0  0  0  0  0  0  0  0
    7.8080   -7.8064    0.0000 C   0  0  0  0  0  0  0  0  0  0  0  0
    9.2346   -7.7986    0.0000 O   0  0  0  0  0  0  0  0  0  0  0  0
    9.9509   -8.2078    0.0000 C   0  0  0  0  0  0  0  0  0  0  0  0
    9.2407   -9.4538    0.0000 O   0  0  0  0  0  0  0  0  0  0  0  0
    9.9543   -9.0396    0.0000 C   0  0  0  0  0  0  0  0  0  0  0  0
   10.6635   -7.7922    0.0000 C   0  0  0  0  0  0  0  0  0  0  0  0
   11.3798   -8.2016    0.0000 O   0  0  0  0  0  0  0  0  0  0  0  0
   12.0924   -7.7860    0.0000 C   0  0  0  0  0  0  0  0  0  0  0  0
   12.8087   -8.1953    0.0000 C   0  0  0  0  0  0  0  0  0  0  0  0
   13.5214   -7.7797    0.0000 O   0  0  0  0  0  0  0  0  0  0  0  0
   14.2377   -8.1890    0.0000 C   0  0  0  0  0  0  0  0  0  0  0  0
   14.9503   -7.7733    0.0000 C   0  0  0  0  0  0  0  0  0  0  0  0
   15.6666   -8.1827    0.0000 O   0  0  0  0  0  0  0  0  0  0  0  0
   16.3793   -7.7671    0.0000 C   0  0  0  0  0  0  0  0  0  0  0  0
    2.1027   -9.4709    0.0000 C   0  0  0  0  0  0  0  0  0  0  0  0
    2.1016  -10.2982    0.0000 C   0  0  0  0  0  0  0  0  0  0  0  0
    2.8164  -10.7112    0.0000 C   0  0  0  0  0  0  0  0  0  0  0  0
    3.5329  -10.2977    0.0000 C   0  0  0  0  0  0  0  0  0  0  0  0
    3.5300   -9.4673    0.0000 C   0  0  0  0  0  0  0  0  0  0  0  0
    2.8146   -9.0581    0.0000 C   0  0  0  0  0  0  0  0  0  0  0  0
    4.2429   -9.0520    0.0000 C   0  0  0  0  0  0  0  0  0  0  0  0
    1.3888  -10.7105    0.0000 C   0  0  0  0  0  0  0  0  0  0  0  0
    0.6743  -10.2956    0.0000 C   0  0  0  0  0  0  0  0  0  0  0  0
   -0.0433  -10.7069    0.0000 C   0  0  0  0  0  0  0  0  0  0  0  0
   -0.0422  -11.5328    0.0000 C   0  0  0  0  0  0  0  0  0  0  0  0
    0.6780  -11.9458    0.0000 C   0  0  0  0  0  0  0  0  0  0  0  0
    1.3894  -11.5320    0.0000 C   0  0  0  0  0  0  0  0  0  0  0  0
   -0.7613  -11.9457    0.0000 C   0  0  0  0  0  0  0  0  0  0  0  0
   -1.4716  -11.5336    0.0000 O   0  0  0  0  0  0  0  0  0  0  0  0
   -0.7617  -12.7707    0.0000 O   0  0  0  0  0  0  0  0  0  0  0  0
   -2.1907  -11.9465    0.0000 C   0  0  0  0  0  0  0  0  0  0  0  0
    0.6802  -12.7707    0.0000 N   0  0  0  0  0  0  0  0  0  0  0  0
    1.3959  -13.1813    0.0000 C   0  0  0  0  0  0  0  0  0  0  0  0
    1.3981  -14.0063    0.0000 O   0  0  0  0  0  0  0  0  0  0  0  0
    2.1093  -12.7668    0.0000 C   0  0  0  0  0  0  0  0  0  0  0  0
    2.8239  -13.1811    0.0000 N   0  0  0  0  0  0  0  0  0  0  0  0
    2.8144  -11.5310    0.0000 C   0  0  0  0  0  0  0  0  0  0  0  0
    2.1044  -11.9472    0.0000 C   0  0  0  0  0  0  0  0  0  0  0  0
    3.5350  -11.9414    0.0000 C   0  0  0  0  0  0  0  0  0  0  0  0
    3.5350  -12.7649    0.0000 C   0  0  0  0  0  0  0  0  0  0  0  0
    4.2470  -13.1749    0.0000 C   0  0  0  0  0  0  0  0  0  0  0  0
    4.9596  -12.7625    0.0000 C   0  0  0  0  0  0  0  0  0  0  0  0
    4.9556  -11.9358    0.0000 C   0  0  0  0  0  0  0  0  0  0  0  0
    4.2430  -11.5295    0.0000 C   0  0  0  0  0  0  0  0  0  0  0  0
    4.9590   -9.4618    0.0000 C   0  0  0  0  0  0  0  0  0  0  0  0
   10.6697   -9.4505    0.0000 C   0  0  0  0  0  0  0  0  0  0  0  0
   11.3832   -9.0365    0.0000 O   0  0  0  0  0  0  0  0  0  0  0  0
   12.0986   -9.4474    0.0000 C   0  0  0  0  0  0  0  0  0  0  0  0
   12.8122   -9.0333    0.0000 C   0  0  0  0  0  0  0  0  0  0  0  0
   13.5275   -9.4443    0.0000 O   0  0  0  0  0  0  0  0  0  0  0  0
   14.2411   -9.0301    0.0000 C   0  0  0  0  0  0  0  0  0  0  0  0
   14.9565   -9.4410    0.0000 C   0  0  0  0  0  0  0  0  0  0  0  0
   15.6700   -9.0270    0.0000 O   0  0  0  0  0  0  0  0  0  0  0  0
   16.3854   -9.4379    0.0000 C   0  0  0  0  0  0  0  0  0  0  0  0
  1  2  1  0
  1  4  1  0
  2  3  1  0
  3  6  1  0
  5  4  1  0
  5  6  2  0
  6  7  1  0
  7  8  2  0
  8  9  1  0
  9 10  2  0
 10  5  1  0
  9 11  1  0
 11 12  1  0
  8 13  1  0
 13 14  1  0
 12 15  1  0
 15 16  1  0
 16 17  1  0
 17 18  1  0
 18 19  1  0
 19 20  1  0
 20 21  1  0
 21 22  1  0
 22 23  1  0
 24 25  2  0
 25 26  1  0
 26 27  2  0
 27 28  1  0
 28 29  2  0
 29 24  1  0
 28 30  1  0
 31 32  2  0
 32 33  1  0
 33 34  2  0
 34 35  1  0
 35 36  2  0
 36 31  1  0
 25 31  1  0
 34 37  1  0
 37 38  1  0
 37 39  2  0
 38 40  1  0
 35 41  1  0
 41 42  1  0
 42 43  2  0
 42 44  1  0
 44 45  2  0
 45 49  1  0
 48 46  1  0
 46 47  2  0
 47 44  1  0
 48 49  2  0
 49 50  1  0
 50 51  2  0
 51 52  1  0
 52 53  2  0
 53 48  1  0
 30 54  1  0
 54  2  1  0
 14 55  1  0
 55 56  1  0
 56 57  1  0
 57 58  1  0
 58 59  1  0
 59 60  1  0
 60 61  1  0
 61 62  1  0
 62 63  1  0
M  END
>  <Classification>  (255) 
1

>  <pchembl>  (255) 
6.26

>  <InChI_steorem>  (255) 
InChI=1S/C49H59N3O11/c1-55-20-22-58-24-26-60-28-30-62-46-33-40-17-19-52(35-41(40)34-47(46)63-31-29-61-27-25-59-23-21-56-2)18-16-36-8-10-37(11-9-36)39-12-14-42(49(54)57-3)45(32-39)51-48(53)44-15-13-38-6-4-5-7-43(38)50-44/h4-15,32-34H,16-31,35H2,1-3H3,(H,51,53)

>  <source>  (255) 
ChEMBL25

>  <source_id>  (255) 
25

>  <optional_reference>  (255) 
10.1021/ml4000832

>  <optional_origin>  (255) 
None

>  <target>  (255) 
BCRP

$$$$

     RDKit          2D

 34 37  0  0  0  0  0  0  0  0999 V2000
    1.5208  -15.6837    0.0000 C   0  0  0  0  0  0  0  0  0  0  0  0
    0.8044  -16.0982    0.0000 C   0  0  0  0  0  0  0  0  0  0  0  0
    0.0921  -15.6837    0.0000 C   0  0  0  0  0  0  0  0  0  0  0  0
    0.0921  -14.8588    0.0000 C   0  0  0  0  0  0  0  0  0  0  0  0
   -0.6200  -14.4483    0.0000 C   0  0  0  0  0  0  0  0  0  0  0  0
   -0.6200  -13.6233    0.0000 C   0  0  0  0  0  0  0  0  0  0  0  0
    0.0921  -13.2088    0.0000 C   0  0  0  0  0  0  0  0  0  0  0  0
    0.8044  -13.6233    0.0000 C   0  0  0  0  0  0  0  0  0  0  0  0
    0.8044  -14.4483    0.0000 C   0  0  0  0  0  0  0  0  0  0  0  0
    1.5208  -14.8588    0.0000 O   0  0  0  0  0  0  0  0  0  0  0  0
    2.2372  -16.0982    0.0000 C   0  0  0  0  0  0  0  0  0  0  0  0
    2.2372  -16.9232    0.0000 O   0  0  0  0  0  0  0  0  0  0  0  0
    2.9494  -15.6837    0.0000 N   0  0  0  0  0  0  0  0  0  0  0  0
   -0.6200  -16.0982    0.0000 O   0  0  0  0  0  0  0  0  0  0  0  0
    3.6658  -16.0982    0.0000 C   0  0  0  0  0  0  0  0  0  0  0  0
    4.3822  -15.6837    0.0000 C   0  0  0  0  0  0  0  0  0  0  0  0
    5.0985  -16.0982    0.0000 C   0  0  0  0  0  0  0  0  0  0  0  0
    5.8066  -15.6837    0.0000 C   0  0  0  0  0  0  0  0  0  0  0  0
    6.5230  -16.0982    0.0000 C   0  0  0  0  0  0  0  0  0  0  0  0
    6.5230  -16.9232    0.0000 C   0  0  0  0  0  0  0  0  0  0  0  0
    5.8066  -17.3337    0.0000 C   0  0  0  0  0  0  0  0  0  0  0  0
    5.0985  -16.9232    0.0000 C   0  0  0  0  0  0  0  0  0  0  0  0
    7.2353  -17.3337    0.0000 O   0  0  0  0  0  0  0  0  0  0  0  0
    7.9516  -16.9232    0.0000 C   0  0  0  0  0  0  0  0  0  0  0  0
    7.2353  -15.6837    0.0000 O   0  0  0  0  0  0  0  0  0  0  0  0
    7.9516  -16.0982    0.0000 C   0  0  0  0  0  0  0  0  0  0  0  0
   -1.3365  -14.8588    0.0000 O   0  0  0  0  0  0  0  0  0  0  0  0
   -2.0487  -14.4483    0.0000 C   0  0  0  0  0  0  0  0  0  0  0  0
   -2.7651  -14.8588    0.0000 C   0  0  0  0  0  0  0  0  0  0  0  0
   -2.7651  -15.6837    0.0000 C   0  0  0  0  0  0  0  0  0  0  0  0
   -3.4815  -16.0982    0.0000 C   0  0  0  0  0  0  0  0  0  0  0  0
   -4.1937  -15.6837    0.0000 C   0  0  0  0  0  0  0  0  0  0  0  0
   -4.1937  -14.8588    0.0000 C   0  0  0  0  0  0  0  0  0  0  0  0
   -3.4815  -14.4483    0.0000 C   0  0  0  0  0  0  0  0  0  0  0  0
  1  2  2  0
  2  3  1  0
  3  4  1  0
  4  5  2  0
  5  6  1  0
  6  7  2  0
  7  8  1  0
  8  9  2  0
  4  9  1  0
  9 10  1  0
  1 10  1  0
 11 12  2  0
 11 13  1  0
  1 11  1  0
  3 14  2  0
 15 16  1  0
 16 17  1  0
 17 18  2  0
 18 19  1  0
 19 20  2  0
 20 21  1  0
 21 22  2  0
 17 22  1  0
 23 24  1  0
 20 23  1  0
 25 26  1  0
 19 25  1  0
 13 15  1  0
 28 29  1  0
 29 30  2  0
 30 31  1  0
 31 32  2  0
 32 33  1  0
 33 34  2  0
 29 34  1  0
 27 28  1  0
  5 27  1  0
M  END
>  <Classification>  (256) 
1

>  <pchembl>  (256) 
6.77

>  <InChI_steorem>  (256) 
InChI=1S/C27H25NO6/c1-31-21-12-11-18(15-24(21)32-2)13-14-28-27(30)25-16-20(29)26-22(9-6-10-23(26)34-25)33-17-19-7-4-3-5-8-19/h3-12,15-16H,13-14,17H2,1-2H3,(H,28,30)

>  <source>  (256) 
ChEMBL25

>  <source_id>  (256) 
25

>  <optional_reference>  (256) 
10.1021/jm201404w

>  <optional_origin>  (256) 
None

>  <target>  (256) 
BCRP

$$$$

     RDKit          2D

 34 38  0  0  0  0  0  0  0  0999 V2000
    0.3900    1.3583    0.0000 C   0  0  0  0  0  0  0  0  0  0  0  0
    1.1058    1.7708    0.0000 C   0  0  0  0  0  0  0  0  0  0  0  0
    1.8175    1.3583    0.0000 C   0  0  0  0  0  0  0  0  0  0  0  0
    1.8175    0.5333    0.0000 C   0  0  0  0  0  0  0  0  0  0  0  0
    2.5334    0.1208    0.0000 C   0  0  0  0  0  0  0  0  0  0  0  0
    2.5334   -0.7042    0.0000 C   0  0  0  0  0  0  0  0  0  0  0  0
    1.8175   -1.1167    0.0000 C   0  0  0  0  0  0  0  0  0  0  0  0
    1.1058   -0.7042    0.0000 C   0  0  0  0  0  0  0  0  0  0  0  0
    1.1058    0.1208    0.0000 C   0  0  0  0  0  0  0  0  0  0  0  0
    0.3900    0.5333    0.0000 O   0  0  0  0  0  0  0  0  0  0  0  0
    2.5334    1.7708    0.0000 O   0  0  0  0  0  0  0  0  0  0  0  0
   -0.3217    1.7708    0.0000 C   0  0  0  0  0  0  0  0  0  0  0  0
   -0.3217    2.5958    0.0000 O   0  0  0  0  0  0  0  0  0  0  0  0
   -1.0376    1.3583    0.0000 N   0  0  0  0  0  0  0  0  0  0  0  0
   -1.0376    0.5333    0.0000 C   0  0  0  0  0  0  0  0  0  0  0  0
   -1.7534    0.1208    0.0000 C   0  0  0  0  0  0  0  0  0  0  0  0
   -2.4693    0.5333    0.0000 N   0  0  0  0  0  0  0  0  0  0  0  0
   -2.4693    1.3583    0.0000 C   0  0  0  0  0  0  0  0  0  0  0  0
   -1.7534    1.7708    0.0000 C   0  0  0  0  0  0  0  0  0  0  0  0
    3.2493    0.5333    0.0000 O   0  0  0  0  0  0  0  0  0  0  0  0
    3.9651    0.1208    0.0000 C   0  0  0  0  0  0  0  0  0  0  0  0
    4.6768    0.5333    0.0000 C   0  0  0  0  0  0  0  0  0  0  0  0
    4.6768    1.3583    0.0000 C   0  0  0  0  0  0  0  0  0  0  0  0
    5.3927    1.7708    0.0000 C   0  0  0  0  0  0  0  0  0  0  0  0
    6.1044    1.3583    0.0000 C   0  0  0  0  0  0  0  0  0  0  0  0
    6.1044    0.5333    0.0000 C   0  0  0  0  0  0  0  0  0  0  0  0
    5.3927    0.1208    0.0000 C   0  0  0  0  0  0  0  0  0  0  0  0
   -3.1836    0.1205    0.0000 C   0  0  0  0  0  0  0  0  0  0  0  0
   -3.8983    0.5327    0.0000 C   0  0  0  0  0  0  0  0  0  0  0  0
   -3.8941    1.3582    0.0000 C   0  0  0  0  0  0  0  0  0  0  0  0
   -4.6079    1.7703    0.0000 C   0  0  0  0  0  0  0  0  0  0  0  0
   -5.3232    1.3575    0.0000 C   0  0  0  0  0  0  0  0  0  0  0  0
   -5.3202    0.5282    0.0000 C   0  0  0  0  0  0  0  0  0  0  0  0
   -4.6058    0.1198    0.0000 C   0  0  0  0  0  0  0  0  0  0  0  0
  7  8  2  0
  8  9  1  0
  4  9  2  0
  9 10  1  0
  1 10  1  0
  3 11  2  0
 12 13  2  0
 14 15  1  0
 15 16  1  0
 16 17  1  0
 17 18  1  0
 18 19  1  0
 14 19  1  0
 12 14  1  0
  1 12  1  0
 21 22  1  0
 22 23  2  0
 23 24  1  0
 24 25  2  0
 25 26  1  0
 26 27  2  0
 22 27  1  0
 20 21  1  0
  5 20  1  0
 17 28  1  0
  1  2  2  0
 28 29  1  0
  2  3  1  0
 29 30  2  0
  3  4  1  0
 30 31  1  0
  4  5  1  0
 31 32  2  0
  5  6  2  0
 32 33  1  0
  6  7  1  0
 33 34  2  0
 34 29  1  0
M  END
>  <Classification>  (257) 
0

>  <pchembl>  (257) 
4.79

>  <InChI_steorem>  (257) 
InChI=1S/C28H26N2O4/c31-23-18-26(28(32)30-16-14-29(15-17-30)19-21-8-3-1-4-9-21)34-25-13-7-12-24(27(23)25)33-20-22-10-5-2-6-11-22/h1-13,18H,14-17,19-20H2

>  <source>  (257) 
ChEMBL25

>  <source_id>  (257) 
25

>  <optional_reference>  (257) 
10.1016/j.ejmech.2015.12.010

>  <optional_origin>  (257) 
None

>  <target>  (257) 
BCRP

$$$$

     RDKit          2D

 35 39  0  0  0  0  0  0  0  0999 V2000
    0.5888   -4.7854    0.0000 C   0  0  0  0  0  0  0  0  0  0  0  0
   -0.1235   -5.2000    0.0000 C   0  0  0  0  0  0  0  0  0  0  0  0
   -0.8398   -4.7854    0.0000 C   0  0  0  0  0  0  0  0  0  0  0  0
   -0.8398   -3.9604    0.0000 C   0  0  0  0  0  0  0  0  0  0  0  0
   -1.5562   -3.5500    0.0000 C   0  0  0  0  0  0  0  0  0  0  0  0
   -1.5562   -2.7251    0.0000 C   0  0  0  0  0  0  0  0  0  0  0  0
   -0.8398   -2.3105    0.0000 C   0  0  0  0  0  0  0  0  0  0  0  0
   -0.1235   -2.7251    0.0000 C   0  0  0  0  0  0  0  0  0  0  0  0
   -0.1235   -3.5500    0.0000 C   0  0  0  0  0  0  0  0  0  0  0  0
    0.5888   -3.9604    0.0000 O   0  0  0  0  0  0  0  0  0  0  0  0
    1.3052   -5.2000    0.0000 C   0  0  0  0  0  0  0  0  0  0  0  0
    1.3052   -6.0249    0.0000 O   0  0  0  0  0  0  0  0  0  0  0  0
    2.0216   -4.7854    0.0000 N   0  0  0  0  0  0  0  0  0  0  0  0
   -1.5562   -5.2000    0.0000 O   0  0  0  0  0  0  0  0  0  0  0  0
    2.7338   -5.2000    0.0000 C   0  0  0  0  0  0  0  0  0  0  0  0
    3.4502   -4.7854    0.0000 C   0  0  0  0  0  0  0  0  0  0  0  0
    4.9104   -6.3011    0.0000 N   0  0  0  0  0  0  0  0  0  0  0  0
    4.1350   -6.0220    0.0000 C   0  0  0  0  0  0  0  0  0  0  0  0
    4.1624   -5.2000    0.0000 C   0  0  0  0  0  0  0  0  0  0  0  0
    4.9516   -4.9647    0.0000 C   0  0  0  0  0  0  0  0  0  0  0  0
    5.3153   -4.2261    0.0000 C   0  0  0  0  0  0  0  0  0  0  0  0
    6.1368   -4.1652    0.0000 C   0  0  0  0  0  0  0  0  0  0  0  0
    6.5991   -4.8477    0.0000 C   0  0  0  0  0  0  0  0  0  0  0  0
    6.2394   -5.5905    0.0000 C   0  0  0  0  0  0  0  0  0  0  0  0
    5.4180   -5.6473    0.0000 C   0  0  0  0  0  0  0  0  0  0  0  0
    6.4970   -3.4225    0.0000 O   0  0  0  0  0  0  0  0  0  0  0  0
    7.3183   -3.3659    0.0000 C   0  0  0  0  0  0  0  0  0  0  0  0
   -2.2643   -3.9604    0.0000 O   0  0  0  0  0  0  0  0  0  0  0  0
   -2.9807   -3.5500    0.0000 C   0  0  0  0  0  0  0  0  0  0  0  0
   -3.6971   -3.9604    0.0000 C   0  0  0  0  0  0  0  0  0  0  0  0
   -3.6971   -4.7854    0.0000 C   0  0  0  0  0  0  0  0  0  0  0  0
   -4.4094   -5.2000    0.0000 C   0  0  0  0  0  0  0  0  0  0  0  0
   -5.1257   -4.7854    0.0000 C   0  0  0  0  0  0  0  0  0  0  0  0
   -5.1257   -3.9604    0.0000 C   0  0  0  0  0  0  0  0  0  0  0  0
   -4.4094   -3.5500    0.0000 C   0  0  0  0  0  0  0  0  0  0  0  0
  1  2  2  0
  2  3  1  0
  3  4  1  0
  4  5  2  0
  5  6  1  0
  6  7  2  0
  7  8  1  0
  8  9  2  0
  4  9  1  0
  9 10  1  0
  1 10  1  0
 11 12  2  0
 11 13  1  0
  1 11  1  0
  3 14  2  0
 15 16  1  0
 17 18  1  0
 18 19  2  0
 19 20  1  0
 20 21  2  0
 21 22  1  0
 22 23  2  0
 23 24  1  0
 24 25  2  0
 17 25  1  0
 20 25  1  0
 26 27  1  0
 22 26  1  0
 16 19  1  0
 13 15  1  0
 29 30  1  0
 30 31  2  0
 31 32  1  0
 32 33  2  0
 33 34  1  0
 34 35  2  0
 30 35  1  0
 28 29  1  0
  5 28  1  0
M  END
>  <Classification>  (258) 
1

>  <pchembl>  (258) 
6.75

>  <InChI_steorem>  (258) 
InChI=1S/C28H24N2O5/c1-33-20-10-11-22-21(14-20)19(16-30-22)12-13-29-28(32)26-15-23(31)27-24(8-5-9-25(27)35-26)34-17-18-6-3-2-4-7-18/h2-11,14-16,30H,12-13,17H2,1H3,(H,29,32)

>  <source>  (258) 
ChEMBL25

>  <source_id>  (258) 
25

>  <optional_reference>  (258) 
10.1021/jm201404w

>  <optional_origin>  (258) 
None

>  <target>  (258) 
BCRP

$$$$

     RDKit          2D

 36 40  0  0  0  0  0  0  0  0999 V2000
    0.3335  -10.0835    0.0000 C   0  0  0  0  0  0  0  0  0  0  0  0
   -0.3782  -10.4960    0.0000 C   0  0  0  0  0  0  0  0  0  0  0  0
   -1.0940  -10.0835    0.0000 C   0  0  0  0  0  0  0  0  0  0  0  0
   -1.0940   -9.2586    0.0000 C   0  0  0  0  0  0  0  0  0  0  0  0
   -1.8098   -8.8462    0.0000 C   0  0  0  0  0  0  0  0  0  0  0  0
   -1.8098   -8.0213    0.0000 C   0  0  0  0  0  0  0  0  0  0  0  0
   -1.0940   -7.6088    0.0000 C   0  0  0  0  0  0  0  0  0  0  0  0
   -0.3782   -8.0213    0.0000 C   0  0  0  0  0  0  0  0  0  0  0  0
   -0.3782   -8.8462    0.0000 C   0  0  0  0  0  0  0  0  0  0  0  0
    0.3335   -9.2586    0.0000 O   0  0  0  0  0  0  0  0  0  0  0  0
    1.0492  -10.4960    0.0000 C   0  0  0  0  0  0  0  0  0  0  0  0
    1.0492  -11.3209    0.0000 O   0  0  0  0  0  0  0  0  0  0  0  0
    1.7650  -10.0835    0.0000 N   0  0  0  0  0  0  0  0  0  0  0  0
   -1.8098  -10.4960    0.0000 O   0  0  0  0  0  0  0  0  0  0  0  0
    2.4766  -10.4960    0.0000 C   0  0  0  0  0  0  0  0  0  0  0  0
    3.1924  -10.0835    0.0000 C   0  0  0  0  0  0  0  0  0  0  0  0
    4.6556  -11.5984    0.0000 N   0  0  0  0  0  0  0  0  0  0  0  0
    3.8806  -11.3180    0.0000 C   0  0  0  0  0  0  0  0  0  0  0  0
    3.9081  -10.4960    0.0000 C   0  0  0  0  0  0  0  0  0  0  0  0
    4.6970  -10.2637    0.0000 C   0  0  0  0  0  0  0  0  0  0  0  0
    5.0585   -9.5214    0.0000 C   0  0  0  0  0  0  0  0  0  0  0  0
    5.8798   -9.4644    0.0000 C   0  0  0  0  0  0  0  0  0  0  0  0
    6.3444  -10.1461    0.0000 C   0  0  0  0  0  0  0  0  0  0  0  0
    5.9829  -10.8884    0.0000 C   0  0  0  0  0  0  0  0  0  0  0  0
    5.1616  -10.9454    0.0000 C   0  0  0  0  0  0  0  0  0  0  0  0
    6.2418   -8.7180    0.0000 O   0  0  0  0  0  0  0  0  0  0  0  0
    7.0631   -8.6610    0.0000 C   0  0  0  0  0  0  0  0  0  0  0  0
   -2.5214   -9.2586    0.0000 O   0  0  0  0  0  0  0  0  0  0  0  0
   -3.2371   -8.8462    0.0000 C   0  0  0  0  0  0  0  0  0  0  0  0
   -3.9529   -9.2586    0.0000 C   0  0  0  0  0  0  0  0  0  0  0  0
   -3.9529  -10.0835    0.0000 C   0  0  0  0  0  0  0  0  0  0  0  0
   -4.6645  -10.4960    0.0000 C   0  0  0  0  0  0  0  0  0  0  0  0
   -5.3803  -10.0835    0.0000 C   0  0  0  0  0  0  0  0  0  0  0  0
   -5.3803   -9.2586    0.0000 C   0  0  0  0  0  0  0  0  0  0  0  0
   -4.6645   -8.8462    0.0000 C   0  0  0  0  0  0  0  0  0  0  0  0
   -6.0948  -10.4959    0.0000 Br  0  0  0  0  0  0  0  0  0  0  0  0
  1  2  2  0
  2  3  1  0
  3  4  1  0
  4  5  2  0
  5  6  1  0
  6  7  2  0
  7  8  1  0
  8  9  2  0
  4  9  1  0
  9 10  1  0
  1 10  1  0
 11 12  2  0
 11 13  1  0
  1 11  1  0
  3 14  2  0
 15 16  1  0
 17 18  1  0
 18 19  2  0
 19 20  1  0
 20 21  2  0
 21 22  1  0
 22 23  2  0
 23 24  1  0
 24 25  2  0
 17 25  1  0
 20 25  1  0
 26 27  1  0
 22 26  1  0
 16 19  1  0
 13 15  1  0
 29 30  1  0
 30 31  2  0
 31 32  1  0
 32 33  2  0
 33 34  1  0
 34 35  2  0
 30 35  1  0
 28 29  1  0
  5 28  1  0
 33 36  1  0
M  END
>  <Classification>  (259) 
1

>  <pchembl>  (259) 
6.96

>  <InChI_steorem>  (259) 
InChI=1S/C28H23BrN2O5/c1-34-20-9-10-22-21(13-20)18(15-31-22)11-12-30-28(33)26-14-23(32)27-24(3-2-4-25(27)36-26)35-16-17-5-7-19(29)8-6-17/h2-10,13-15,31H,11-12,16H2,1H3,(H,30,33)

>  <source>  (259) 
ChEMBL25

>  <source_id>  (259) 
25

>  <optional_reference>  (259) 
10.1021/jm201404w

>  <optional_origin>  (259) 
None

>  <target>  (259) 
BCRP

$$$$

     RDKit          2D

 36 40  0  0  0  0  0  0  0  0999 V2000
    0.3335  -10.0835    0.0000 C   0  0  0  0  0  0  0  0  0  0  0  0
   -0.3782  -10.4960    0.0000 C   0  0  0  0  0  0  0  0  0  0  0  0
   -1.0940  -10.0835    0.0000 C   0  0  0  0  0  0  0  0  0  0  0  0
   -1.0940   -9.2586    0.0000 C   0  0  0  0  0  0  0  0  0  0  0  0
   -1.8098   -8.8462    0.0000 C   0  0  0  0  0  0  0  0  0  0  0  0
   -1.8098   -8.0213    0.0000 C   0  0  0  0  0  0  0  0  0  0  0  0
   -1.0940   -7.6088    0.0000 C   0  0  0  0  0  0  0  0  0  0  0  0
   -0.3782   -8.0213    0.0000 C   0  0  0  0  0  0  0  0  0  0  0  0
   -0.3782   -8.8462    0.0000 C   0  0  0  0  0  0  0  0  0  0  0  0
    0.3335   -9.2586    0.0000 O   0  0  0  0  0  0  0  0  0  0  0  0
    1.0492  -10.4960    0.0000 C   0  0  0  0  0  0  0  0  0  0  0  0
    1.0492  -11.3209    0.0000 O   0  0  0  0  0  0  0  0  0  0  0  0
    1.7650  -10.0835    0.0000 N   0  0  0  0  0  0  0  0  0  0  0  0
   -1.8098  -10.4960    0.0000 O   0  0  0  0  0  0  0  0  0  0  0  0
    2.4766  -10.4960    0.0000 C   0  0  0  0  0  0  0  0  0  0  0  0
    3.1924  -10.0835    0.0000 C   0  0  0  0  0  0  0  0  0  0  0  0
    4.6556  -11.5984    0.0000 N   0  0  0  0  0  0  0  0  0  0  0  0
    3.8806  -11.3180    0.0000 C   0  0  0  0  0  0  0  0  0  0  0  0
    3.9081  -10.4960    0.0000 C   0  0  0  0  0  0  0  0  0  0  0  0
    4.6970  -10.2637    0.0000 C   0  0  0  0  0  0  0  0  0  0  0  0
    5.0585   -9.5214    0.0000 C   0  0  0  0  0  0  0  0  0  0  0  0
    5.8798   -9.4644    0.0000 C   0  0  0  0  0  0  0  0  0  0  0  0
    6.3444  -10.1461    0.0000 C   0  0  0  0  0  0  0  0  0  0  0  0
    5.9829  -10.8884    0.0000 C   0  0  0  0  0  0  0  0  0  0  0  0
    5.1616  -10.9454    0.0000 C   0  0  0  0  0  0  0  0  0  0  0  0
    6.2418   -8.7180    0.0000 O   0  0  0  0  0  0  0  0  0  0  0  0
    7.0631   -8.6610    0.0000 C   0  0  0  0  0  0  0  0  0  0  0  0
   -2.5214   -9.2586    0.0000 O   0  0  0  0  0  0  0  0  0  0  0  0
   -3.2371   -8.8462    0.0000 C   0  0  0  0  0  0  0  0  0  0  0  0
   -3.9529   -9.2586    0.0000 C   0  0  0  0  0  0  0  0  0  0  0  0
   -3.9529  -10.0835    0.0000 C   0  0  0  0  0  0  0  0  0  0  0  0
   -4.6645  -10.4960    0.0000 C   0  0  0  0  0  0  0  0  0  0  0  0
   -5.3803  -10.0835    0.0000 C   0  0  0  0  0  0  0  0  0  0  0  0
   -5.3803   -9.2586    0.0000 C   0  0  0  0  0  0  0  0  0  0  0  0
   -4.6645   -8.8462    0.0000 C   0  0  0  0  0  0  0  0  0  0  0  0
   -6.0956  -10.4963    0.0000 C   0  0  0  0  0  0  0  0  0  0  0  0
  1  2  2  0
  2  3  1  0
  3  4  1  0
  4  5  2  0
  5  6  1  0
  6  7  2  0
  7  8  1  0
  8  9  2  0
  4  9  1  0
  9 10  1  0
  1 10  1  0
 11 12  2  0
 11 13  1  0
  1 11  1  0
  3 14  2  0
 15 16  1  0
 17 18  1  0
 18 19  2  0
 19 20  1  0
 20 21  2  0
 21 22  1  0
 22 23  2  0
 23 24  1  0
 24 25  2  0
 17 25  1  0
 20 25  1  0
 26 27  1  0
 22 26  1  0
 16 19  1  0
 13 15  1  0
 29 30  1  0
 30 31  2  0
 31 32  1  0
 32 33  2  0
 33 34  1  0
 34 35  2  0
 30 35  1  0
 28 29  1  0
  5 28  1  0
 33 36  1  0
M  END
>  <Classification>  (260) 
1

>  <pchembl>  (260) 
6.7

>  <InChI_steorem>  (260) 
InChI=1S/C29H26N2O5/c1-18-6-8-19(9-7-18)17-35-25-4-3-5-26-28(25)24(32)15-27(36-26)29(33)30-13-12-20-16-31-23-11-10-21(34-2)14-22(20)23/h3-11,14-16,31H,12-13,17H2,1-2H3,(H,30,33)

>  <source>  (260) 
ChEMBL25

>  <source_id>  (260) 
25

>  <optional_reference>  (260) 
10.1021/jm201404w

>  <optional_origin>  (260) 
None

>  <target>  (260) 
BCRP

$$$$

     RDKit          2D

 36 40  0  0  0  0  0  0  0  0999 V2000
   15.4883  -11.4318    0.0000 C   0  0  0  0  0  0  0  0  0  0  0  0
   14.7724  -11.8443    0.0000 C   0  0  0  0  0  0  0  0  0  0  0  0
   14.0565  -11.4318    0.0000 C   0  0  0  0  0  0  0  0  0  0  0  0
   14.0565  -10.6068    0.0000 C   0  0  0  0  0  0  0  0  0  0  0  0
   13.3448  -10.1943    0.0000 C   0  0  0  0  0  0  0  0  0  0  0  0
   13.3448   -9.3693    0.0000 C   0  0  0  0  0  0  0  0  0  0  0  0
   14.0565   -8.9568    0.0000 C   0  0  0  0  0  0  0  0  0  0  0  0
   14.7724   -9.3693    0.0000 C   0  0  0  0  0  0  0  0  0  0  0  0
   14.7724  -10.1943    0.0000 C   0  0  0  0  0  0  0  0  0  0  0  0
   15.4883  -10.6068    0.0000 O   0  0  0  0  0  0  0  0  0  0  0  0
   16.2041  -11.8443    0.0000 C   0  0  0  0  0  0  0  0  0  0  0  0
   16.2041  -12.6693    0.0000 O   0  0  0  0  0  0  0  0  0  0  0  0
   16.9158  -11.4318    0.0000 N   0  0  0  0  0  0  0  0  0  0  0  0
   13.3448  -11.8443    0.0000 O   0  0  0  0  0  0  0  0  0  0  0  0
   17.6317  -11.8443    0.0000 C   0  0  0  0  0  0  0  0  0  0  0  0
   18.3434  -11.4318    0.0000 C   0  0  0  0  0  0  0  0  0  0  0  0
   19.8032  -12.9493    0.0000 N   0  0  0  0  0  0  0  0  0  0  0  0
   19.0290  -12.6664    0.0000 C   0  0  0  0  0  0  0  0  0  0  0  0
   19.0589  -11.8444    0.0000 C   0  0  0  0  0  0  0  0  0  0  0  0
   19.8530  -11.6151    0.0000 C   0  0  0  0  0  0  0  0  0  0  0  0
   20.2126  -10.8733    0.0000 C   0  0  0  0  0  0  0  0  0  0  0  0
   21.0384  -10.8195    0.0000 C   0  0  0  0  0  0  0  0  0  0  0  0
   21.4967  -11.5022    0.0000 C   0  0  0  0  0  0  0  0  0  0  0  0
   21.1376  -12.2399    0.0000 C   0  0  0  0  0  0  0  0  0  0  0  0
   20.3113  -12.2978    0.0000 C   0  0  0  0  0  0  0  0  0  0  0  0
   21.3986  -10.0736    0.0000 O   0  0  0  0  0  0  0  0  0  0  0  0
   22.2208  -10.0150    0.0000 C   0  0  0  0  0  0  0  0  0  0  0  0
   12.6290  -10.6068    0.0000 O   0  0  0  0  0  0  0  0  0  0  0  0
   11.9131  -10.1943    0.0000 C   0  0  0  0  0  0  0  0  0  0  0  0
   11.1990  -10.6074    0.0000 C   0  0  0  0  0  0  0  0  0  0  0  0
   10.4842  -10.1955    0.0000 C   0  0  0  0  0  0  0  0  0  0  0  0
   10.4871   -9.3733    0.0000 C   0  0  0  0  0  0  0  0  0  0  0  0
    9.7731   -8.9615    0.0000 C   0  0  0  0  0  0  0  0  0  0  0  0
    9.0580   -9.3746    0.0000 C   0  0  0  0  0  0  0  0  0  0  0  0
    9.0613  -10.2039    0.0000 C   0  0  0  0  0  0  0  0  0  0  0  0
    9.7759  -10.6120    0.0000 C   0  0  0  0  0  0  0  0  0  0  0  0
  7  8  2  0
  8  9  1  0
  4  9  2  0
  9 10  1  0
  1 10  1  0
 11 12  2  0
 11 13  1  0
  1 11  1  0
  3 14  2  0
 15 16  1  0
 17 18  1  0
 18 19  2  0
 19 20  1  0
 20 21  2  0
 21 22  1  0
 22 23  2  0
 23 24  1  0
 24 25  2  0
 17 25  1  0
 20 25  1  0
 26 27  1  0
 22 26  1  0
 16 19  1  0
 13 15  1  0
 28 29  1  0
  5 28  1  0
 29 30  1  0
  1  2  2  0
 30 31  1  0
  2  3  1  0
 31 32  2  0
  3  4  1  0
 32 33  1  0
  4  5  1  0
 33 34  2  0
  5  6  2  0
 34 35  1  0
  6  7  1  0
 35 36  2  0
 36 31  1  0
M  END
>  <Classification>  (261) 
1

>  <pchembl>  (261) 
6.8

>  <InChI_steorem>  (261) 
InChI=1S/C29H26N2O5/c1-34-21-10-11-23-22(16-21)20(18-31-23)12-14-30-29(33)27-17-24(32)28-25(8-5-9-26(28)36-27)35-15-13-19-6-3-2-4-7-19/h2-11,16-18,31H,12-15H2,1H3,(H,30,33)

>  <source>  (261) 
ChEMBL25

>  <source_id>  (261) 
25

>  <optional_reference>  (261) 
10.1021/jm201404w

>  <optional_origin>  (261) 
None

>  <target>  (261) 
BCRP

$$$$

     RDKit          2D

 39 42  0  0  0  0  0  0  0  0999 V2000
   15.6543    1.7953    0.0000 C   0  0  0  0  0  0  0  0  0  0  0  0
   16.3707    2.2057    0.0000 C   0  0  0  0  0  0  0  0  0  0  0  0
   17.0872    1.7953    0.0000 C   0  0  0  0  0  0  0  0  0  0  0  0
   17.0872    0.9702    0.0000 C   0  0  0  0  0  0  0  0  0  0  0  0
   17.7995    0.5555    0.0000 C   0  0  0  0  0  0  0  0  0  0  0  0
   17.7995   -0.2695    0.0000 C   0  0  0  0  0  0  0  0  0  0  0  0
   17.0872   -0.6799    0.0000 C   0  0  0  0  0  0  0  0  0  0  0  0
   16.3707   -0.2695    0.0000 C   0  0  0  0  0  0  0  0  0  0  0  0
   16.3707    0.5555    0.0000 C   0  0  0  0  0  0  0  0  0  0  0  0
   15.6543    0.9702    0.0000 O   0  0  0  0  0  0  0  0  0  0  0  0
   14.9419    2.2057    0.0000 C   0  0  0  0  0  0  0  0  0  0  0  0
   14.9419    3.0307    0.0000 O   0  0  0  0  0  0  0  0  0  0  0  0
   14.2255    1.7953    0.0000 N   0  0  0  0  0  0  0  0  0  0  0  0
   17.7995    2.2057    0.0000 O   0  0  0  0  0  0  0  0  0  0  0  0
   13.5131    2.2057    0.0000 C   0  0  0  0  0  0  0  0  0  0  0  0
   12.8008    1.7953    0.0000 C   0  0  0  0  0  0  0  0  0  0  0  0
   12.0843    2.2057    0.0000 C   0  0  0  0  0  0  0  0  0  0  0  0
   11.3679    1.7953    0.0000 C   0  0  0  0  0  0  0  0  0  0  0  0
   10.6555    2.2057    0.0000 C   0  0  0  0  0  0  0  0  0  0  0  0
   10.6555    3.0307    0.0000 C   0  0  0  0  0  0  0  0  0  0  0  0
   11.3679    3.4412    0.0000 C   0  0  0  0  0  0  0  0  0  0  0  0
   12.0843    3.0307    0.0000 C   0  0  0  0  0  0  0  0  0  0  0  0
    9.9391    3.4454    0.0000 O   0  0  0  0  0  0  0  0  0  0  0  0
    9.2226    3.0307    0.0000 C   0  0  0  0  0  0  0  0  0  0  0  0
    9.9391    1.7953    0.0000 O   0  0  0  0  0  0  0  0  0  0  0  0
    9.2226    2.2057    0.0000 C   0  0  0  0  0  0  0  0  0  0  0  0
   18.5160    0.9702    0.0000 O   0  0  0  0  0  0  0  0  0  0  0  0
   19.2283    0.5555    0.0000 C   0  0  0  0  0  0  0  0  0  0  0  0
   19.9406    0.9702    0.0000 C   0  0  0  0  0  0  0  0  0  0  0  0
   20.6571    0.5555    0.0000 C   0  0  0  0  0  0  0  0  0  0  0  0
   21.3736    0.9702    0.0000 C   0  0  0  0  0  0  0  0  0  0  0  0
   22.0859    0.5555    0.0000 C   0  0  0  0  0  0  0  0  0  0  0  0
   22.0859   -0.2695    0.0000 C   0  0  0  0  0  0  0  0  0  0  0  0
   21.3736   -0.6799    0.0000 C   0  0  0  0  0  0  0  0  0  0  0  0
   20.6571   -0.2695    0.0000 C   0  0  0  0  0  0  0  0  0  0  0  0
   22.8024   -0.6799    0.0000 O   0  0  0  0  0  0  0  0  0  0  0  0
   23.5188   -0.2695    0.0000 C   0  0  0  0  0  0  0  0  0  0  0  0
   22.8024    0.9702    0.0000 O   0  0  0  0  0  0  0  0  0  0  0  0
   23.5188    0.5555    0.0000 C   0  0  0  0  0  0  0  0  0  0  0  0
  1  2  2  0
  2  3  1  0
  3  4  1  0
  4  5  2  0
  5  6  1  0
  6  7  2  0
  7  8  1  0
  8  9  2  0
  4  9  1  0
  9 10  1  0
  1 10  1  0
 11 12  2  0
 11 13  1  0
  1 11  1  0
  3 14  2  0
 15 16  1  0
 16 17  1  0
 17 18  2  0
 18 19  1  0
 19 20  2  0
 20 21  1  0
 21 22  2  0
 17 22  1  0
 23 24  1  0
 20 23  1  0
 25 26  1  0
 19 25  1  0
 13 15  1  0
 28 29  1  0
 29 30  1  0
 30 31  2  0
 31 32  1  0
 32 33  2  0
 33 34  1  0
 34 35  2  0
 30 35  1  0
 27 28  1  0
 36 37  1  0
 33 36  1  0
 38 39  1  0
 32 38  1  0
  5 27  1  0
M  END
>  <Classification>  (262) 
1

>  <pchembl>  (262) 
6.33

>  <InChI_steorem>  (262) 
InChI=1S/C30H31NO8/c1-34-22-10-8-19(16-26(22)36-3)12-14-31-30(33)28-18-21(32)29-24(6-5-7-25(29)39-28)38-15-13-20-9-11-23(35-2)27(17-20)37-4/h5-11,16-18H,12-15H2,1-4H3,(H,31,33)

>  <source>  (262) 
ChEMBL25

>  <source_id>  (262) 
25

>  <optional_reference>  (262) 
10.1021/jm201404w

>  <optional_origin>  (262) 
None

>  <target>  (262) 
BCRP

$$$$

     RDKit          2D

 63 70  0  0  0  0  0  0  0  0999 V2000
    1.7664  -20.9319    0.0000 C   0  0  0  0  0  0  0  0  0  0  0  0
    2.4828  -20.5185    0.0000 C   0  0  0  0  0  0  0  0  0  0  0  0
    2.4800  -19.6880    0.0000 C   0  0  0  0  0  0  0  0  0  0  0  0
    1.7646  -19.2789    0.0000 N   0  0  0  0  0  0  0  0  0  0  0  0
    1.0516  -20.5190    0.0000 C   0  0  0  0  0  0  0  0  0  0  0  0
    1.0539  -19.6934    0.0000 C   0  0  0  0  0  0  0  0  0  0  0  0
    0.3412  -19.2805    0.0000 C   0  0  0  0  0  0  0  0  0  0  0  0
   -0.3743  -19.6919    0.0000 C   0  0  0  0  0  0  0  0  0  0  0  0
   -0.3726  -20.5206    0.0000 C   0  0  0  0  0  0  0  0  0  0  0  0
    0.3407  -20.9299    0.0000 C   0  0  0  0  0  0  0  0  0  0  0  0
    3.1906  -19.2745    0.0000 C   0  0  0  0  0  0  0  0  0  0  0  0
    3.9679  -19.5514    0.0000 N   0  0  0  0  0  0  0  0  0  0  0  0
    4.4717  -18.8981    0.0000 C   0  0  0  0  0  0  0  0  0  0  0  0
    4.0060  -18.2170    0.0000 S   0  0  0  0  0  0  0  0  0  0  0  0
    3.2145  -18.4496    0.0000 C   0  0  0  0  0  0  0  0  0  0  0  0
   -1.0888  -19.2795    0.0000 O   0  0  0  0  0  0  0  0  0  0  0  0
   -1.8032  -19.6922    0.0000 C   0  0  0  0  0  0  0  0  0  0  0  0
    5.2964  -18.9216    0.0000 N   0  0  0  0  0  0  0  0  0  0  0  0
    5.6883  -19.6476    0.0000 C   0  0  0  0  0  0  0  0  0  0  0  0
    6.5130  -19.6711    0.0000 C   0  0  0  0  0  0  0  0  0  0  0  0
    5.2556  -20.3500    0.0000 C   0  0  0  0  0  0  0  0  0  0  0  0
    1.7662  -21.7569    0.0000 O   0  0  0  0  0  0  0  0  0  0  0  0
    2.4803  -22.1697    0.0000 C   0  0  0  0  0  0  0  0  0  0  0  0
    2.4886  -22.9976    0.0000 C   0  0  0  0  0  0  0  0  0  0  0  0
    3.2762  -23.2433    0.0000 N   0  0  0  0  0  0  0  0  0  0  0  0
    3.7532  -22.5702    0.0000 C   0  0  0  0  0  0  0  0  0  0  0  0
    3.2604  -21.9086    0.0000 C   0  0  0  0  0  0  0  0  0  0  0  0
    3.5403  -24.0249    0.0000 C   0  0  0  0  0  0  0  0  0  0  0  0
    2.9955  -24.6444    0.0000 C   0  0  0  0  0  0  0  0  0  0  0  0
    4.3492  -24.1869    0.0000 O   0  0  0  0  0  0  0  0  0  0  0  0
    2.1862  -24.4828    0.0000 N   0  0  0  0  0  0  0  0  0  0  0  0
    3.2596  -25.4260    0.0000 C   0  0  0  0  0  0  0  0  0  0  0  0
    4.5782  -22.5604    0.0000 C   0  0  0  0  0  0  0  0  0  0  0  0
    4.9991  -23.2700    0.0000 N   0  0  0  0  0  0  0  0  0  0  0  0
    4.9822  -21.8411    0.0000 O   0  0  0  0  0  0  0  0  0  0  0  0
    0.3426  -18.4555    0.0000 Cl  0  0  0  0  0  0  0  0  0  0  0  0
    2.7148  -26.0456    0.0000 C   0  0  0  0  0  0  0  0  0  0  0  0
    4.0686  -25.5881    0.0000 C   0  0  0  0  0  0  0  0  0  0  0  0
    3.4708  -26.2208    0.0000 C   0  0  0  0  0  0  0  0  0  0  0  0
    1.5721  -25.0337    0.0000 C   0  0  0  0  0  0  0  0  0  0  0  0
    0.7879  -24.7775    0.0000 O   0  0  0  0  0  0  0  0  0  0  0  0
    1.7423  -25.8410    0.0000 O   0  0  0  0  0  0  0  0  0  0  0  0
    0.1739  -25.3284    0.0000 C   0  0  0  0  0  0  0  0  0  0  0  0
    5.8242  -23.2599    0.0000 C   0  0  0  0  0  0  0  0  0  0  0  0
    6.2388  -23.9699    0.0000 C   0  0  0  0  0  0  0  0  0  0  0  0
    6.6477  -23.2533    0.0000 C   0  0  0  0  0  0  0  0  0  0  0  0
    6.0333  -22.4583    0.0000 C   0  0  0  0  0  0  0  0  0  0  0  0
    6.8288  -22.2395    0.0000 O   0  0  0  0  0  0  0  0  0  0  0  0
    5.4461  -21.8788    0.0000 O   0  0  0  0  0  0  0  0  0  0  0  0
    6.2429  -24.7949    0.0000 C   0  0  0  0  0  0  0  0  0  0  0  0
    5.5304  -25.2109    0.0000 C   0  0  0  0  0  0  0  0  0  0  0  0
   -0.6302  -25.1599    0.0000 C   0  0  0  0  0  0  0  0  0  0  0  0
    0.2612  -26.1534    0.0000 C   0  0  0  0  0  0  0  0  0  0  0  0
   -0.4929  -26.4878    0.0000 C   0  0  0  0  0  0  0  0  0  0  0  0
   -1.0449  -25.8773    0.0000 C   0  0  0  0  0  0  0  0  0  0  0  0
   -1.2976  -26.6606    0.0000 C   0  0  0  0  0  0  0  0  0  0  0  0
   -2.5177  -19.2798    0.0000 C   0  0  0  0  0  0  0  0  0  0  0  0
   -3.2321  -19.6924    0.0000 N   0  0  0  0  0  0  0  0  0  0  0  0
   -3.9475  -19.2811    0.0000 C   0  0  0  0  0  0  0  0  0  0  0  0
   -4.6597  -19.6902    0.0000 C   0  0  0  0  0  0  0  0  0  0  0  0
   -4.6639  -20.5155    0.0000 O   0  0  0  0  0  0  0  0  0  0  0  0
   -3.9495  -20.9301    0.0000 C   0  0  0  0  0  0  0  0  0  0  0  0
   -3.2310  -20.5193    0.0000 C   0  0  0  0  0  0  0  0  0  0  0  0
 29 31  1  0
 15 11  2  0
 29 32  1  0
  3 11  1  0
 26 33  1  0
 33 34  1  0
  8 16  1  0
 33 35  2  0
  7  8  1  0
  7 36  1  0
 16 17  1  0
 32 37  1  0
  3  4  2  0
 32 38  1  0
 13 18  1  0
 32 39  1  0
  8  9  2  0
 31 40  1  0
 18 19  1  0
 40 41  1  0
  4  6  1  0
 40 42  2  0
 19 20  1  0
 43 41  1  0
  9 10  1  0
 34 44  1  0
 45 44  1  0
 46 45  1  0
 44 46  1  0
 19 21  1  0
 10  5  2  0
  1 22  1  0
 44 47  1  0
 11 12  1  0
 47 48  1  0
 23 22  1  0
 47 49  2  0
 23 24  1  0
 45 50  1  0
  1  2  2  0
 50 51  1  0
 43 52  1  0
  5  1  1  0
  5  6  1  0
 52 55  1  0
 54 53  1  0
 53 43  1  0
 55 54  1  0
 55 56  1  0
 54 56  1  0
  2  3  1  0
 24 25  1  0
 25 26  1  0
 26 27  1  0
 27 23  1  0
  6  7  2  0
 17 57  1  0
 25 28  1  0
 57 58  1  0
 58 59  1  0
 12 13  2  0
 28 29  1  0
 13 14  1  0
 28 30  2  0
 14 15  1  0
 58 63  1  0
 59 60  1  0
 60 61  1  0
 61 62  1  0
 62 63  1  0
M  END
>  <Classification>  (263) 
1

>  <pchembl>  (263) 
5.85

>  <InChI_steorem>  (263) 
InChI=1S/C45H60ClN7O9S/c1-7-27-21-45(27,41(56)57)51-39(54)33-19-29(22-53(33)40(55)38(44(4,5)6)50-43(58)62-28-17-25-16-26(25)18-28)61-35-20-31(32-23-63-42(49-32)47-24(2)3)48-37-30(35)8-9-34(36(37)46)60-15-12-52-10-13-59-14-11-52/h8-9,20,23-29,33,38H,7,10-19,21-22H2,1-6H3,(H,47,49)(H,50,58)(H,51,54)(H,56,57)

>  <source>  (263) 
ChEMBL25

>  <source_id>  (263) 
25

>  <optional_reference>  (263) 
10.1016/j.bmcl.2012.01.017

>  <optional_origin>  (263) 
None

>  <target>  (263) 
BCRP

$$$$

     RDKit          2D

 21 23  0  0  0  0  0  0  0  0999 V2000
   -2.4348   -0.7085    0.0000 C   0  0  0  0  0  0  0  0  0  0  0  0
   -1.7203   -1.1210    0.0000 C   0  0  0  0  0  0  0  0  0  0  0  0
   -1.0058   -0.7085    0.0000 C   0  0  0  0  0  0  0  0  0  0  0  0
   -1.0058    0.1165    0.0000 C   0  0  0  0  0  0  0  0  0  0  0  0
   -1.7203    0.5290    0.0000 C   0  0  0  0  0  0  0  0  0  0  0  0
   -2.4348    0.1165    0.0000 C   0  0  0  0  0  0  0  0  0  0  0  0
   -0.2914   -1.1210    0.0000 C   0  0  0  0  0  0  0  0  0  0  0  0
    0.4231   -0.7085    0.0000 C   0  0  0  0  0  0  0  0  0  0  0  0
    0.4231    0.1165    0.0000 C   0  0  0  0  0  0  0  0  0  0  0  0
    1.1376    0.5290    0.0000 C   0  0  0  0  0  0  0  0  0  0  0  0
    1.1376    1.3540    0.0000 C   0  0  0  0  0  0  0  0  0  0  0  0
    1.8521    1.7665    0.0000 C   0  0  0  0  0  0  0  0  0  0  0  0
    2.5665    1.3540    0.0000 C   0  0  0  0  0  0  0  0  0  0  0  0
    2.5665    0.5290    0.0000 C   0  0  0  0  0  0  0  0  0  0  0  0
    1.8521    0.1165    0.0000 C   0  0  0  0  0  0  0  0  0  0  0  0
   -0.2914    0.5290    0.0000 O   0  0  0  0  0  0  0  0  0  0  0  0
   -0.2914   -1.9460    0.0000 O   0  0  0  0  0  0  0  0  0  0  0  0
    3.2810    1.7665    0.0000 O   0  0  0  0  0  0  0  0  0  0  0  0
    1.1376   -1.1210    0.0000 O   0  0  0  0  0  0  0  0  0  0  0  0
   -3.1492    0.5290    0.0000 O   0  0  0  0  0  0  0  0  0  0  0  0
   -1.7203   -1.9460    0.0000 O   0  0  0  0  0  0  0  0  0  0  0  0
  1  2  2  0
  1  6  1  0
  2  3  1  0
  2 21  1  0
  3  4  2  0
  3  7  1  0
  4  5  1  0
  4 16  1  0
  5  6  2  0
  6 20  1  0
  8  7  1  0
  7 17  2  0
  8  9  2  0
  8 19  1  0
  9 10  1  0
  9 16  1  0
 10 11  2  0
 10 15  1  0
 11 12  1  0
 12 13  2  0
 13 14  1  0
 13 18  1  0
 14 15  2  0
M  END
>  <Classification>  (264) 
1

>  <pchembl>  (264) 
5.33

>  <InChI_steorem>  (264) 
InChI=1S/C15H10O6/c16-8-3-1-7(2-4-8)15-14(20)13(19)12-10(18)5-9(17)6-11(12)21-15/h1-6,16-18,20H

>  <source>  (264) 
ChEMBL25

>  <source_id>  (264) 
25

>  <optional_reference>  (264) 
10.1016/j.bmc.2010.12.043

>  <optional_origin>  (264) 
None

>  <target>  (264) 
BCRP

$$$$

     RDKit          2D

 19 21  0  0  0  0  0  0  0  0999 V2000
   -0.6957   -0.1468    0.0000 C   0  0  0  0  0  0  0  0  0  0  0  0
   -0.6957    0.6782    0.0000 C   0  0  0  0  0  0  0  0  0  0  0  0
    0.0188    1.0907    0.0000 C   0  0  0  0  0  0  0  0  0  0  0  0
    0.7332    0.6782    0.0000 C   0  0  0  0  0  0  0  0  0  0  0  0
    1.4477    1.0907    0.0000 C   0  0  0  0  0  0  0  0  0  0  0  0
    2.1622    0.6782    0.0000 C   0  0  0  0  0  0  0  0  0  0  0  0
    2.1622   -0.1468    0.0000 C   0  0  0  0  0  0  0  0  0  0  0  0
    1.4477   -0.5593    0.0000 C   0  0  0  0  0  0  0  0  0  0  0  0
    0.7332   -0.1468    0.0000 C   0  0  0  0  0  0  0  0  0  0  0  0
    0.0188   -0.5593    0.0000 O   0  0  0  0  0  0  0  0  0  0  0  0
    0.0188    1.9157    0.0000 O   0  0  0  0  0  0  0  0  0  0  0  0
    1.4477    1.9157    0.0000 O   0  0  0  0  0  0  0  0  0  0  0  0
    2.8766   -0.5593    0.0000 O   0  0  0  0  0  0  0  0  0  0  0  0
   -1.4102   -1.3843    0.0000 C   0  0  0  0  0  0  0  0  0  0  0  0
   -2.1247   -1.7968    0.0000 C   0  0  0  0  0  0  0  0  0  0  0  0
   -2.8391   -1.3843    0.0000 C   0  0  0  0  0  0  0  0  0  0  0  0
   -2.8391   -0.5593    0.0000 C   0  0  0  0  0  0  0  0  0  0  0  0
   -2.1247   -0.1468    0.0000 C   0  0  0  0  0  0  0  0  0  0  0  0
   -1.4102   -0.5593    0.0000 C   0  0  0  0  0  0  0  0  0  0  0  0
  1  2  2  0
  1 10  1  0
 19  1  1  0
  2  3  1  0
  3  4  1  0
  3 11  2  0
  4  5  2  0
  9  4  1  0
  5  6  1  0
  5 12  1  0
  6  7  2  0
  7  8  1  0
  7 13  1  0
  9  8  2  0
  9 10  1  0
 14 15  2  0
 19 14  1  0
 15 16  1  0
 16 17  2  0
 17 18  1  0
 19 18  2  0
M  END
>  <Classification>  (265) 
1

>  <pchembl>  (265) 
5.82

>  <InChI_steorem>  (265) 
InChI=1S/C15H10O4/c16-10-6-11(17)15-12(18)8-13(19-14(15)7-10)9-4-2-1-3-5-9/h1-8,16-17H

>  <source>  (265) 
ChEMBL25

>  <source_id>  (265) 
25

>  <optional_reference>  (265) 
10.1016/j.bmc.2010.12.043

>  <optional_origin>  (265) 
None

>  <target>  (265) 
BCRP

$$$$

     RDKit          2D

 21 23  0  0  0  0  0  0  0  0999 V2000
    4.8125   -0.2292    0.0000 C   0  0  0  0  0  0  0  0  0  0  0  0
    5.5292   -0.6417    0.0000 C   0  0  0  0  0  0  0  0  0  0  0  0
    6.2417    0.6083    0.0000 C   0  0  0  0  0  0  0  0  0  0  0  0
    6.2500   -0.2208    0.0000 C   0  0  0  0  0  0  0  0  0  0  0  0
    4.8042    0.6000    0.0000 C   0  0  0  0  0  0  0  0  0  0  0  0
    5.5250    1.0208    0.0000 O   0  0  0  0  0  0  0  0  0  0  0  0
    4.0917   -0.6417    0.0000 C   0  0  0  0  0  0  0  0  0  0  0  0
    6.9542    1.0208    0.0000 C   0  0  0  0  0  0  0  0  0  0  0  0
    4.0917    1.0083    0.0000 C   0  0  0  0  0  0  0  0  0  0  0  0
    3.3792   -0.2292    0.0000 C   0  0  0  0  0  0  0  0  0  0  0  0
    6.9542    1.8458    0.0000 C   0  0  0  0  0  0  0  0  0  0  0  0
    7.6625    2.2583    0.0000 C   0  0  0  0  0  0  0  0  0  0  0  0
    3.3792    0.5958    0.0000 C   0  0  0  0  0  0  0  0  0  0  0  0
    5.5292   -1.4667    0.0000 O   0  0  0  0  0  0  0  0  0  0  0  0
    8.3792    1.8500    0.0000 C   0  0  0  0  0  0  0  0  0  0  0  0
    7.6750    0.6083    0.0000 C   0  0  0  0  0  0  0  0  0  0  0  0
    8.3875    1.0250    0.0000 C   0  0  0  0  0  0  0  0  0  0  0  0
    4.0917   -1.4667    0.0000 O   0  0  0  0  0  0  0  0  0  0  0  0
    7.6542    3.0833    0.0000 O   0  0  0  0  0  0  0  0  0  0  0  0
    9.0917    2.2667    0.0000 O   0  0  0  0  0  0  0  0  0  0  0  0
    2.6667    1.0083    0.0000 O   0  0  0  0  0  0  0  0  0  0  0  0
  2  1  1  0
  3  6  1  0
  4  2  1  0
  5  1  2  0
  6  5  1  0
  7  1  1  0
  8  3  1  0
  9  5  1  0
 10  7  2  0
 11  8  2  0
 12 11  1  0
 13 10  1  0
 14  2  2  0
 15 17  1  0
 16  8  1  0
 17 16  2  0
 18  7  1  0
 19 12  1  0
 20 15  1  0
 21 13  1  0
  4  3  2  0
  9 13  2  0
 12 15  2  0
M  END
>  <Classification>  (266) 
1

>  <pchembl>  (266) 
5.05

>  <InChI_steorem>  (266) 
InChI=1S/C15H10O6/c16-8-4-11(19)15-12(20)6-13(21-14(15)5-8)7-1-2-9(17)10(18)3-7/h1-6,16-19H

>  <source>  (266) 
ChEMBL25

>  <source_id>  (266) 
25

>  <optional_reference>  (266) 
10.1021/np100797y

>  <optional_origin>  (266) 
None

>  <target>  (266) 
BCRP

$$$$

     RDKit          2D

 25 28  0  0  0  0  0  0  0  0999 V2000
   20.3995   -4.0158    0.0000 C   0  0  0  0  0  0  0  0  0  0  0  0
   20.3983   -4.8353    0.0000 C   0  0  0  0  0  0  0  0  0  0  0  0
   21.1064   -5.2443    0.0000 C   0  0  0  0  0  0  0  0  0  0  0  0
   21.1046   -3.6069    0.0000 C   0  0  0  0  0  0  0  0  0  0  0  0
   21.8132   -4.0122    0.0000 C   0  0  0  0  0  0  0  0  0  0  0  0
   21.8140   -4.8312    0.0000 C   0  0  0  0  0  0  0  0  0  0  0  0
   22.5225   -5.2382    0.0000 N   0  0  0  0  0  0  0  0  0  0  0  0
   23.2308   -4.8274    0.0000 C   0  0  0  0  0  0  0  0  0  0  0  0
   23.2260   -4.0053    0.0000 N   0  0  0  0  0  0  0  0  0  0  0  0
   22.5169   -3.6019    0.0000 C   0  0  0  0  0  0  0  0  0  0  0  0
   22.5126   -2.7847    0.0000 N   0  0  0  0  0  0  0  0  0  0  0  0
   23.2181   -2.3724    0.0000 C   0  0  0  0  0  0  0  0  0  0  0  0
   23.9234   -2.7806    0.0000 C   0  0  0  0  0  0  0  0  0  0  0  0
   24.6285   -2.3690    0.0000 C   0  0  0  0  0  0  0  0  0  0  0  0
   24.6246   -1.5509    0.0000 C   0  0  0  0  0  0  0  0  0  0  0  0
   23.9097   -1.1463    0.0000 C   0  0  0  0  0  0  0  0  0  0  0  0
   23.2076   -1.5602    0.0000 C   0  0  0  0  0  0  0  0  0  0  0  0
   23.9365   -5.2292    0.0000 C   0  0  0  0  0  0  0  0  0  0  0  0
   23.9383   -6.0475    0.0000 C   0  0  0  0  0  0  0  0  0  0  0  0
   24.6468   -6.4532    0.0000 C   0  0  0  0  0  0  0  0  0  0  0  0
   25.3539   -6.0418    0.0000 N   0  0  0  0  0  0  0  0  0  0  0  0
   25.3481   -5.2204    0.0000 C   0  0  0  0  0  0  0  0  0  0  0  0
   24.6390   -4.8184    0.0000 C   0  0  0  0  0  0  0  0  0  0  0  0
   23.9037   -0.3310    0.0000 C   0  0  0  0  0  0  0  0  0  0  0  0
   23.8965    0.4862    0.0000 N   0  0  0  0  0  0  0  0  0  0  0  0
  1  2  2  0
  2  3  1  0
  3  6  2  0
  5  4  2  0
  4  1  1  0
  5  6  1  0
  6  7  1  0
  7  8  2  0
  8  9  1  0
  9 10  2  0
 10  5  1  0
 10 11  1  0
 11 12  1  0
 12 13  2  0
 13 14  1  0
 14 15  2  0
 15 16  1  0
 16 17  2  0
 17 12  1  0
 18 19  2  0
 19 20  1  0
 20 21  2  0
 21 22  1  0
 22 23  2  0
 23 18  1  0
  8 18  1  0
 24 25  3  0
 16 24  1  0
M  END
>  <Classification>  (267) 
1

>  <pchembl>  (267) 
6.87

>  <InChI_steorem>  (267) 
InChI=1S/C20H13N5/c21-13-14-4-3-5-16(12-14)23-20-17-6-1-2-7-18(17)24-19(25-20)15-8-10-22-11-9-15/h1-12H,(H,23,24,25)

>  <source>  (267) 
ChEMBL25

>  <source_id>  (267) 
25

>  <optional_reference>  (267) 
10.1021/acs.jmedchem.7b00441

>  <optional_origin>  (267) 
None

>  <target>  (267) 
BCRP

$$$$

     RDKit          2D

 24 27  0  0  0  0  0  0  0  0999 V2000
   16.6239   -8.8612    0.0000 C   0  0  0  0  0  0  0  0  0  0  0  0
   15.9149   -9.2698    0.0000 N   0  0  0  0  0  0  0  0  0  0  0  0
   15.2099   -8.8612    0.0000 C   0  0  0  0  0  0  0  0  0  0  0  0
   15.2099   -8.0440    0.0000 C   0  0  0  0  0  0  0  0  0  0  0  0
   15.9149   -7.6354    0.0000 C   0  0  0  0  0  0  0  0  0  0  0  0
   16.6240   -8.0440    0.0000 N   0  0  0  0  0  0  0  0  0  0  0  0
   14.5008   -7.6354    0.0000 C   0  0  0  0  0  0  0  0  0  0  0  0
   13.7917   -8.0440    0.0000 C   0  0  0  0  0  0  0  0  0  0  0  0
   13.7917   -8.8612    0.0000 C   0  0  0  0  0  0  0  0  0  0  0  0
   14.5008   -9.2698    0.0000 N   0  0  0  0  0  0  0  0  0  0  0  0
   15.9149   -6.8141    0.0000 N   0  0  0  0  0  0  0  0  0  0  0  0
   17.3330   -9.2698    0.0000 C   0  0  0  0  0  0  0  0  0  0  0  0
   17.3330  -10.0869    0.0000 C   0  0  0  0  0  0  0  0  0  0  0  0
   18.0380  -10.4955    0.0000 C   0  0  0  0  0  0  0  0  0  0  0  0
   18.7471  -10.0869    0.0000 C   0  0  0  0  0  0  0  0  0  0  0  0
   18.7471   -9.2698    0.0000 C   0  0  0  0  0  0  0  0  0  0  0  0
   18.0380   -8.8612    0.0000 C   0  0  0  0  0  0  0  0  0  0  0  0
   16.6240   -6.4055    0.0000 C   0  0  0  0  0  0  0  0  0  0  0  0
   17.3330   -6.8141    0.0000 C   0  0  0  0  0  0  0  0  0  0  0  0
   18.0380   -6.4055    0.0000 C   0  0  0  0  0  0  0  0  0  0  0  0
   18.0380   -5.5883    0.0000 C   0  0  0  0  0  0  0  0  0  0  0  0
   17.3330   -5.1838    0.0000 C   0  0  0  0  0  0  0  0  0  0  0  0
   16.6239   -5.5924    0.0000 C   0  0  0  0  0  0  0  0  0  0  0  0
   18.7471   -6.8141    0.0000 Cl  0  0  0  0  0  0  0  0  0  0  0  0
  1  2  2  0
  2  3  1  0
  3  4  2  0
  4  5  1  0
  5  6  2  0
  1  6  1  0
  7  8  2  0
  8  9  1  0
  9 10  2  0
  3 10  1  0
  4  7  1  0
  5 11  1  0
 12 13  2  0
 13 14  1  0
 14 15  2  0
 15 16  1  0
 16 17  2  0
 12 17  1  0
  1 12  1  0
 18 19  2  0
 19 20  1  0
 20 21  2  0
 21 22  1  0
 22 23  2  0
 18 23  1  0
 20 24  1  0
 11 18  1  0
M  END
>  <Classification>  (268) 
1

>  <pchembl>  (268) 
6.34

>  <InChI_steorem>  (268) 
InChI=1S/C19H13ClN4/c20-14-8-4-9-15(12-14)22-19-16-10-5-11-21-18(16)23-17(24-19)13-6-2-1-3-7-13/h1-12H,(H,21,22,23,24)

>  <source>  (268) 
ChEMBL25

>  <source_id>  (268) 
25

>  <optional_reference>  (268) 
10.1021/acs.jmedchem.7b01012

>  <optional_origin>  (268) 
None

>  <target>  (268) 
BCRP

$$$$

     RDKit          2D

 29 32  0  0  0  0  0  0  0  0999 V2000
   11.0472  -20.1243    0.0000 C   0  0  0  0  0  0  0  0  0  0  0  0
   11.0460  -20.9439    0.0000 C   0  0  0  0  0  0  0  0  0  0  0  0
   11.7541  -21.3528    0.0000 C   0  0  0  0  0  0  0  0  0  0  0  0
   11.7523  -19.7155    0.0000 C   0  0  0  0  0  0  0  0  0  0  0  0
   12.4609  -20.1207    0.0000 C   0  0  0  0  0  0  0  0  0  0  0  0
   12.4617  -20.9397    0.0000 C   0  0  0  0  0  0  0  0  0  0  0  0
   13.1702  -21.3468    0.0000 N   0  0  0  0  0  0  0  0  0  0  0  0
   13.8785  -20.9360    0.0000 C   0  0  0  0  0  0  0  0  0  0  0  0
   13.8737  -20.1139    0.0000 N   0  0  0  0  0  0  0  0  0  0  0  0
   13.1646  -19.7105    0.0000 C   0  0  0  0  0  0  0  0  0  0  0  0
   13.1603  -18.8933    0.0000 N   0  0  0  0  0  0  0  0  0  0  0  0
   13.8658  -18.4810    0.0000 C   0  0  0  0  0  0  0  0  0  0  0  0
   14.5711  -18.8892    0.0000 C   0  0  0  0  0  0  0  0  0  0  0  0
   15.2762  -18.4775    0.0000 C   0  0  0  0  0  0  0  0  0  0  0  0
   15.2723  -17.6595    0.0000 C   0  0  0  0  0  0  0  0  0  0  0  0
   14.5574  -17.2548    0.0000 C   0  0  0  0  0  0  0  0  0  0  0  0
   13.8553  -17.6688    0.0000 C   0  0  0  0  0  0  0  0  0  0  0  0
   14.5842  -21.3378    0.0000 C   0  0  0  0  0  0  0  0  0  0  0  0
   14.5860  -22.1560    0.0000 C   0  0  0  0  0  0  0  0  0  0  0  0
   15.2945  -22.5618    0.0000 C   0  0  0  0  0  0  0  0  0  0  0  0
   16.0016  -22.1504    0.0000 N   0  0  0  0  0  0  0  0  0  0  0  0
   15.9958  -21.3290    0.0000 C   0  0  0  0  0  0  0  0  0  0  0  0
   15.2868  -20.9269    0.0000 C   0  0  0  0  0  0  0  0  0  0  0  0
   15.9772  -17.2462    0.0000 O   0  0  0  0  0  0  0  0  0  0  0  0
   16.6876  -17.6501    0.0000 C   0  0  0  0  0  0  0  0  0  0  0  0
   14.5502  -16.4377    0.0000 C   0  0  0  0  0  0  0  0  0  0  0  0
   15.2543  -16.0228    0.0000 F   0  0  0  0  0  0  0  0  0  0  0  0
   13.8389  -16.0353    0.0000 F   0  0  0  0  0  0  0  0  0  0  0  0
   14.5444  -15.6174    0.0000 F   0  0  0  0  0  0  0  0  0  0  0  0
  1  2  2  0
  2  3  1  0
  3  6  2  0
  5  4  2  0
  4  1  1  0
  5  6  1  0
  6  7  1  0
  7  8  2  0
  8  9  1  0
  9 10  2  0
 10  5  1  0
 10 11  1  0
 11 12  1  0
 12 13  2  0
 13 14  1  0
 14 15  2  0
 15 16  1  0
 16 17  2  0
 17 12  1  0
 18 19  2  0
 19 20  1  0
 20 21  2  0
 21 22  1  0
 22 23  2  0
 23 18  1  0
  8 18  1  0
 15 24  1  0
 24 25  1  0
 16 26  1  0
 26 27  1  0
 26 28  1  0
 26 29  1  0
M  END
>  <Classification>  (269) 
1

>  <pchembl>  (269) 
6.84

>  <InChI_steorem>  (269) 
InChI=1S/C21H15F3N4O/c1-29-18-7-6-14(12-16(18)21(22,23)24)26-20-15-4-2-3-5-17(15)27-19(28-20)13-8-10-25-11-9-13/h2-12H,1H3,(H,26,27,28)

>  <source>  (269) 
ChEMBL25

>  <source_id>  (269) 
25

>  <optional_reference>  (269) 
10.1021/acs.jmedchem.7b00441

>  <optional_origin>  (269) 
None

>  <target>  (269) 
BCRP

$$$$

     RDKit          2D

 20 22  0  0  0  0  0  0  0  0999 V2000
    4.7801  -13.3727    0.0000 C   0  0  0  0  0  0  0  0  0  0  0  0
    4.7809  -14.1959    0.0000 C   0  0  0  0  0  0  0  0  0  0  0  0
    5.4936  -14.6070    0.0000 N   0  0  0  0  0  0  0  0  0  0  0  0
    6.2059  -14.1921    0.0000 C   0  0  0  0  0  0  0  0  0  0  0  0
    6.2012  -13.3658    0.0000 N   0  0  0  0  0  0  0  0  0  0  0  0
    5.4880  -12.9625    0.0000 C   0  0  0  0  0  0  0  0  0  0  0  0
    5.4836  -12.1412    0.0000 N   0  0  0  0  0  0  0  0  0  0  0  0
    6.1933  -11.7247    0.0000 C   0  0  0  0  0  0  0  0  0  0  0  0
    6.9027  -12.1370    0.0000 C   0  0  0  0  0  0  0  0  0  0  0  0
    7.6119  -11.7213    0.0000 C   0  0  0  0  0  0  0  0  0  0  0  0
    7.6080  -10.8991    0.0000 C   0  0  0  0  0  0  0  0  0  0  0  0
    6.8890  -10.4944    0.0000 C   0  0  0  0  0  0  0  0  0  0  0  0
    6.1828  -10.9084    0.0000 C   0  0  0  0  0  0  0  0  0  0  0  0
    6.9158  -14.5980    0.0000 C   0  0  0  0  0  0  0  0  0  0  0  0
    6.9177  -15.4204    0.0000 C   0  0  0  0  0  0  0  0  0  0  0  0
    7.6302  -15.8262    0.0000 C   0  0  0  0  0  0  0  0  0  0  0  0
    8.3415  -15.4148    0.0000 C   0  0  0  0  0  0  0  0  0  0  0  0
    8.3356  -14.5892    0.0000 C   0  0  0  0  0  0  0  0  0  0  0  0
    7.6225  -14.1831    0.0000 C   0  0  0  0  0  0  0  0  0  0  0  0
    4.0697  -14.6097    0.0000 C   0  0  0  0  0  0  0  0  0  0  0  0
  1  2  2  0
  2  3  1  0
  3  4  2  0
  4  5  1  0
  5  6  2  0
  6  1  1  0
  6  7  1  0
  7  8  1  0
  8  9  2  0
  9 10  1  0
 10 11  2  0
 11 12  1  0
 12 13  2  0
 13  8  1  0
 14 15  2  0
 15 16  1  0
 16 17  2  0
 17 18  1  0
 18 19  2  0
 19 14  1  0
  4 14  1  0
  2 20  1  0
M  END
>  <Classification>  (270) 
1

>  <pchembl>  (270) 
6.19

>  <InChI_steorem>  (270) 
InChI=1S/C17H15N3/c1-13-12-16(19-15-10-6-3-7-11-15)20-17(18-13)14-8-4-2-5-9-14/h2-12H,1H3,(H,18,19,20)

>  <source>  (270) 
ChEMBL25

>  <source_id>  (270) 
25

>  <optional_reference>  (270) 
10.1021/acs.jmedchem.7b00441

>  <optional_origin>  (270) 
None

>  <target>  (270) 
BCRP

$$$$

     RDKit          2D

 24 27  0  0  0  0  0  0  0  0999 V2000
   31.0725  -12.6788    0.0000 C   0  0  0  0  0  0  0  0  0  0  0  0
   31.0713  -13.4983    0.0000 C   0  0  0  0  0  0  0  0  0  0  0  0
   31.7794  -13.9073    0.0000 C   0  0  0  0  0  0  0  0  0  0  0  0
   31.7776  -12.2699    0.0000 C   0  0  0  0  0  0  0  0  0  0  0  0
   32.4862  -12.6752    0.0000 C   0  0  0  0  0  0  0  0  0  0  0  0
   32.4870  -13.4942    0.0000 C   0  0  0  0  0  0  0  0  0  0  0  0
   33.1955  -13.9013    0.0000 N   0  0  0  0  0  0  0  0  0  0  0  0
   33.9038  -13.4905    0.0000 C   0  0  0  0  0  0  0  0  0  0  0  0
   33.8990  -12.6683    0.0000 N   0  0  0  0  0  0  0  0  0  0  0  0
   33.1899  -12.2650    0.0000 C   0  0  0  0  0  0  0  0  0  0  0  0
   33.1856  -11.4478    0.0000 N   0  0  0  0  0  0  0  0  0  0  0  0
   33.8911  -11.0355    0.0000 C   0  0  0  0  0  0  0  0  0  0  0  0
   34.5964  -11.4437    0.0000 C   0  0  0  0  0  0  0  0  0  0  0  0
   35.3015  -11.0320    0.0000 C   0  0  0  0  0  0  0  0  0  0  0  0
   35.2976  -10.2140    0.0000 C   0  0  0  0  0  0  0  0  0  0  0  0
   34.5827   -9.8093    0.0000 C   0  0  0  0  0  0  0  0  0  0  0  0
   33.8806  -10.2233    0.0000 C   0  0  0  0  0  0  0  0  0  0  0  0
   34.6095  -13.8922    0.0000 C   0  0  0  0  0  0  0  0  0  0  0  0
   34.6114  -14.7105    0.0000 C   0  0  0  0  0  0  0  0  0  0  0  0
   35.3198  -15.1163    0.0000 C   0  0  0  0  0  0  0  0  0  0  0  0
   36.0269  -14.7049    0.0000 N   0  0  0  0  0  0  0  0  0  0  0  0
   36.0211  -13.8835    0.0000 C   0  0  0  0  0  0  0  0  0  0  0  0
   35.3121  -13.4814    0.0000 C   0  0  0  0  0  0  0  0  0  0  0  0
   36.0026   -9.8007    0.0000 O   0  0  0  0  0  0  0  0  0  0  0  0
  1  2  2  0
  2  3  1  0
  3  6  2  0
  5  4  2  0
  4  1  1  0
  5  6  1  0
  6  7  1  0
  7  8  2  0
  8  9  1  0
  9 10  2  0
 10  5  1  0
 10 11  1  0
 11 12  1  0
 12 13  2  0
 13 14  1  0
 14 15  2  0
 15 16  1  0
 16 17  2  0
 17 12  1  0
 18 19  2  0
 19 20  1  0
 20 21  2  0
 21 22  1  0
 22 23  2  0
 23 18  1  0
  8 18  1  0
 15 24  1  0
M  END
>  <Classification>  (271) 
1

>  <pchembl>  (271) 
5.37

>  <InChI_steorem>  (271) 
InChI=1S/C19H14N4O/c24-15-7-5-14(6-8-15)21-19-16-3-1-2-4-17(16)22-18(23-19)13-9-11-20-12-10-13/h1-12,24H,(H,21,22,23)

>  <source>  (271) 
ChEMBL25

>  <source_id>  (271) 
25

>  <optional_reference>  (271) 
10.1021/acs.jmedchem.7b00441

>  <optional_origin>  (271) 
None

>  <target>  (271) 
BCRP

$$$$

     RDKit          2D

 24 27  0  0  0  0  0  0  0  0999 V2000
   10.2691   -4.6106    0.0000 C   0  0  0  0  0  0  0  0  0  0  0  0
    9.5641   -5.0192    0.0000 C   0  0  0  0  0  0  0  0  0  0  0  0
    9.5641   -5.8364    0.0000 C   0  0  0  0  0  0  0  0  0  0  0  0
   10.2691   -6.2491    0.0000 C   0  0  0  0  0  0  0  0  0  0  0  0
   10.9782   -5.8364    0.0000 C   0  0  0  0  0  0  0  0  0  0  0  0
   10.9782   -5.0192    0.0000 C   0  0  0  0  0  0  0  0  0  0  0  0
   10.2691   -3.7934    0.0000 O   0  0  0  0  0  0  0  0  0  0  0  0
    8.8550   -6.2491    0.0000 N   0  0  0  0  0  0  0  0  0  0  0  0
    9.5641   -8.2921    0.0000 C   0  0  0  0  0  0  0  0  0  0  0  0
    8.8550   -8.7007    0.0000 N   0  0  0  0  0  0  0  0  0  0  0  0
    8.1501   -8.2921    0.0000 C   0  0  0  0  0  0  0  0  0  0  0  0
    8.1501   -7.4749    0.0000 C   0  0  0  0  0  0  0  0  0  0  0  0
    8.8550   -7.0663    0.0000 C   0  0  0  0  0  0  0  0  0  0  0  0
    9.5641   -7.4749    0.0000 N   0  0  0  0  0  0  0  0  0  0  0  0
    7.4410   -7.0663    0.0000 C   0  0  0  0  0  0  0  0  0  0  0  0
    6.7319   -7.4749    0.0000 C   0  0  0  0  0  0  0  0  0  0  0  0
    6.7319   -8.2921    0.0000 C   0  0  0  0  0  0  0  0  0  0  0  0
    7.4410   -8.7007    0.0000 N   0  0  0  0  0  0  0  0  0  0  0  0
   10.9782   -8.2921    0.0000 C   0  0  0  0  0  0  0  0  0  0  0  0
   10.2691   -8.7007    0.0000 C   0  0  0  0  0  0  0  0  0  0  0  0
   10.2691   -9.5179    0.0000 C   0  0  0  0  0  0  0  0  0  0  0  0
   10.9782   -9.9265    0.0000 C   0  0  0  0  0  0  0  0  0  0  0  0
   11.6873   -9.5179    0.0000 C   0  0  0  0  0  0  0  0  0  0  0  0
   11.6873   -8.7007    0.0000 N   0  0  0  0  0  0  0  0  0  0  0  0
  1  2  2  0
  2  3  1  0
  3  4  2  0
  4  5  1  0
  5  6  2  0
  1  6  1  0
  1  7  1  0
  9 10  2  0
 10 11  1  0
 11 12  2  0
 12 13  1  0
 13 14  2  0
  9 14  1  0
 15 16  2  0
 16 17  1  0
 17 18  2  0
 11 18  1  0
 12 15  1  0
 19 20  2  0
 20 21  1  0
 21 22  2  0
 22 23  1  0
 23 24  2  0
 19 24  1  0
  9 20  1  0
  8 13  1  0
  3  8  1  0
M  END
>  <Classification>  (272) 
0

>  <pchembl>  (272) 
4.77

>  <InChI_steorem>  (272) 
InChI=1S/C18H13N5O/c24-14-6-1-5-13(10-14)21-18-15-7-3-9-20-17(15)22-16(23-18)12-4-2-8-19-11-12/h1-11,24H,(H,20,21,22,23)

>  <source>  (272) 
ChEMBL25

>  <source_id>  (272) 
25

>  <optional_reference>  (272) 
10.1021/acs.jmedchem.7b01012

>  <optional_origin>  (272) 
None

>  <target>  (272) 
BCRP

$$$$

     RDKit          2D

 32 35  0  0  0  0  0  0  0  0999 V2000
   18.1118  -12.4213    0.0000 N   0  0  0  0  0  0  0  0  0  0  0  0
   18.0961  -13.2384    0.0000 C   0  0  0  0  0  0  0  0  0  0  0  0
   18.7994  -13.6599    0.0000 O   0  0  0  0  0  0  0  0  0  0  0  0
   17.3815  -13.6380    0.0000 N   0  0  0  0  0  0  0  0  0  0  0  0
   17.3700  -14.4551    0.0000 C   0  0  0  0  0  0  0  0  0  0  0  0
   16.6553  -14.8506    0.0000 C   0  0  0  0  0  0  0  0  0  0  0  0
   16.6438  -15.6677    0.0000 C   0  0  0  0  0  0  0  0  0  0  0  0
   17.3429  -16.0891    0.0000 C   0  0  0  0  0  0  0  0  0  0  0  0
   18.0576  -15.6895    0.0000 C   0  0  0  0  0  0  0  0  0  0  0  0
   18.0690  -14.8724    0.0000 C   0  0  0  0  0  0  0  0  0  0  0  0
   17.3314  -16.9062    0.0000 N   0  0  0  0  0  0  0  0  0  0  0  0
   18.0305  -17.3235    0.0000 O   0  0  0  0  0  0  0  0  0  0  0  0
   16.6167  -17.3017    0.0000 O   0  0  0  0  0  0  0  0  0  0  0  0
   17.4086  -12.0040    0.0000 C   0  0  0  0  0  0  0  0  0  0  0  0
   17.4242  -11.1869    0.0000 C   0  0  0  0  0  0  0  0  0  0  0  0
   16.7210  -10.7655    0.0000 C   0  0  0  0  0  0  0  0  0  0  0  0
   16.0063  -11.1610    0.0000 C   0  0  0  0  0  0  0  0  0  0  0  0
   15.9948  -11.9780    0.0000 C   0  0  0  0  0  0  0  0  0  0  0  0
   16.6939  -12.3995    0.0000 C   0  0  0  0  0  0  0  0  0  0  0  0
   18.8780  -11.1314    0.0000 N   0  0  0  0  0  0  0  0  0  0  0  0
   19.4321  -10.5341    0.0000 N   0  0  0  0  0  0  0  0  0  0  0  0
   19.0366   -9.8194    0.0000 N   0  0  0  0  0  0  0  0  0  0  0  0
   18.2343   -9.9791    0.0000 N   0  0  0  0  0  0  0  0  0  0  0  0
   18.1389  -10.7873    0.0000 C   0  0  0  0  0  0  0  0  0  0  0  0
   20.2445  -10.6336    0.0000 C   0  0  0  0  0  0  0  0  0  0  0  0
   20.5649  -11.3847    0.0000 C   0  0  0  0  0  0  0  0  0  0  0  0
   21.3772  -11.4842    0.0000 C   0  0  0  0  0  0  0  0  0  0  0  0
   21.8691  -10.8285    0.0000 C   0  0  0  0  0  0  0  0  0  0  0  0
   21.5487  -10.0775    0.0000 C   0  0  0  0  0  0  0  0  0  0  0  0
   20.7364   -9.9780    0.0000 C   0  0  0  0  0  0  0  0  0  0  0  0
   22.6773  -10.9280    0.0000 O   0  0  0  0  0  0  0  0  0  0  0  0
   23.1692  -10.2724    0.0000 C   0  0  0  0  0  0  0  0  0  0  0  0
  1  2  1  0
  2  3  2  0
  2  4  1  0
  5  6  2  0
  6  7  1  0
  7  8  2  0
  8  9  1  0
  9 10  2  0
  5 10  1  0
 11 12  2  0
 11 13  1  0
  8 11  1  0
  4  5  1  0
 14 15  1  0
 15 16  2  0
 16 17  1  0
 17 18  2  0
 18 19  1  0
 14 19  2  0
 20 21  1  0
 21 22  1  0
 22 23  2  0
 23 24  1  0
 20 24  2  0
 25 26  2  0
 26 27  1  0
 27 28  2  0
 28 29  1  0
 29 30  2  0
 25 30  1  0
 31 32  1  0
 28 31  1  0
 21 25  1  0
 15 24  1  0
  1 14  1  0
M  CHG  2  11   1  13  -1
M  END
>  <Classification>  (273) 
1

>  <pchembl>  (273) 
6.48

>  <InChI_steorem>  (273) 
InChI=1S/C21H17N7O4/c1-32-17-12-10-15(11-13-17)27-25-20(24-26-27)18-4-2-3-5-19(18)23-21(29)22-14-6-8-16(9-7-14)28(30)31/h2-13H,1H3,(H2,22,23,29)

>  <source>  (273) 
ChEMBL25

>  <source_id>  (273) 
25

>  <optional_reference>  (273) 
10.1016/j.bmcl.2017.09.009

>  <optional_origin>  (273) 
None

>  <target>  (273) 
BCRP

$$$$

     RDKit          2D

 22 24  0  0  0  0  0  0  0  0999 V2000
   33.9720   -4.5652    0.0000 C   0  0  0  0  0  0  0  0  0  0  0  0
   33.9728   -5.3842    0.0000 C   0  0  0  0  0  0  0  0  0  0  0  0
   34.6813   -5.7913    0.0000 N   0  0  0  0  0  0  0  0  0  0  0  0
   35.3896   -5.3805    0.0000 C   0  0  0  0  0  0  0  0  0  0  0  0
   35.3848   -4.5583    0.0000 N   0  0  0  0  0  0  0  0  0  0  0  0
   34.6757   -4.1550    0.0000 C   0  0  0  0  0  0  0  0  0  0  0  0
   34.6714   -3.3378    0.0000 N   0  0  0  0  0  0  0  0  0  0  0  0
   35.3769   -2.9254    0.0000 C   0  0  0  0  0  0  0  0  0  0  0  0
   36.0822   -3.3337    0.0000 C   0  0  0  0  0  0  0  0  0  0  0  0
   36.7873   -2.9220    0.0000 C   0  0  0  0  0  0  0  0  0  0  0  0
   36.7834   -2.1040    0.0000 C   0  0  0  0  0  0  0  0  0  0  0  0
   36.0685   -1.6993    0.0000 C   0  0  0  0  0  0  0  0  0  0  0  0
   35.3664   -2.1133    0.0000 C   0  0  0  0  0  0  0  0  0  0  0  0
   36.0953   -5.7822    0.0000 C   0  0  0  0  0  0  0  0  0  0  0  0
   36.0972   -6.6005    0.0000 C   0  0  0  0  0  0  0  0  0  0  0  0
   36.8056   -7.0063    0.0000 C   0  0  0  0  0  0  0  0  0  0  0  0
   37.5127   -6.5949    0.0000 N   0  0  0  0  0  0  0  0  0  0  0  0
   37.5069   -5.7735    0.0000 C   0  0  0  0  0  0  0  0  0  0  0  0
   36.7979   -5.3714    0.0000 C   0  0  0  0  0  0  0  0  0  0  0  0
   33.2657   -5.7939    0.0000 C   0  0  0  0  0  0  0  0  0  0  0  0
   37.4884   -1.6907    0.0000 O   0  0  0  0  0  0  0  0  0  0  0  0
   38.1988   -2.0946    0.0000 C   0  0  0  0  0  0  0  0  0  0  0  0
  1  2  2  0
  2  3  1  0
  3  4  2  0
  4  5  1  0
  5  6  2  0
  6  1  1  0
  6  7  1  0
  7  8  1  0
  8  9  2  0
  9 10  1  0
 10 11  2  0
 11 12  1  0
 12 13  2  0
 13  8  1  0
 14 15  2  0
 15 16  1  0
 16 17  2  0
 17 18  1  0
 18 19  2  0
 19 14  1  0
  4 14  1  0
  2 20  1  0
 11 21  1  0
 21 22  1  0
M  END
>  <Classification>  (274) 
1

>  <pchembl>  (274) 
6.06

>  <InChI_steorem>  (274) 
InChI=1S/C17H16N4O/c1-12-11-16(20-14-3-5-15(22-2)6-4-14)21-17(19-12)13-7-9-18-10-8-13/h3-11H,1-2H3,(H,19,20,21)

>  <source>  (274) 
ChEMBL25

>  <source_id>  (274) 
25

>  <optional_reference>  (274) 
10.1021/acs.jmedchem.7b00441

>  <optional_origin>  (274) 
None

>  <target>  (274) 
BCRP

$$$$

     RDKit          2D

 25 28  0  0  0  0  0  0  0  0999 V2000
    9.2450   -7.7633    0.0000 C   0  0  0  0  0  0  0  0  0  0  0  0
    8.5359   -8.1719    0.0000 N   0  0  0  0  0  0  0  0  0  0  0  0
    7.8309   -7.7633    0.0000 C   0  0  0  0  0  0  0  0  0  0  0  0
    7.8309   -6.9461    0.0000 C   0  0  0  0  0  0  0  0  0  0  0  0
    8.5359   -6.5375    0.0000 C   0  0  0  0  0  0  0  0  0  0  0  0
    9.2450   -6.9461    0.0000 N   0  0  0  0  0  0  0  0  0  0  0  0
    7.1219   -6.5375    0.0000 C   0  0  0  0  0  0  0  0  0  0  0  0
    6.4169   -6.9461    0.0000 C   0  0  0  0  0  0  0  0  0  0  0  0
    6.4169   -7.7633    0.0000 C   0  0  0  0  0  0  0  0  0  0  0  0
    7.1219   -8.1719    0.0000 N   0  0  0  0  0  0  0  0  0  0  0  0
    8.5359   -5.7162    0.0000 N   0  0  0  0  0  0  0  0  0  0  0  0
    9.9541   -8.1719    0.0000 C   0  0  0  0  0  0  0  0  0  0  0  0
    9.9541   -8.9891    0.0000 C   0  0  0  0  0  0  0  0  0  0  0  0
   10.6632   -9.3977    0.0000 C   0  0  0  0  0  0  0  0  0  0  0  0
   11.3681   -8.9891    0.0000 C   0  0  0  0  0  0  0  0  0  0  0  0
   11.3681   -8.1719    0.0000 C   0  0  0  0  0  0  0  0  0  0  0  0
   10.6632   -7.7633    0.0000 C   0  0  0  0  0  0  0  0  0  0  0  0
    9.2450   -5.3076    0.0000 C   0  0  0  0  0  0  0  0  0  0  0  0
    9.9541   -5.7162    0.0000 C   0  0  0  0  0  0  0  0  0  0  0  0
   10.6632   -5.3076    0.0000 C   0  0  0  0  0  0  0  0  0  0  0  0
   10.6632   -4.4904    0.0000 C   0  0  0  0  0  0  0  0  0  0  0  0
    9.9541   -4.0860    0.0000 C   0  0  0  0  0  0  0  0  0  0  0  0
    9.2450   -4.4904    0.0000 C   0  0  0  0  0  0  0  0  0  0  0  0
   11.3681   -5.7162    0.0000 S   0  0  0  0  0  0  0  0  0  0  0  0
   12.0772   -5.3076    0.0000 C   0  0  0  0  0  0  0  0  0  0  0  0
  1  2  2  0
  2  3  1  0
  3  4  2  0
  4  5  1  0
  5  6  2  0
  1  6  1  0
  7  8  2  0
  8  9  1  0
  9 10  2  0
  3 10  1  0
  4  7  1  0
  5 11  1  0
 12 13  2  0
 13 14  1  0
 14 15  2  0
 15 16  1  0
 16 17  2  0
 12 17  1  0
  1 12  1  0
 18 19  2  0
 19 20  1  0
 20 21  2  0
 21 22  1  0
 22 23  2  0
 18 23  1  0
 24 25  1  0
 20 24  1  0
 11 18  1  0
M  END
>  <Classification>  (275) 
1

>  <pchembl>  (275) 
6.69

>  <InChI_steorem>  (275) 
InChI=1S/C20H16N4S/c1-25-16-10-5-9-15(13-16)22-20-17-11-6-12-21-19(17)23-18(24-20)14-7-3-2-4-8-14/h2-13H,1H3,(H,21,22,23,24)

>  <source>  (275) 
ChEMBL25

>  <source_id>  (275) 
25

>  <optional_reference>  (275) 
10.1021/acs.jmedchem.7b01012

>  <optional_origin>  (275) 
None

>  <target>  (275) 
BCRP

$$$$

     RDKit          2D

 26 29  0  0  0  0  0  0  0  0999 V2000
   14.8069   -6.3156    0.0000 C   0  0  0  0  0  0  0  0  0  0  0  0
   14.1020   -6.7242    0.0000 N   0  0  0  0  0  0  0  0  0  0  0  0
   13.3929   -6.3156    0.0000 C   0  0  0  0  0  0  0  0  0  0  0  0
   13.3929   -5.4984    0.0000 C   0  0  0  0  0  0  0  0  0  0  0  0
   14.1020   -5.0898    0.0000 C   0  0  0  0  0  0  0  0  0  0  0  0
   14.8069   -5.4984    0.0000 N   0  0  0  0  0  0  0  0  0  0  0  0
   12.6838   -5.0898    0.0000 C   0  0  0  0  0  0  0  0  0  0  0  0
   11.9747   -5.4984    0.0000 C   0  0  0  0  0  0  0  0  0  0  0  0
   11.9747   -6.3156    0.0000 C   0  0  0  0  0  0  0  0  0  0  0  0
   12.6838   -6.7242    0.0000 N   0  0  0  0  0  0  0  0  0  0  0  0
   14.1020   -4.2726    0.0000 N   0  0  0  0  0  0  0  0  0  0  0  0
   15.5160   -6.7242    0.0000 C   0  0  0  0  0  0  0  0  0  0  0  0
   15.5160   -7.5414    0.0000 C   0  0  0  0  0  0  0  0  0  0  0  0
   16.2210   -7.9500    0.0000 C   0  0  0  0  0  0  0  0  0  0  0  0
   16.9301   -7.5414    0.0000 C   0  0  0  0  0  0  0  0  0  0  0  0
   16.9301   -6.7242    0.0000 C   0  0  0  0  0  0  0  0  0  0  0  0
   16.2210   -6.3156    0.0000 C   0  0  0  0  0  0  0  0  0  0  0  0
   16.2210   -8.7671    0.0000 O   0  0  0  0  0  0  0  0  0  0  0  0
   16.9301   -9.1757    0.0000 C   0  0  0  0  0  0  0  0  0  0  0  0
   14.8069   -3.8640    0.0000 C   0  0  0  0  0  0  0  0  0  0  0  0
   15.5160   -4.2726    0.0000 C   0  0  0  0  0  0  0  0  0  0  0  0
   16.2210   -3.8640    0.0000 C   0  0  0  0  0  0  0  0  0  0  0  0
   16.2210   -3.0468    0.0000 C   0  0  0  0  0  0  0  0  0  0  0  0
   15.5160   -2.6382    0.0000 C   0  0  0  0  0  0  0  0  0  0  0  0
   14.8069   -3.0468    0.0000 C   0  0  0  0  0  0  0  0  0  0  0  0
   16.9301   -4.2726    0.0000 Cl  0  0  0  0  0  0  0  0  0  0  0  0
  1  2  2  0
  2  3  1  0
  3  4  2  0
  4  5  1  0
  5  6  2  0
  1  6  1  0
  7  8  2  0
  8  9  1  0
  9 10  2  0
  3 10  1  0
  4  7  1  0
  5 11  1  0
 12 13  2  0
 13 14  1  0
 14 15  2  0
 15 16  1  0
 16 17  2  0
 12 17  1  0
 18 19  1  0
 14 18  1  0
  1 12  1  0
 20 21  2  0
 21 22  1  0
 22 23  2  0
 23 24  1  0
 24 25  2  0
 20 25  1  0
 22 26  1  0
 11 20  1  0
M  END
>  <Classification>  (276) 
1

>  <pchembl>  (276) 
6.2

>  <InChI_steorem>  (276) 
InChI=1S/C20H15ClN4O/c1-26-16-8-2-5-13(11-16)18-24-19-17(9-4-10-22-19)20(25-18)23-15-7-3-6-14(21)12-15/h2-12H,1H3,(H,22,23,24,25)

>  <source>  (276) 
ChEMBL25

>  <source_id>  (276) 
25

>  <optional_reference>  (276) 
10.1021/acs.jmedchem.7b01012

>  <optional_origin>  (276) 
None

>  <target>  (276) 
BCRP

$$$$

     RDKit          2D

 27 30  0  0  0  0  0  0  0  0999 V2000
   15.5139   -6.8113    0.0000 C   0  0  0  0  0  0  0  0  0  0  0  0
   14.8048   -7.2199    0.0000 N   0  0  0  0  0  0  0  0  0  0  0  0
   14.0999   -6.8113    0.0000 C   0  0  0  0  0  0  0  0  0  0  0  0
   14.0999   -5.9941    0.0000 C   0  0  0  0  0  0  0  0  0  0  0  0
   14.8048   -5.5855    0.0000 C   0  0  0  0  0  0  0  0  0  0  0  0
   15.5139   -5.9941    0.0000 N   0  0  0  0  0  0  0  0  0  0  0  0
   13.3908   -5.5855    0.0000 C   0  0  0  0  0  0  0  0  0  0  0  0
   12.6817   -5.9941    0.0000 C   0  0  0  0  0  0  0  0  0  0  0  0
   12.6817   -6.8113    0.0000 C   0  0  0  0  0  0  0  0  0  0  0  0
   13.3908   -7.2199    0.0000 N   0  0  0  0  0  0  0  0  0  0  0  0
   14.8048   -4.7683    0.0000 N   0  0  0  0  0  0  0  0  0  0  0  0
   16.2230   -7.2199    0.0000 C   0  0  0  0  0  0  0  0  0  0  0  0
   16.2230   -8.0371    0.0000 C   0  0  0  0  0  0  0  0  0  0  0  0
   16.9280   -8.4457    0.0000 C   0  0  0  0  0  0  0  0  0  0  0  0
   17.6371   -8.0371    0.0000 C   0  0  0  0  0  0  0  0  0  0  0  0
   17.6371   -7.2199    0.0000 C   0  0  0  0  0  0  0  0  0  0  0  0
   16.9280   -6.8113    0.0000 C   0  0  0  0  0  0  0  0  0  0  0  0
   16.9280   -9.2629    0.0000 O   0  0  0  0  0  0  0  0  0  0  0  0
   17.6371   -9.6715    0.0000 C   0  0  0  0  0  0  0  0  0  0  0  0
   15.5139   -4.3597    0.0000 C   0  0  0  0  0  0  0  0  0  0  0  0
   16.2230   -4.7683    0.0000 C   0  0  0  0  0  0  0  0  0  0  0  0
   16.9280   -4.3597    0.0000 C   0  0  0  0  0  0  0  0  0  0  0  0
   16.9280   -3.5425    0.0000 C   0  0  0  0  0  0  0  0  0  0  0  0
   16.2230   -3.1339    0.0000 C   0  0  0  0  0  0  0  0  0  0  0  0
   15.5139   -3.5425    0.0000 C   0  0  0  0  0  0  0  0  0  0  0  0
   17.6371   -3.1339    0.0000 F   0  0  0  0  0  0  0  0  0  0  0  0
   17.6371   -4.7683    0.0000 F   0  0  0  0  0  0  0  0  0  0  0  0
  1  2  2  0
  2  3  1  0
  3  4  2  0
  4  5  1  0
  5  6  2  0
  1  6  1  0
  7  8  2  0
  8  9  1  0
  9 10  2  0
  3 10  1  0
  4  7  1  0
  5 11  1  0
 12 13  2  0
 13 14  1  0
 14 15  2  0
 15 16  1  0
 16 17  2  0
 12 17  1  0
 18 19  1  0
 14 18  1  0
  1 12  1  0
 20 21  2  0
 21 22  1  0
 22 23  2  0
 23 24  1  0
 24 25  2  0
 20 25  1  0
 23 26  1  0
 22 27  1  0
 11 20  1  0
M  END
>  <Classification>  (277) 
1

>  <pchembl>  (277) 
6.79

>  <InChI_steorem>  (277) 
InChI=1S/C20H14F2N4O/c1-27-14-5-2-4-12(10-14)18-25-19-15(6-3-9-23-19)20(26-18)24-13-7-8-16(21)17(22)11-13/h2-11H,1H3,(H,23,24,25,26)

>  <source>  (277) 
ChEMBL25

>  <source_id>  (277) 
25

>  <optional_reference>  (277) 
10.1021/acs.jmedchem.7b01012

>  <optional_origin>  (277) 
None

>  <target>  (277) 
BCRP

$$$$

     RDKit          2D

 29 32  0  0  0  0  0  0  0  0999 V2000
   10.2356   -6.0643    0.0000 C   0  0  0  0  0  0  0  0  0  0  0  0
    9.5224   -5.6660    0.0000 C   0  0  0  0  0  0  0  0  0  0  0  0
    8.8217   -6.0807    0.0000 C   0  0  0  0  0  0  0  0  0  0  0  0
    8.8301   -6.8978    0.0000 C   0  0  0  0  0  0  0  0  0  0  0  0
    9.5433   -7.3002    0.0000 C   0  0  0  0  0  0  0  0  0  0  0  0
   10.2481   -6.8814    0.0000 C   0  0  0  0  0  0  0  0  0  0  0  0
   10.9404   -5.6455    0.0000 O   0  0  0  0  0  0  0  0  0  0  0  0
    9.5099   -4.8490    0.0000 N   0  0  0  0  0  0  0  0  0  0  0  0
   10.2147   -4.4301    0.0000 O   0  0  0  0  0  0  0  0  0  0  0  0
    8.7967   -4.4466    0.0000 O   0  0  0  0  0  0  0  0  0  0  0  0
    8.1294   -7.3166    0.0000 N   0  0  0  0  0  0  0  0  0  0  0  0
    8.8635   -9.3491    0.0000 C   0  0  0  0  0  0  0  0  0  0  0  0
    8.1628   -9.7679    0.0000 N   0  0  0  0  0  0  0  0  0  0  0  0
    7.4497   -9.3696    0.0000 C   0  0  0  0  0  0  0  0  0  0  0  0
    7.4371   -8.5525    0.0000 C   0  0  0  0  0  0  0  0  0  0  0  0
    8.1419   -8.1337    0.0000 C   0  0  0  0  0  0  0  0  0  0  0  0
    8.8551   -8.5320    0.0000 N   0  0  0  0  0  0  0  0  0  0  0  0
    6.7240   -8.1543    0.0000 C   0  0  0  0  0  0  0  0  0  0  0  0
    6.0233   -8.5731    0.0000 C   0  0  0  0  0  0  0  0  0  0  0  0
    6.0358   -9.3902    0.0000 C   0  0  0  0  0  0  0  0  0  0  0  0
    6.7449   -9.7885    0.0000 N   0  0  0  0  0  0  0  0  0  0  0  0
    9.5767   -9.7514    0.0000 C   0  0  0  0  0  0  0  0  0  0  0  0
    9.5892  -10.5685    0.0000 C   0  0  0  0  0  0  0  0  0  0  0  0
   10.3024  -10.9668    0.0000 C   0  0  0  0  0  0  0  0  0  0  0  0
   11.0031  -10.5480    0.0000 C   0  0  0  0  0  0  0  0  0  0  0  0
   10.9947   -9.7309    0.0000 C   0  0  0  0  0  0  0  0  0  0  0  0
   10.2815   -9.3326    0.0000 C   0  0  0  0  0  0  0  0  0  0  0  0
   10.3108  -11.7839    0.0000 O   0  0  0  0  0  0  0  0  0  0  0  0
   11.0240  -12.1821    0.0000 C   0  0  0  0  0  0  0  0  0  0  0  0
  1  2  2  0
  2  3  1  0
  3  4  2  0
  4  5  1  0
  5  6  2  0
  1  6  1  0
  1  7  1  0
  8  9  2  0
  8 10  1  0
  2  8  1  0
 12 13  2  0
 13 14  1  0
 14 15  2  0
 15 16  1  0
 16 17  2  0
 12 17  1  0
 18 19  2  0
 19 20  1  0
 20 21  2  0
 14 21  1  0
 15 18  1  0
 22 23  2  0
 23 24  1  0
 24 25  2  0
 25 26  1  0
 26 27  2  0
 22 27  1  0
 28 29  1  0
 24 28  1  0
 12 22  1  0
 11 16  1  0
  4 11  1  0
M  CHG  2   8   1  10  -1
M  END
>  <Classification>  (278) 
1

>  <pchembl>  (278) 
5.9

>  <InChI_steorem>  (278) 
InChI=1S/C20H15N5O4/c1-29-14-5-2-4-12(10-14)18-23-19-15(6-3-9-21-19)20(24-18)22-13-7-8-17(26)16(11-13)25(27)28/h2-11,26H,1H3,(H,21,22,23,24)

>  <source>  (278) 
ChEMBL25

>  <source_id>  (278) 
25

>  <optional_reference>  (278) 
10.1021/acs.jmedchem.7b01012

>  <optional_origin>  (278) 
None

>  <target>  (278) 
BCRP

$$$$

     RDKit          2D

 32 34  0  0  0  0  0  0  0  0999 V2000
   15.9752   -8.0662    0.0000 C   0  0  0  0  0  0  0  0  0  0  0  0
   15.2749   -8.4885    0.0000 C   0  0  0  0  0  0  0  0  0  0  0  0
   15.2922   -9.3054    0.0000 C   0  0  0  0  0  0  0  0  0  0  0  0
   14.5919   -9.7318    0.0000 C   0  0  0  0  0  0  0  0  0  0  0  0
   13.8786   -9.3372    0.0000 C   0  0  0  0  0  0  0  0  0  0  0  0
   13.8613   -8.5202    0.0000 C   0  0  0  0  0  0  0  0  0  0  0  0
   14.5574   -8.0938    0.0000 C   0  0  0  0  0  0  0  0  0  0  0  0
   16.6885   -8.4608    0.0000 O   0  0  0  0  0  0  0  0  0  0  0  0
   15.9579   -7.2492    0.0000 N   0  0  0  0  0  0  0  0  0  0  0  0
   16.6540   -6.8270    0.0000 C   0  0  0  0  0  0  0  0  0  0  0  0
   16.6409   -6.0100    0.0000 C   0  0  0  0  0  0  0  0  0  0  0  0
   17.3370   -5.5877    0.0000 C   0  0  0  0  0  0  0  0  0  0  0  0
   18.0545   -5.9783    0.0000 C   0  0  0  0  0  0  0  0  0  0  0  0
   18.0718   -6.7952    0.0000 C   0  0  0  0  0  0  0  0  0  0  0  0
   17.3715   -7.2216    0.0000 C   0  0  0  0  0  0  0  0  0  0  0  0
   18.7548   -5.5560    0.0000 C   0  0  0  0  0  0  0  0  0  0  0  0
   16.0055   -9.7000    0.0000 N   0  0  0  0  0  0  0  0  0  0  0  0
   16.0227  -10.5170    0.0000 C   0  0  0  0  0  0  0  0  0  0  0  0
   15.3266  -10.9392    0.0000 O   0  0  0  0  0  0  0  0  0  0  0  0
   16.7402  -10.9116    0.0000 N   0  0  0  0  0  0  0  0  0  0  0  0
   16.7575  -11.7285    0.0000 C   0  0  0  0  0  0  0  0  0  0  0  0
   17.4708  -12.1232    0.0000 C   0  0  0  0  0  0  0  0  0  0  0  0
   17.4881  -12.9401    0.0000 C   0  0  0  0  0  0  0  0  0  0  0  0
   16.7919  -13.3624    0.0000 C   0  0  0  0  0  0  0  0  0  0  0  0
   16.0745  -12.9677    0.0000 C   0  0  0  0  0  0  0  0  0  0  0  0
   16.0572  -12.1508    0.0000 C   0  0  0  0  0  0  0  0  0  0  0  0
   16.8092  -14.1793    0.0000 N   0  0  0  0  0  0  0  0  0  0  0  0
   17.5225  -14.5740    0.0000 O   0  0  0  0  0  0  0  0  0  0  0  0
   16.1089  -14.6016    0.0000 O   0  0  0  0  0  0  0  0  0  0  0  0
   19.4701   -5.9510    0.0000 F   0  0  0  0  0  0  0  0  0  0  0  0
   18.7392   -4.7389    0.0000 F   0  0  0  0  0  0  0  0  0  0  0  0
   19.4599   -5.1425    0.0000 F   0  0  0  0  0  0  0  0  0  0  0  0
  1  2  1  0
  2  3  1  0
  3  4  2  0
  4  5  1  0
  5  6  2  0
  6  7  1  0
  2  7  2  0
  1  8  2  0
  1  9  1  0
 10 11  2  0
 11 12  1  0
 12 13  2  0
 13 14  1  0
 14 15  2  0
 10 15  1  0
 13 16  1  0
  9 10  1  0
 17 18  1  0
 18 19  2  0
 18 20  1  0
 21 22  2  0
 22 23  1  0
 23 24  2  0
 24 25  1  0
 25 26  2  0
 21 26  1  0
 27 28  2  0
 27 29  1  0
 24 27  1  0
 20 21  1  0
  3 17  1  0
 16 30  1  0
 16 31  1  0
 16 32  1  0
M  CHG  2  27   1  29  -1
M  END
>  <Classification>  (279) 
1

>  <pchembl>  (279) 
6.34

>  <InChI_steorem>  (279) 
InChI=1S/C21H15F3N4O4/c22-21(23,24)13-5-7-14(8-6-13)25-19(29)17-3-1-2-4-18(17)27-20(30)26-15-9-11-16(12-10-15)28(31)32/h1-12H,(H,25,29)(H2,26,27,30)

>  <source>  (279) 
ChEMBL25

>  <source_id>  (279) 
25

>  <optional_reference>  (279) 
10.1016/j.bmcl.2017.09.009

>  <optional_origin>  (279) 
None

>  <target>  (279) 
BCRP

$$$$

     RDKit          2D

 27 30  0  0  0  0  0  0  0  0999 V2000
   10.8903   -4.1272    0.0000 C   0  0  0  0  0  0  0  0  0  0  0  0
   10.8892   -4.9467    0.0000 C   0  0  0  0  0  0  0  0  0  0  0  0
   11.5972   -5.3557    0.0000 C   0  0  0  0  0  0  0  0  0  0  0  0
   11.5955   -3.7183    0.0000 C   0  0  0  0  0  0  0  0  0  0  0  0
   12.3041   -4.1236    0.0000 C   0  0  0  0  0  0  0  0  0  0  0  0
   12.3048   -4.9426    0.0000 C   0  0  0  0  0  0  0  0  0  0  0  0
   13.0134   -5.3497    0.0000 N   0  0  0  0  0  0  0  0  0  0  0  0
   13.7216   -4.9388    0.0000 C   0  0  0  0  0  0  0  0  0  0  0  0
   13.7169   -4.1167    0.0000 N   0  0  0  0  0  0  0  0  0  0  0  0
   13.0078   -3.7134    0.0000 C   0  0  0  0  0  0  0  0  0  0  0  0
   13.0035   -2.8962    0.0000 N   0  0  0  0  0  0  0  0  0  0  0  0
   13.7090   -2.4838    0.0000 C   0  0  0  0  0  0  0  0  0  0  0  0
   14.4143   -2.8921    0.0000 C   0  0  0  0  0  0  0  0  0  0  0  0
   15.1193   -2.4804    0.0000 C   0  0  0  0  0  0  0  0  0  0  0  0
   15.1154   -1.6623    0.0000 C   0  0  0  0  0  0  0  0  0  0  0  0
   14.4006   -1.2577    0.0000 C   0  0  0  0  0  0  0  0  0  0  0  0
   13.6985   -1.6717    0.0000 C   0  0  0  0  0  0  0  0  0  0  0  0
   14.4274   -5.3406    0.0000 C   0  0  0  0  0  0  0  0  0  0  0  0
   14.4292   -6.1589    0.0000 C   0  0  0  0  0  0  0  0  0  0  0  0
   15.1377   -6.5647    0.0000 C   0  0  0  0  0  0  0  0  0  0  0  0
   15.8448   -6.1533    0.0000 N   0  0  0  0  0  0  0  0  0  0  0  0
   15.8389   -5.3319    0.0000 C   0  0  0  0  0  0  0  0  0  0  0  0
   15.1299   -4.9298    0.0000 C   0  0  0  0  0  0  0  0  0  0  0  0
   14.3934   -0.4405    0.0000 C   0  0  0  0  0  0  0  0  0  0  0  0
   15.0974   -0.0257    0.0000 F   0  0  0  0  0  0  0  0  0  0  0  0
   13.6821   -0.0382    0.0000 F   0  0  0  0  0  0  0  0  0  0  0  0
   14.3875    0.3797    0.0000 F   0  0  0  0  0  0  0  0  0  0  0  0
  1  2  2  0
  2  3  1  0
  3  6  2  0
  5  4  2  0
  4  1  1  0
  5  6  1  0
  6  7  1  0
  7  8  2  0
  8  9  1  0
  9 10  2  0
 10  5  1  0
 10 11  1  0
 11 12  1  0
 12 13  2  0
 13 14  1  0
 14 15  2  0
 15 16  1  0
 16 17  2  0
 17 12  1  0
 18 19  2  0
 19 20  1  0
 20 21  2  0
 21 22  1  0
 22 23  2  0
 23 18  1  0
  8 18  1  0
 16 24  1  0
 24 25  1  0
 24 26  1  0
 24 27  1  0
M  END
>  <Classification>  (280) 
1

>  <pchembl>  (280) 
6.67

>  <InChI_steorem>  (280) 
InChI=1S/C20H13F3N4/c21-20(22,23)14-4-3-5-15(12-14)25-19-16-6-1-2-7-17(16)26-18(27-19)13-8-10-24-11-9-13/h1-12H,(H,25,26,27)

>  <source>  (280) 
ChEMBL25

>  <source_id>  (280) 
25

>  <optional_reference>  (280) 
10.1021/acs.jmedchem.7b00441

>  <optional_origin>  (280) 
None

>  <target>  (280) 
BCRP

$$$$

     RDKit          2D

 30 32  0  0  0  0  0  0  0  0999 V2000
   15.4487  -10.0295    0.0000 C   0  0  0  0  0  0  0  0  0  0  0  0
   14.7303  -10.4190    0.0000 C   0  0  0  0  0  0  0  0  0  0  0  0
   14.7066  -11.2356    0.0000 C   0  0  0  0  0  0  0  0  0  0  0  0
   13.9881  -11.6251    0.0000 C   0  0  0  0  0  0  0  0  0  0  0  0
   13.2934  -11.1937    0.0000 C   0  0  0  0  0  0  0  0  0  0  0  0
   13.3171  -10.3771    0.0000 C   0  0  0  0  0  0  0  0  0  0  0  0
   14.0356   -9.9918    0.0000 C   0  0  0  0  0  0  0  0  0  0  0  0
   16.1476  -10.4609    0.0000 O   0  0  0  0  0  0  0  0  0  0  0  0
   15.4766   -9.2129    0.0000 N   0  0  0  0  0  0  0  0  0  0  0  0
   16.1950   -8.8276    0.0000 C   0  0  0  0  0  0  0  0  0  0  0  0
   16.2187   -8.0109    0.0000 C   0  0  0  0  0  0  0  0  0  0  0  0
   16.9372   -7.6214    0.0000 C   0  0  0  0  0  0  0  0  0  0  0  0
   17.6319   -8.0528    0.0000 C   0  0  0  0  0  0  0  0  0  0  0  0
   17.6081   -8.8695    0.0000 C   0  0  0  0  0  0  0  0  0  0  0  0
   16.8897   -9.2548    0.0000 C   0  0  0  0  0  0  0  0  0  0  0  0
   18.3503   -7.6634    0.0000 C   0  0  0  0  0  0  0  0  0  0  0  0
   18.3782   -6.8467    0.0000 C   0  0  0  0  0  0  0  0  0  0  0  0
   19.0966   -6.4614    0.0000 C   0  0  0  0  0  0  0  0  0  0  0  0
   15.3817  -12.4837    0.0000 C   0  0  0  0  0  0  0  0  0  0  0  0
   16.0764  -12.9109    0.0000 C   0  0  0  0  0  0  0  0  0  0  0  0
   16.7948  -12.5256    0.0000 C   0  0  0  0  0  0  0  0  0  0  0  0
   17.4895  -12.9528    0.0000 C   0  0  0  0  0  0  0  0  0  0  0  0
   17.4658  -13.7694    0.0000 C   0  0  0  0  0  0  0  0  0  0  0  0
   16.7474  -14.1589    0.0000 C   0  0  0  0  0  0  0  0  0  0  0  0
   16.0526  -13.7275    0.0000 C   0  0  0  0  0  0  0  0  0  0  0  0
   14.6591  -12.8690    0.0000 O   0  0  0  0  0  0  0  0  0  0  0  0
   15.4054  -11.6670    0.0000 N   0  0  0  0  0  0  0  0  0  0  0  0
   18.1605  -14.2008    0.0000 N   0  0  0  0  0  0  0  0  0  0  0  0
   18.8789  -13.8114    0.0000 O   0  0  0  0  0  0  0  0  0  0  0  0
   18.1368  -15.0175    0.0000 O   0  0  0  0  0  0  0  0  0  0  0  0
  1  2  1  0
  2  3  1  0
  3  4  2  0
  4  5  1  0
  5  6  2  0
  6  7  1  0
  2  7  2  0
  1  8  2  0
  1  9  1  0
 10 11  2  0
 11 12  1  0
 12 13  2  0
 13 14  1  0
 14 15  2  0
 10 15  1  0
 16 17  1  0
 17 18  1  0
 13 16  1  0
  9 10  1  0
 19 20  1  0
 20 21  2  0
 21 22  1  0
 22 23  2  0
 23 24  1  0
 24 25  2  0
 20 25  1  0
 19 26  2  0
 19 27  1  0
 28 29  2  0
 28 30  1  0
 23 28  1  0
  3 27  1  0
M  CHG  2  28   1  30  -1
M  END
>  <Classification>  (281) 
1

>  <pchembl>  (281) 
6.23

>  <InChI_steorem>  (281) 
InChI=1S/C23H21N3O4/c1-2-5-16-8-12-18(13-9-16)24-23(28)20-6-3-4-7-21(20)25-22(27)17-10-14-19(15-11-17)26(29)30/h3-4,6-15H,2,5H2,1H3,(H,24,28)(H,25,27)

>  <source>  (281) 
ChEMBL25

>  <source_id>  (281) 
25

>  <optional_reference>  (281) 
10.1016/j.bmcl.2017.09.009

>  <optional_origin>  (281) 
None

>  <target>  (281) 
BCRP

$$$$

     RDKit          2D

 31 34  0  0  0  0  0  0  0  0999 V2000
   18.0603  -14.6033    0.0000 C   0  0  0  0  0  0  0  0  0  0  0  0
   17.3520  -15.0062    0.0000 C   0  0  0  0  0  0  0  0  0  0  0  0
   16.6463  -14.5960    0.0000 C   0  0  0  0  0  0  0  0  0  0  0  0
   15.9339  -14.9988    0.0000 C   0  0  0  0  0  0  0  0  0  0  0  0
   15.9314  -15.8160    0.0000 C   0  0  0  0  0  0  0  0  0  0  0  0
   16.6371  -16.2303    0.0000 C   0  0  0  0  0  0  0  0  0  0  0  0
   17.3454  -15.8233    0.0000 C   0  0  0  0  0  0  0  0  0  0  0  0
   18.7661  -15.0135    0.0000 O   0  0  0  0  0  0  0  0  0  0  0  0
   18.0670  -13.7862    0.0000 N   0  0  0  0  0  0  0  0  0  0  0  0
   17.3612  -13.3718    0.0000 C   0  0  0  0  0  0  0  0  0  0  0  0
   17.3637  -12.5547    0.0000 C   0  0  0  0  0  0  0  0  0  0  0  0
   16.6580  -12.1444    0.0000 C   0  0  0  0  0  0  0  0  0  0  0  0
   15.9497  -12.5473    0.0000 C   0  0  0  0  0  0  0  0  0  0  0  0
   15.9431  -13.3645    0.0000 C   0  0  0  0  0  0  0  0  0  0  0  0
   16.6488  -13.7788    0.0000 C   0  0  0  0  0  0  0  0  0  0  0  0
   18.8166  -12.4881    0.0000 N   0  0  0  0  0  0  0  0  0  0  0  0
   19.3693  -11.8820    0.0000 N   0  0  0  0  0  0  0  0  0  0  0  0
   18.9624  -11.1737    0.0000 N   0  0  0  0  0  0  0  0  0  0  0  0
   18.1626  -11.3380    0.0000 N   0  0  0  0  0  0  0  0  0  0  0  0
   18.0761  -12.1518    0.0000 C   0  0  0  0  0  0  0  0  0  0  0  0
   20.1790  -11.9726    0.0000 C   0  0  0  0  0  0  0  0  0  0  0  0
   20.5115  -12.7185    0.0000 C   0  0  0  0  0  0  0  0  0  0  0  0
   21.3212  -12.8091    0.0000 C   0  0  0  0  0  0  0  0  0  0  0  0
   21.8067  -12.1539    0.0000 C   0  0  0  0  0  0  0  0  0  0  0  0
   21.4783  -11.4039    0.0000 C   0  0  0  0  0  0  0  0  0  0  0  0
   20.6645  -11.3133    0.0000 C   0  0  0  0  0  0  0  0  0  0  0  0
   21.6495  -13.5591    0.0000 O   0  0  0  0  0  0  0  0  0  0  0  0
   22.4633  -13.6497    0.0000 C   0  0  0  0  0  0  0  0  0  0  0  0
   15.2231  -16.2229    0.0000 N   0  0  0  0  0  0  0  0  0  0  0  0
   15.2165  -17.0401    0.0000 N   0  0  0  0  0  0  0  0  0  0  0  0
   15.2140  -17.8573    0.0000 N   0  0  0  0  0  0  0  0  0  0  0  0
  1  2  1  0
  2  3  2  0
  3  4  1  0
  4  5  2  0
  5  6  1  0
  6  7  2  0
  2  7  1  0
  1  8  2  0
  1  9  1  0
 10 11  1  0
 11 12  2  0
 12 13  1  0
 13 14  2  0
 14 15  1  0
 10 15  2  0
 16 17  1  0
 17 18  1  0
 18 19  2  0
 19 20  1  0
 16 20  2  0
 21 22  2  0
 22 23  1  0
 23 24  2  0
 24 25  1  0
 25 26  2  0
 21 26  1  0
 27 28  1  0
 23 27  1  0
 17 21  1  0
 11 20  1  0
  9 10  1  0
 29 30  2  0
 30 31  2  0
  5 29  1  0
M  CHG  2  30   1  31  -1
M  END
>  <Classification>  (282) 
1

>  <pchembl>  (282) 
5.9

>  <InChI_steorem>  (282) 
InChI=1S/C21H16N8O2/c1-31-17-6-4-5-16(13-17)29-26-20(25-28-29)18-7-2-3-8-19(18)23-21(30)14-9-11-15(12-10-14)24-27-22/h2-13H,1H3,(H,23,30)

>  <source>  (282) 
ChEMBL25

>  <source_id>  (282) 
25

>  <optional_reference>  (282) 
10.1016/j.bmcl.2017.09.009

>  <optional_origin>  (282) 
None

>  <target>  (282) 
BCRP

$$$$

     RDKit          2D

 25 28  0  0  0  0  0  0  0  0999 V2000
   10.7064   -5.0056    0.0000 C   0  0  0  0  0  0  0  0  0  0  0  0
    9.9973   -5.4142    0.0000 C   0  0  0  0  0  0  0  0  0  0  0  0
    9.2924   -5.0056    0.0000 C   0  0  0  0  0  0  0  0  0  0  0  0
    8.5833   -5.4142    0.0000 C   0  0  0  0  0  0  0  0  0  0  0  0
    8.5833   -6.2314    0.0000 C   0  0  0  0  0  0  0  0  0  0  0  0
    9.2924   -6.6400    0.0000 C   0  0  0  0  0  0  0  0  0  0  0  0
    9.9973   -6.2314    0.0000 C   0  0  0  0  0  0  0  0  0  0  0  0
   11.4155   -4.5970    0.0000 N   0  0  0  0  0  0  0  0  0  0  0  0
    7.8742   -6.6400    0.0000 N   0  0  0  0  0  0  0  0  0  0  0  0
    8.5833   -8.6830    0.0000 C   0  0  0  0  0  0  0  0  0  0  0  0
    7.8742   -9.0915    0.0000 N   0  0  0  0  0  0  0  0  0  0  0  0
    7.1651   -8.6830    0.0000 C   0  0  0  0  0  0  0  0  0  0  0  0
    7.1651   -7.8658    0.0000 C   0  0  0  0  0  0  0  0  0  0  0  0
    7.8742   -7.4572    0.0000 C   0  0  0  0  0  0  0  0  0  0  0  0
    8.5833   -7.8658    0.0000 N   0  0  0  0  0  0  0  0  0  0  0  0
    6.4601   -7.4572    0.0000 C   0  0  0  0  0  0  0  0  0  0  0  0
    5.7511   -7.8658    0.0000 C   0  0  0  0  0  0  0  0  0  0  0  0
    5.7511   -8.6830    0.0000 C   0  0  0  0  0  0  0  0  0  0  0  0
    6.4601   -9.0915    0.0000 N   0  0  0  0  0  0  0  0  0  0  0  0
    9.2924   -9.0915    0.0000 C   0  0  0  0  0  0  0  0  0  0  0  0
    9.2924   -9.9087    0.0000 C   0  0  0  0  0  0  0  0  0  0  0  0
    9.9973  -10.3173    0.0000 C   0  0  0  0  0  0  0  0  0  0  0  0
   10.7064   -9.9087    0.0000 C   0  0  0  0  0  0  0  0  0  0  0  0
   10.7064   -9.0915    0.0000 C   0  0  0  0  0  0  0  0  0  0  0  0
    9.9973   -8.6830    0.0000 C   0  0  0  0  0  0  0  0  0  0  0  0
  1  2  1  0
  2  3  2  0
  3  4  1  0
  4  5  2  0
  5  6  1  0
  6  7  2  0
  2  7  1  0
  1  8  3  0
 10 11  2  0
 11 12  1  0
 12 13  2  0
 13 14  1  0
 14 15  2  0
 10 15  1  0
 16 17  2  0
 17 18  1  0
 18 19  2  0
 12 19  1  0
 13 16  1  0
 20 21  2  0
 21 22  1  0
 22 23  2  0
 23 24  1  0
 24 25  2  0
 20 25  1  0
 10 20  1  0
  9 14  1  0
  5  9  1  0
M  END
>  <Classification>  (283) 
1

>  <pchembl>  (283) 
5.92

>  <InChI_steorem>  (283) 
InChI=1S/C20H13N5/c21-13-14-8-10-16(11-9-14)23-20-17-7-4-12-22-19(17)24-18(25-20)15-5-2-1-3-6-15/h1-12H,(H,22,23,24,25)

>  <source>  (283) 
ChEMBL25

>  <source_id>  (283) 
25

>  <optional_reference>  (283) 
10.1021/acs.jmedchem.7b01012

>  <optional_origin>  (283) 
None

>  <target>  (283) 
BCRP

$$$$

     RDKit          2D

 29 32  0  0  0  0  0  0  0  0999 V2000
    9.3049   -8.2493    0.0000 C   0  0  0  0  0  0  0  0  0  0  0  0
    8.5958   -8.6578    0.0000 N   0  0  0  0  0  0  0  0  0  0  0  0
    7.8908   -8.2493    0.0000 C   0  0  0  0  0  0  0  0  0  0  0  0
    7.8908   -7.4321    0.0000 C   0  0  0  0  0  0  0  0  0  0  0  0
    8.5958   -7.0235    0.0000 C   0  0  0  0  0  0  0  0  0  0  0  0
    9.3049   -7.4321    0.0000 N   0  0  0  0  0  0  0  0  0  0  0  0
    7.1818   -7.0235    0.0000 C   0  0  0  0  0  0  0  0  0  0  0  0
    6.4727   -7.4321    0.0000 C   0  0  0  0  0  0  0  0  0  0  0  0
    6.4727   -8.2493    0.0000 C   0  0  0  0  0  0  0  0  0  0  0  0
    7.1818   -8.6578    0.0000 N   0  0  0  0  0  0  0  0  0  0  0  0
    8.5958   -6.2063    0.0000 N   0  0  0  0  0  0  0  0  0  0  0  0
    9.3049   -5.7977    0.0000 C   0  0  0  0  0  0  0  0  0  0  0  0
   10.0140   -6.2063    0.0000 C   0  0  0  0  0  0  0  0  0  0  0  0
   10.7190   -5.7977    0.0000 C   0  0  0  0  0  0  0  0  0  0  0  0
   10.7190   -4.9805    0.0000 C   0  0  0  0  0  0  0  0  0  0  0  0
   10.0140   -4.5719    0.0000 C   0  0  0  0  0  0  0  0  0  0  0  0
    9.3049   -4.9805    0.0000 C   0  0  0  0  0  0  0  0  0  0  0  0
   11.4280   -4.5719    0.0000 C   0  0  0  0  0  0  0  0  0  0  0  0
   10.0140   -8.6578    0.0000 C   0  0  0  0  0  0  0  0  0  0  0  0
   10.0140   -9.4750    0.0000 C   0  0  0  0  0  0  0  0  0  0  0  0
   10.7190   -9.8836    0.0000 C   0  0  0  0  0  0  0  0  0  0  0  0
   11.4280   -9.4750    0.0000 C   0  0  0  0  0  0  0  0  0  0  0  0
   11.4280   -8.6578    0.0000 C   0  0  0  0  0  0  0  0  0  0  0  0
   10.7190   -8.2493    0.0000 C   0  0  0  0  0  0  0  0  0  0  0  0
   10.7190  -10.7008    0.0000 O   0  0  0  0  0  0  0  0  0  0  0  0
   11.4280  -11.1094    0.0000 C   0  0  0  0  0  0  0  0  0  0  0  0
   12.1354   -4.9811    0.0000 F   0  0  0  0  0  0  0  0  0  0  0  0
   11.4287   -3.7547    0.0000 F   0  0  0  0  0  0  0  0  0  0  0  0
   12.1299   -4.1561    0.0000 F   0  0  0  0  0  0  0  0  0  0  0  0
  1  2  2  0
  2  3  1  0
  3  4  2  0
  4  5  1  0
  5  6  2  0
  1  6  1  0
  7  8  2  0
  8  9  1  0
  9 10  2  0
  3 10  1  0
  4  7  1  0
  5 11  1  0
 12 13  2  0
 13 14  1  0
 14 15  2  0
 15 16  1  0
 16 17  2  0
 12 17  1  0
 15 18  1  0
 11 12  1  0
 19 20  2  0
 20 21  1  0
 21 22  2  0
 22 23  1  0
 23 24  2  0
 19 24  1  0
 25 26  1  0
 21 25  1  0
  1 19  1  0
 18 27  1  0
 18 28  1  0
 18 29  1  0
M  END
>  <Classification>  (284) 
1

>  <pchembl>  (284) 
6.21

>  <InChI_steorem>  (284) 
InChI=1S/C21H15F3N4O/c1-29-16-5-2-4-13(12-16)18-27-19-17(6-3-11-25-19)20(28-18)26-15-9-7-14(8-10-15)21(22,23)24/h2-12H,1H3,(H,25,26,27,28)

>  <source>  (284) 
ChEMBL25

>  <source_id>  (284) 
25

>  <optional_reference>  (284) 
10.1021/acs.jmedchem.7b01012

>  <optional_origin>  (284) 
None

>  <target>  (284) 
BCRP

$$$$

     RDKit          2D

 25 28  0  0  0  0  0  0  0  0999 V2000
   10.9688  -12.2496    0.0000 C   0  0  0  0  0  0  0  0  0  0  0  0
   10.9676  -13.0691    0.0000 C   0  0  0  0  0  0  0  0  0  0  0  0
   11.6757  -13.4781    0.0000 C   0  0  0  0  0  0  0  0  0  0  0  0
   11.6739  -11.8407    0.0000 C   0  0  0  0  0  0  0  0  0  0  0  0
   12.3825  -12.2460    0.0000 C   0  0  0  0  0  0  0  0  0  0  0  0
   12.3832  -13.0650    0.0000 C   0  0  0  0  0  0  0  0  0  0  0  0
   13.0918  -13.4721    0.0000 N   0  0  0  0  0  0  0  0  0  0  0  0
   13.8000  -13.0612    0.0000 C   0  0  0  0  0  0  0  0  0  0  0  0
   13.7953  -12.2391    0.0000 N   0  0  0  0  0  0  0  0  0  0  0  0
   13.0862  -11.8357    0.0000 C   0  0  0  0  0  0  0  0  0  0  0  0
   13.0819  -11.0186    0.0000 N   0  0  0  0  0  0  0  0  0  0  0  0
   13.7874  -10.6062    0.0000 C   0  0  0  0  0  0  0  0  0  0  0  0
   14.4927  -11.0144    0.0000 C   0  0  0  0  0  0  0  0  0  0  0  0
   15.1977  -10.6028    0.0000 C   0  0  0  0  0  0  0  0  0  0  0  0
   15.1938   -9.7847    0.0000 C   0  0  0  0  0  0  0  0  0  0  0  0
   14.4790   -9.3801    0.0000 C   0  0  0  0  0  0  0  0  0  0  0  0
   13.7769   -9.7941    0.0000 C   0  0  0  0  0  0  0  0  0  0  0  0
   14.5058  -13.4630    0.0000 C   0  0  0  0  0  0  0  0  0  0  0  0
   14.5076  -14.2813    0.0000 N   0  0  0  0  0  0  0  0  0  0  0  0
   15.2161  -14.6871    0.0000 C   0  0  0  0  0  0  0  0  0  0  0  0
   15.9232  -14.2757    0.0000 C   0  0  0  0  0  0  0  0  0  0  0  0
   15.9174  -13.4543    0.0000 C   0  0  0  0  0  0  0  0  0  0  0  0
   15.2083  -13.0522    0.0000 C   0  0  0  0  0  0  0  0  0  0  0  0
   14.4685   -8.5648    0.0000 C   0  0  0  0  0  0  0  0  0  0  0  0
   14.4612   -7.7477    0.0000 N   0  0  0  0  0  0  0  0  0  0  0  0
  1  2  2  0
  2  3  1  0
  3  6  2  0
  5  4  2  0
  4  1  1  0
  5  6  1  0
  6  7  1  0
  7  8  2  0
  8  9  1  0
  9 10  2  0
 10  5  1  0
 10 11  1  0
 11 12  1  0
 12 13  2  0
 13 14  1  0
 14 15  2  0
 15 16  1  0
 16 17  2  0
 17 12  1  0
 18 19  2  0
 19 20  1  0
 20 21  2  0
 21 22  1  0
 22 23  2  0
 23 18  1  0
  8 18  1  0
 24 25  3  0
 16 24  1  0
M  END
>  <Classification>  (285) 
1

>  <pchembl>  (285) 
6.29

>  <InChI_steorem>  (285) 
InChI=1S/C20H13N5/c21-13-14-6-5-7-15(12-14)23-19-16-8-1-2-9-17(16)24-20(25-19)18-10-3-4-11-22-18/h1-12H,(H,23,24,25)

>  <source>  (285) 
ChEMBL25

>  <source_id>  (285) 
25

>  <optional_reference>  (285) 
10.1021/acs.jmedchem.7b00441

>  <optional_origin>  (285) 
None

>  <target>  (285) 
BCRP

$$$$

     RDKit          2D

 31 34  0  0  0  0  0  0  0  0999 V2000
   14.5233  -12.9263    0.0000 C   0  0  0  0  0  0  0  0  0  0  0  0
   15.2425  -13.3142    0.0000 C   0  0  0  0  0  0  0  0  0  0  0  0
   15.9363  -12.8815    0.0000 C   0  0  0  0  0  0  0  0  0  0  0  0
   16.6556  -13.2694    0.0000 C   0  0  0  0  0  0  0  0  0  0  0  0
   16.6810  -14.0902    0.0000 C   0  0  0  0  0  0  0  0  0  0  0  0
   15.9871  -14.5188    0.0000 C   0  0  0  0  0  0  0  0  0  0  0  0
   15.2679  -14.1309    0.0000 C   0  0  0  0  0  0  0  0  0  0  0  0
   13.8253  -13.3590    0.0000 O   0  0  0  0  0  0  0  0  0  0  0  0
   14.4979  -12.1097    0.0000 N   0  0  0  0  0  0  0  0  0  0  0  0
   15.9109  -12.0649    0.0000 N   0  0  0  0  0  0  0  0  0  0  0  0
   16.6047  -11.6362    0.0000 O   0  0  0  0  0  0  0  0  0  0  0  0
   15.1917  -11.6810    0.0000 O   0  0  0  0  0  0  0  0  0  0  0  0
   13.7786  -11.7217    0.0000 C   0  0  0  0  0  0  0  0  0  0  0  0
   13.7532  -10.9051    0.0000 C   0  0  0  0  0  0  0  0  0  0  0  0
   13.0299  -10.5212    0.0000 C   0  0  0  0  0  0  0  0  0  0  0  0
   12.3361  -10.9499    0.0000 C   0  0  0  0  0  0  0  0  0  0  0  0
   12.3615  -11.7665    0.0000 C   0  0  0  0  0  0  0  0  0  0  0  0
   13.0807  -12.1545    0.0000 C   0  0  0  0  0  0  0  0  0  0  0  0
   14.5058   -9.6626    0.0000 N   0  0  0  0  0  0  0  0  0  0  0  0
   15.2999   -9.4674    0.0000 N   0  0  0  0  0  0  0  0  0  0  0  0
   15.7327  -10.1613    0.0000 N   0  0  0  0  0  0  0  0  0  0  0  0
   15.2009  -10.7884    0.0000 N   0  0  0  0  0  0  0  0  0  0  0  0
   14.4471  -10.4764    0.0000 C   0  0  0  0  0  0  0  0  0  0  0  0
   15.6120   -8.7094    0.0000 C   0  0  0  0  0  0  0  0  0  0  0  0
   15.1098   -8.0647    0.0000 C   0  0  0  0  0  0  0  0  0  0  0  0
   15.4219   -7.3067    0.0000 C   0  0  0  0  0  0  0  0  0  0  0  0
   16.2319   -7.1975    0.0000 C   0  0  0  0  0  0  0  0  0  0  0  0
   16.7299   -7.8423    0.0000 C   0  0  0  0  0  0  0  0  0  0  0  0
   16.4220   -8.6003    0.0000 C   0  0  0  0  0  0  0  0  0  0  0  0
   14.9197   -6.6620    0.0000 O   0  0  0  0  0  0  0  0  0  0  0  0
   15.2276   -5.9081    0.0000 C   0  0  0  0  0  0  0  0  0  0  0  0
  1  2  1  0
  2  3  2  0
  3  4  1  0
  4  5  2  0
  5  6  1  0
  6  7  2  0
  2  7  1  0
  1  8  2  0
  1  9  1  0
 10 11  2  0
 10 12  1  0
  3 10  1  0
 13 14  1  0
 14 15  2  0
 15 16  1  0
 16 17  2  0
 17 18  1  0
 13 18  2  0
 19 20  1  0
 20 21  1  0
 21 22  2  0
 22 23  1  0
 19 23  2  0
 24 25  2  0
 25 26  1  0
 26 27  2  0
 27 28  1  0
 28 29  2  0
 24 29  1  0
 30 31  1  0
 26 30  1  0
 20 24  1  0
 14 23  1  0
  9 13  1  0
M  CHG  2  10   1  12  -1
M  END
>  <Classification>  (286) 
1

>  <pchembl>  (286) 
5.96

>  <InChI_steorem>  (286) 
InChI=1S/C21H16N6O4/c1-31-15-8-6-7-14(13-15)26-24-20(23-25-26)16-9-2-4-11-18(16)22-21(28)17-10-3-5-12-19(17)27(29)30/h2-13H,1H3,(H,22,28)

>  <source>  (286) 
ChEMBL25

>  <source_id>  (286) 
25

>  <optional_reference>  (286) 
10.1016/j.bmcl.2017.09.009

>  <optional_origin>  (286) 
None

>  <target>  (286) 
BCRP

$$$$

     RDKit          2D

 25 28  0  0  0  0  0  0  0  0999 V2000
   30.9776  -21.4946    0.0000 C   0  0  0  0  0  0  0  0  0  0  0  0
   30.9764  -22.3141    0.0000 C   0  0  0  0  0  0  0  0  0  0  0  0
   31.6845  -22.7231    0.0000 C   0  0  0  0  0  0  0  0  0  0  0  0
   31.6827  -21.0857    0.0000 C   0  0  0  0  0  0  0  0  0  0  0  0
   32.3913  -21.4910    0.0000 C   0  0  0  0  0  0  0  0  0  0  0  0
   32.3920  -22.3100    0.0000 C   0  0  0  0  0  0  0  0  0  0  0  0
   33.1006  -22.7170    0.0000 N   0  0  0  0  0  0  0  0  0  0  0  0
   33.8088  -22.3062    0.0000 C   0  0  0  0  0  0  0  0  0  0  0  0
   33.8041  -21.4841    0.0000 N   0  0  0  0  0  0  0  0  0  0  0  0
   33.0950  -21.0807    0.0000 C   0  0  0  0  0  0  0  0  0  0  0  0
   33.0907  -20.2636    0.0000 N   0  0  0  0  0  0  0  0  0  0  0  0
   33.7962  -19.8512    0.0000 C   0  0  0  0  0  0  0  0  0  0  0  0
   34.5015  -20.2594    0.0000 C   0  0  0  0  0  0  0  0  0  0  0  0
   35.2065  -19.8478    0.0000 C   0  0  0  0  0  0  0  0  0  0  0  0
   35.2026  -19.0297    0.0000 C   0  0  0  0  0  0  0  0  0  0  0  0
   34.4878  -18.6251    0.0000 C   0  0  0  0  0  0  0  0  0  0  0  0
   33.7857  -19.0391    0.0000 C   0  0  0  0  0  0  0  0  0  0  0  0
   34.5146  -22.7080    0.0000 C   0  0  0  0  0  0  0  0  0  0  0  0
   34.5164  -23.5263    0.0000 C   0  0  0  0  0  0  0  0  0  0  0  0
   35.2249  -23.9321    0.0000 N   0  0  0  0  0  0  0  0  0  0  0  0
   35.9320  -23.5207    0.0000 C   0  0  0  0  0  0  0  0  0  0  0  0
   35.9262  -22.6993    0.0000 C   0  0  0  0  0  0  0  0  0  0  0  0
   35.2171  -22.2972    0.0000 C   0  0  0  0  0  0  0  0  0  0  0  0
   34.4806  -17.8079    0.0000 C   0  0  0  0  0  0  0  0  0  0  0  0
   35.1847  -17.3931    0.0000 O   0  0  0  0  0  0  0  0  0  0  0  0
  1  2  2  0
  2  3  1  0
  3  6  2  0
  5  4  2  0
  4  1  1  0
  5  6  1  0
  6  7  1  0
  7  8  2  0
  8  9  1  0
  9 10  2  0
 10  5  1  0
 10 11  1  0
 11 12  1  0
 12 13  2  0
 13 14  1  0
 14 15  2  0
 15 16  1  0
 16 17  2  0
 17 12  1  0
 18 19  2  0
 19 20  1  0
 20 21  2  0
 21 22  1  0
 22 23  2  0
 23 18  1  0
  8 18  1  0
 16 24  1  0
 24 25  1  0
M  END
>  <Classification>  (287) 
1

>  <pchembl>  (287) 
6.09

>  <InChI_steorem>  (287) 
InChI=1S/C20H16N4O/c25-13-14-5-3-7-16(11-14)22-20-17-8-1-2-9-18(17)23-19(24-20)15-6-4-10-21-12-15/h1-12,25H,13H2,(H,22,23,24)

>  <source>  (287) 
ChEMBL25

>  <source_id>  (287) 
25

>  <optional_reference>  (287) 
10.1021/acs.jmedchem.7b00441

>  <optional_origin>  (287) 
None

>  <target>  (287) 
BCRP

$$$$

     RDKit          2D

 22 24  0  0  0  0  0  0  0  0999 V2000
   34.2197  -21.4538    0.0000 C   0  0  0  0  0  0  0  0  0  0  0  0
   34.2204  -22.2728    0.0000 C   0  0  0  0  0  0  0  0  0  0  0  0
   34.9289  -22.6799    0.0000 N   0  0  0  0  0  0  0  0  0  0  0  0
   35.6372  -22.2691    0.0000 C   0  0  0  0  0  0  0  0  0  0  0  0
   35.6325  -21.4470    0.0000 N   0  0  0  0  0  0  0  0  0  0  0  0
   34.9234  -21.0436    0.0000 C   0  0  0  0  0  0  0  0  0  0  0  0
   34.9190  -20.2264    0.0000 N   0  0  0  0  0  0  0  0  0  0  0  0
   35.6246  -19.8141    0.0000 C   0  0  0  0  0  0  0  0  0  0  0  0
   36.3299  -20.2223    0.0000 C   0  0  0  0  0  0  0  0  0  0  0  0
   37.0349  -19.8106    0.0000 C   0  0  0  0  0  0  0  0  0  0  0  0
   37.0310  -18.9926    0.0000 C   0  0  0  0  0  0  0  0  0  0  0  0
   36.3162  -18.5879    0.0000 C   0  0  0  0  0  0  0  0  0  0  0  0
   35.6140  -19.0019    0.0000 C   0  0  0  0  0  0  0  0  0  0  0  0
   36.3429  -22.6708    0.0000 C   0  0  0  0  0  0  0  0  0  0  0  0
   36.3448  -23.4891    0.0000 C   0  0  0  0  0  0  0  0  0  0  0  0
   37.0532  -23.8949    0.0000 C   0  0  0  0  0  0  0  0  0  0  0  0
   37.7603  -23.4835    0.0000 C   0  0  0  0  0  0  0  0  0  0  0  0
   37.7545  -22.6621    0.0000 C   0  0  0  0  0  0  0  0  0  0  0  0
   37.0455  -22.2600    0.0000 C   0  0  0  0  0  0  0  0  0  0  0  0
   33.5133  -22.6825    0.0000 C   0  0  0  0  0  0  0  0  0  0  0  0
   37.7338  -18.5772    0.0000 C   0  0  0  0  0  0  0  0  0  0  0  0
   38.4388  -18.1639    0.0000 N   0  0  0  0  0  0  0  0  0  0  0  0
  1  2  2  0
  2  3  1  0
  3  4  2  0
  4  5  1  0
  5  6  2  0
  6  1  1  0
  6  7  1  0
  7  8  1  0
  8  9  2  0
  9 10  1  0
 10 11  2  0
 11 12  1  0
 12 13  2  0
 13  8  1  0
 14 15  2  0
 15 16  1  0
 16 17  2  0
 17 18  1  0
 18 19  2  0
 19 14  1  0
  4 14  1  0
  2 20  1  0
 21 22  3  0
 11 21  1  0
M  END
>  <Classification>  (288) 
1

>  <pchembl>  (288) 
6.89

>  <InChI_steorem>  (288) 
InChI=1S/C18H14N4/c1-13-11-17(21-16-9-7-14(12-19)8-10-16)22-18(20-13)15-5-3-2-4-6-15/h2-11H,1H3,(H,20,21,22)

>  <source>  (288) 
ChEMBL25

>  <source_id>  (288) 
25

>  <optional_reference>  (288) 
10.1021/acs.jmedchem.7b00441

>  <optional_origin>  (288) 
None

>  <target>  (288) 
BCRP

$$$$

     RDKit          2D

 27 30  0  0  0  0  0  0  0  0999 V2000
   11.6806   -4.8582    0.0000 C   0  0  0  0  0  0  0  0  0  0  0  0
   10.9756   -5.2668    0.0000 C   0  0  0  0  0  0  0  0  0  0  0  0
   10.9756   -6.0840    0.0000 C   0  0  0  0  0  0  0  0  0  0  0  0
   11.6806   -6.4967    0.0000 C   0  0  0  0  0  0  0  0  0  0  0  0
   12.3897   -6.0840    0.0000 C   0  0  0  0  0  0  0  0  0  0  0  0
   12.3897   -5.2668    0.0000 C   0  0  0  0  0  0  0  0  0  0  0  0
   10.2666   -6.4967    0.0000 N   0  0  0  0  0  0  0  0  0  0  0  0
   10.9756   -8.5397    0.0000 C   0  0  0  0  0  0  0  0  0  0  0  0
   10.2666   -8.9483    0.0000 N   0  0  0  0  0  0  0  0  0  0  0  0
    9.5616   -8.5397    0.0000 C   0  0  0  0  0  0  0  0  0  0  0  0
    9.5616   -7.7225    0.0000 C   0  0  0  0  0  0  0  0  0  0  0  0
   10.2666   -7.3139    0.0000 C   0  0  0  0  0  0  0  0  0  0  0  0
   10.9756   -7.7225    0.0000 N   0  0  0  0  0  0  0  0  0  0  0  0
    8.8525   -7.3139    0.0000 C   0  0  0  0  0  0  0  0  0  0  0  0
    8.1434   -7.7225    0.0000 C   0  0  0  0  0  0  0  0  0  0  0  0
    8.1434   -8.5397    0.0000 C   0  0  0  0  0  0  0  0  0  0  0  0
    8.8525   -8.9483    0.0000 C   0  0  0  0  0  0  0  0  0  0  0  0
   12.3897   -8.5397    0.0000 C   0  0  0  0  0  0  0  0  0  0  0  0
   11.6806   -8.9483    0.0000 C   0  0  0  0  0  0  0  0  0  0  0  0
   11.6806   -9.7655    0.0000 C   0  0  0  0  0  0  0  0  0  0  0  0
   12.3897  -10.1741    0.0000 C   0  0  0  0  0  0  0  0  0  0  0  0
   13.0988   -9.7655    0.0000 C   0  0  0  0  0  0  0  0  0  0  0  0
   13.0988   -8.9483    0.0000 C   0  0  0  0  0  0  0  0  0  0  0  0
   13.0972   -4.8579    0.0000 O   0  0  0  0  0  0  0  0  0  0  0  0
   11.6796   -4.0410    0.0000 N   0  0  0  0  0  0  0  0  0  0  0  0
   12.3868   -3.6315    0.0000 O   0  0  0  0  0  0  0  0  0  0  0  0
   10.9714   -3.6333    0.0000 O   0  0  0  0  0  0  0  0  0  0  0  0
  1  2  2  0
  2  3  1  0
  3  4  2  0
  4  5  1  0
  5  6  2  0
  1  6  1  0
  8  9  2  0
  9 10  1  0
 10 11  2  0
 11 12  1  0
 12 13  2  0
  8 13  1  0
 14 15  2  0
 15 16  1  0
 16 17  2  0
 10 17  1  0
 11 14  1  0
 18 19  2  0
 19 20  1  0
 20 21  2  0
 21 22  1  0
 22 23  2  0
 18 23  1  0
  8 19  1  0
  7 12  1  0
  3  7  1  0
  6 24  1  0
  1 25  1  0
 25 26  1  0
 25 27  2  0
M  CHG  2  25   1  26  -1
M  END
>  <Classification>  (289) 
1

>  <pchembl>  (289) 
7.09

>  <InChI_steorem>  (289) 
InChI=1S/C20H14N4O3/c25-18-11-10-14(12-17(18)24(26)27)21-20-15-8-4-5-9-16(15)22-19(23-20)13-6-2-1-3-7-13/h1-12,25H,(H,21,22,23)

>  <source>  (289) 
ChEMBL25

>  <source_id>  (289) 
25

>  <optional_reference>  (289) 
10.1021/acs.jmedchem.7b00441

>  <optional_origin>  (289) 
None

>  <target>  (289) 
BCRP

$$$$

     RDKit          2D

 25 28  0  0  0  0  0  0  0  0999 V2000
   16.1074   -5.1686    0.0000 C   0  0  0  0  0  0  0  0  0  0  0  0
   16.1074   -5.9858    0.0000 C   0  0  0  0  0  0  0  0  0  0  0  0
   15.3983   -6.3944    0.0000 C   0  0  0  0  0  0  0  0  0  0  0  0
   15.3983   -7.2157    0.0000 C   0  0  0  0  0  0  0  0  0  0  0  0
   16.1074   -7.6243    0.0000 C   0  0  0  0  0  0  0  0  0  0  0  0
   16.8123   -7.2157    0.0000 C   0  0  0  0  0  0  0  0  0  0  0  0
   16.8123   -6.3944    0.0000 C   0  0  0  0  0  0  0  0  0  0  0  0
   16.1074   -4.3514    0.0000 N   0  0  0  0  0  0  0  0  0  0  0  0
   14.6892   -7.6243    0.0000 N   0  0  0  0  0  0  0  0  0  0  0  0
   15.3983   -9.6673    0.0000 C   0  0  0  0  0  0  0  0  0  0  0  0
   14.6892  -10.0759    0.0000 N   0  0  0  0  0  0  0  0  0  0  0  0
   13.9842   -9.6673    0.0000 C   0  0  0  0  0  0  0  0  0  0  0  0
   13.9842   -8.8501    0.0000 C   0  0  0  0  0  0  0  0  0  0  0  0
   14.6892   -8.4415    0.0000 C   0  0  0  0  0  0  0  0  0  0  0  0
   15.3983   -8.8501    0.0000 N   0  0  0  0  0  0  0  0  0  0  0  0
   13.2752   -8.4415    0.0000 C   0  0  0  0  0  0  0  0  0  0  0  0
   12.5661   -8.8501    0.0000 C   0  0  0  0  0  0  0  0  0  0  0  0
   12.5661   -9.6673    0.0000 C   0  0  0  0  0  0  0  0  0  0  0  0
   13.2752  -10.0759    0.0000 N   0  0  0  0  0  0  0  0  0  0  0  0
   16.1074  -10.0759    0.0000 C   0  0  0  0  0  0  0  0  0  0  0  0
   16.1074  -10.8931    0.0000 C   0  0  0  0  0  0  0  0  0  0  0  0
   16.8123  -11.3017    0.0000 C   0  0  0  0  0  0  0  0  0  0  0  0
   17.5214  -10.8931    0.0000 C   0  0  0  0  0  0  0  0  0  0  0  0
   17.5214  -10.0759    0.0000 C   0  0  0  0  0  0  0  0  0  0  0  0
   16.8123   -9.6673    0.0000 C   0  0  0  0  0  0  0  0  0  0  0  0
  1  2  1  0
  2  3  2  0
  3  4  1  0
  4  5  2  0
  5  6  1  0
  6  7  2  0
  2  7  1  0
  1  8  3  0
 10 11  2  0
 11 12  1  0
 12 13  2  0
 13 14  1  0
 14 15  2  0
 10 15  1  0
 16 17  2  0
 17 18  1  0
 18 19  2  0
 12 19  1  0
 13 16  1  0
 20 21  2  0
 21 22  1  0
 22 23  2  0
 23 24  1  0
 24 25  2  0
 20 25  1  0
 10 20  1  0
  9 14  1  0
  4  9  1  0
M  END
>  <Classification>  (290) 
1

>  <pchembl>  (290) 
6.4

>  <InChI_steorem>  (290) 
InChI=1S/C20H13N5/c21-13-14-6-4-9-16(12-14)23-20-17-10-5-11-22-19(17)24-18(25-20)15-7-2-1-3-8-15/h1-12H,(H,22,23,24,25)

>  <source>  (290) 
ChEMBL25

>  <source_id>  (290) 
25

>  <optional_reference>  (290) 
10.1021/acs.jmedchem.7b01012

>  <optional_origin>  (290) 
None

>  <target>  (290) 
BCRP

$$$$

     RDKit          2D

 25 28  0  0  0  0  0  0  0  0999 V2000
    7.6416   -7.6168    0.0000 C   0  0  0  0  0  0  0  0  0  0  0  0
    6.9325   -8.0254    0.0000 N   0  0  0  0  0  0  0  0  0  0  0  0
    6.2275   -7.6168    0.0000 C   0  0  0  0  0  0  0  0  0  0  0  0
    6.2275   -6.7996    0.0000 C   0  0  0  0  0  0  0  0  0  0  0  0
    6.9325   -6.3910    0.0000 C   0  0  0  0  0  0  0  0  0  0  0  0
    7.6416   -6.7996    0.0000 N   0  0  0  0  0  0  0  0  0  0  0  0
    5.5184   -6.3910    0.0000 C   0  0  0  0  0  0  0  0  0  0  0  0
    4.8093   -6.7996    0.0000 C   0  0  0  0  0  0  0  0  0  0  0  0
    4.8093   -7.6168    0.0000 C   0  0  0  0  0  0  0  0  0  0  0  0
    5.5184   -8.0254    0.0000 N   0  0  0  0  0  0  0  0  0  0  0  0
    6.9325   -5.5697    0.0000 N   0  0  0  0  0  0  0  0  0  0  0  0
    8.3507   -8.0254    0.0000 C   0  0  0  0  0  0  0  0  0  0  0  0
    8.3507   -8.8426    0.0000 C   0  0  0  0  0  0  0  0  0  0  0  0
    9.0556   -9.2512    0.0000 C   0  0  0  0  0  0  0  0  0  0  0  0
    9.7647   -8.8426    0.0000 C   0  0  0  0  0  0  0  0  0  0  0  0
    9.7647   -8.0254    0.0000 C   0  0  0  0  0  0  0  0  0  0  0  0
    9.0556   -7.6168    0.0000 C   0  0  0  0  0  0  0  0  0  0  0  0
    7.6416   -5.1611    0.0000 C   0  0  0  0  0  0  0  0  0  0  0  0
    8.3507   -5.5697    0.0000 C   0  0  0  0  0  0  0  0  0  0  0  0
    9.0556   -5.1611    0.0000 C   0  0  0  0  0  0  0  0  0  0  0  0
    9.0556   -4.3439    0.0000 C   0  0  0  0  0  0  0  0  0  0  0  0
    8.3507   -3.9353    0.0000 C   0  0  0  0  0  0  0  0  0  0  0  0
    7.6416   -4.3439    0.0000 C   0  0  0  0  0  0  0  0  0  0  0  0
    9.7647   -5.5697    0.0000 O   0  0  0  0  0  0  0  0  0  0  0  0
   10.4738   -5.1611    0.0000 C   0  0  0  0  0  0  0  0  0  0  0  0
  1  2  2  0
  2  3  1  0
  3  4  2  0
  4  5  1  0
  5  6  2  0
  1  6  1  0
  7  8  2  0
  8  9  1  0
  9 10  2  0
  3 10  1  0
  4  7  1  0
  5 11  1  0
 12 13  2  0
 13 14  1  0
 14 15  2  0
 15 16  1  0
 16 17  2  0
 12 17  1  0
  1 12  1  0
 18 19  2  0
 19 20  1  0
 20 21  2  0
 21 22  1  0
 22 23  2  0
 18 23  1  0
 24 25  1  0
 20 24  1  0
 11 18  1  0
M  END
>  <Classification>  (291) 
1

>  <pchembl>  (291) 
6.82

>  <InChI_steorem>  (291) 
InChI=1S/C20H16N4O/c1-25-16-10-5-9-15(13-16)22-20-17-11-6-12-21-19(17)23-18(24-20)14-7-3-2-4-8-14/h2-13H,1H3,(H,21,22,23,24)

>  <source>  (291) 
ChEMBL25

>  <source_id>  (291) 
25

>  <optional_reference>  (291) 
10.1021/acs.jmedchem.7b01012

>  <optional_origin>  (291) 
None

>  <target>  (291) 
BCRP

$$$$

     RDKit          2D

 25 28  0  0  0  0  0  0  0  0999 V2000
   29.8632   -3.8919    0.0000 C   0  0  0  0  0  0  0  0  0  0  0  0
   29.8621   -4.7115    0.0000 C   0  0  0  0  0  0  0  0  0  0  0  0
   30.5701   -5.1204    0.0000 C   0  0  0  0  0  0  0  0  0  0  0  0
   30.5683   -3.4831    0.0000 C   0  0  0  0  0  0  0  0  0  0  0  0
   31.2769   -3.8883    0.0000 C   0  0  0  0  0  0  0  0  0  0  0  0
   31.2777   -4.7074    0.0000 C   0  0  0  0  0  0  0  0  0  0  0  0
   31.9862   -5.1144    0.0000 N   0  0  0  0  0  0  0  0  0  0  0  0
   32.6945   -4.7036    0.0000 C   0  0  0  0  0  0  0  0  0  0  0  0
   32.6898   -3.8815    0.0000 N   0  0  0  0  0  0  0  0  0  0  0  0
   31.9807   -3.4781    0.0000 C   0  0  0  0  0  0  0  0  0  0  0  0
   31.9763   -2.6609    0.0000 N   0  0  0  0  0  0  0  0  0  0  0  0
   32.6819   -2.2486    0.0000 C   0  0  0  0  0  0  0  0  0  0  0  0
   33.3871   -2.6568    0.0000 C   0  0  0  0  0  0  0  0  0  0  0  0
   34.0922   -2.2451    0.0000 C   0  0  0  0  0  0  0  0  0  0  0  0
   34.0883   -1.4271    0.0000 C   0  0  0  0  0  0  0  0  0  0  0  0
   33.3735   -1.0224    0.0000 C   0  0  0  0  0  0  0  0  0  0  0  0
   32.6713   -1.4364    0.0000 C   0  0  0  0  0  0  0  0  0  0  0  0
   33.4002   -5.1054    0.0000 C   0  0  0  0  0  0  0  0  0  0  0  0
   33.4021   -5.9237    0.0000 C   0  0  0  0  0  0  0  0  0  0  0  0
   34.1105   -6.3294    0.0000 N   0  0  0  0  0  0  0  0  0  0  0  0
   34.8176   -5.9180    0.0000 C   0  0  0  0  0  0  0  0  0  0  0  0
   34.8118   -5.0966    0.0000 C   0  0  0  0  0  0  0  0  0  0  0  0
   34.1028   -4.6946    0.0000 C   0  0  0  0  0  0  0  0  0  0  0  0
   33.3662   -0.2053    0.0000 O   0  0  0  0  0  0  0  0  0  0  0  0
   34.0703    0.2095    0.0000 C   0  0  0  0  0  0  0  0  0  0  0  0
  1  2  2  0
  2  3  1  0
  3  6  2  0
  5  4  2  0
  4  1  1  0
  5  6  1  0
  6  7  1  0
  7  8  2  0
  8  9  1  0
  9 10  2  0
 10  5  1  0
 10 11  1  0
 11 12  1  0
 12 13  2  0
 13 14  1  0
 14 15  2  0
 15 16  1  0
 16 17  2  0
 17 12  1  0
 18 19  2  0
 19 20  1  0
 20 21  2  0
 21 22  1  0
 22 23  2  0
 23 18  1  0
  8 18  1  0
 16 24  1  0
 24 25  1  0
M  END
>  <Classification>  (292) 
1

>  <pchembl>  (292) 
5.99

>  <InChI_steorem>  (292) 
InChI=1S/C20H16N4O/c1-25-16-8-4-7-15(12-16)22-20-17-9-2-3-10-18(17)23-19(24-20)14-6-5-11-21-13-14/h2-13H,1H3,(H,22,23,24)

>  <source>  (292) 
ChEMBL25

>  <source_id>  (292) 
25

>  <optional_reference>  (292) 
10.1021/acs.jmedchem.7b00441

>  <optional_origin>  (292) 
None

>  <target>  (292) 
BCRP

$$$$

     RDKit          2D

 26 29  0  0  0  0  0  0  0  0999 V2000
    2.0292   -4.6844    0.0000 C   0  0  0  0  0  0  0  0  0  0  0  0
    2.0280   -5.5039    0.0000 C   0  0  0  0  0  0  0  0  0  0  0  0
    2.7361   -5.9129    0.0000 C   0  0  0  0  0  0  0  0  0  0  0  0
    2.7343   -4.2755    0.0000 C   0  0  0  0  0  0  0  0  0  0  0  0
    3.4429   -4.6808    0.0000 C   0  0  0  0  0  0  0  0  0  0  0  0
    3.4437   -5.4998    0.0000 C   0  0  0  0  0  0  0  0  0  0  0  0
    4.1522   -5.9068    0.0000 N   0  0  0  0  0  0  0  0  0  0  0  0
    4.8605   -5.4960    0.0000 C   0  0  0  0  0  0  0  0  0  0  0  0
    4.8557   -4.6739    0.0000 N   0  0  0  0  0  0  0  0  0  0  0  0
    4.1466   -4.2705    0.0000 C   0  0  0  0  0  0  0  0  0  0  0  0
    4.1423   -3.4534    0.0000 N   0  0  0  0  0  0  0  0  0  0  0  0
    4.8478   -3.0410    0.0000 C   0  0  0  0  0  0  0  0  0  0  0  0
    5.5531   -3.4492    0.0000 C   0  0  0  0  0  0  0  0  0  0  0  0
    6.2582   -3.0376    0.0000 C   0  0  0  0  0  0  0  0  0  0  0  0
    6.2543   -2.2195    0.0000 C   0  0  0  0  0  0  0  0  0  0  0  0
    5.5394   -1.8149    0.0000 C   0  0  0  0  0  0  0  0  0  0  0  0
    4.8373   -2.2289    0.0000 C   0  0  0  0  0  0  0  0  0  0  0  0
    5.5662   -5.8978    0.0000 C   0  0  0  0  0  0  0  0  0  0  0  0
    5.5680   -6.7161    0.0000 N   0  0  0  0  0  0  0  0  0  0  0  0
    6.2765   -7.1219    0.0000 C   0  0  0  0  0  0  0  0  0  0  0  0
    6.9836   -6.7105    0.0000 C   0  0  0  0  0  0  0  0  0  0  0  0
    6.9778   -5.8890    0.0000 C   0  0  0  0  0  0  0  0  0  0  0  0
    6.2688   -5.4870    0.0000 C   0  0  0  0  0  0  0  0  0  0  0  0
    5.5300   -0.9978    0.0000 N   0  0  0  0  0  0  0  0  0  0  0  0
    4.8187   -0.5955    0.0000 O   0  0  0  0  0  0  0  0  0  0  0  0
    6.2340   -0.5830    0.0000 O   0  0  0  0  0  0  0  0  0  0  0  0
  1  2  2  0
  2  3  1  0
  3  6  2  0
  5  4  2  0
  4  1  1  0
  5  6  1  0
  6  7  1  0
  7  8  2  0
  8  9  1  0
  9 10  2  0
 10  5  1  0
 10 11  1  0
 11 12  1  0
 12 13  2  0
 13 14  1  0
 14 15  2  0
 15 16  1  0
 16 17  2  0
 17 12  1  0
 18 19  2  0
 19 20  1  0
 20 21  2  0
 21 22  1  0
 22 23  2  0
 23 18  1  0
  8 18  1  0
 24 25  2  0
 24 26  1  0
 16 24  1  0
M  CHG  2  24   1  26  -1
M  END
>  <Classification>  (293) 
1

>  <pchembl>  (293) 
6.42

>  <InChI_steorem>  (293) 
InChI=1S/C19H13N5O2/c25-24(26)14-7-5-6-13(12-14)21-18-15-8-1-2-9-16(15)22-19(23-18)17-10-3-4-11-20-17/h1-12H,(H,21,22,23)

>  <source>  (293) 
ChEMBL25

>  <source_id>  (293) 
25

>  <optional_reference>  (293) 
10.1021/acs.jmedchem.7b00441

>  <optional_origin>  (293) 
None

>  <target>  (293) 
BCRP

$$$$

     RDKit          2D

 27 30  0  0  0  0  0  0  0  0999 V2000
   11.2329  -11.7089    0.0000 C   0  0  0  0  0  0  0  0  0  0  0  0
   11.2318  -12.5284    0.0000 C   0  0  0  0  0  0  0  0  0  0  0  0
   11.9398  -12.9374    0.0000 C   0  0  0  0  0  0  0  0  0  0  0  0
   11.9380  -11.3000    0.0000 C   0  0  0  0  0  0  0  0  0  0  0  0
   12.6466  -11.7053    0.0000 C   0  0  0  0  0  0  0  0  0  0  0  0
   12.6474  -12.5243    0.0000 C   0  0  0  0  0  0  0  0  0  0  0  0
   13.3559  -12.9314    0.0000 N   0  0  0  0  0  0  0  0  0  0  0  0
   14.0642  -12.5206    0.0000 C   0  0  0  0  0  0  0  0  0  0  0  0
   14.0595  -11.6984    0.0000 N   0  0  0  0  0  0  0  0  0  0  0  0
   13.3503  -11.2951    0.0000 C   0  0  0  0  0  0  0  0  0  0  0  0
   13.3460  -10.4779    0.0000 N   0  0  0  0  0  0  0  0  0  0  0  0
   14.0515  -10.0656    0.0000 C   0  0  0  0  0  0  0  0  0  0  0  0
   14.7568  -10.4738    0.0000 C   0  0  0  0  0  0  0  0  0  0  0  0
   15.4619  -10.0621    0.0000 C   0  0  0  0  0  0  0  0  0  0  0  0
   15.4580   -9.2441    0.0000 C   0  0  0  0  0  0  0  0  0  0  0  0
   14.7431   -8.8394    0.0000 C   0  0  0  0  0  0  0  0  0  0  0  0
   14.0410   -9.2534    0.0000 C   0  0  0  0  0  0  0  0  0  0  0  0
   14.7699  -12.9223    0.0000 C   0  0  0  0  0  0  0  0  0  0  0  0
   14.7718  -13.7406    0.0000 C   0  0  0  0  0  0  0  0  0  0  0  0
   15.4802  -14.1464    0.0000 C   0  0  0  0  0  0  0  0  0  0  0  0
   16.1873  -13.7350    0.0000 N   0  0  0  0  0  0  0  0  0  0  0  0
   16.1815  -12.9136    0.0000 C   0  0  0  0  0  0  0  0  0  0  0  0
   15.4725  -12.5115    0.0000 C   0  0  0  0  0  0  0  0  0  0  0  0
   16.1630   -8.8308    0.0000 C   0  0  0  0  0  0  0  0  0  0  0  0
   16.8734   -9.2347    0.0000 F   0  0  0  0  0  0  0  0  0  0  0  0
   16.1576   -8.0136    0.0000 F   0  0  0  0  0  0  0  0  0  0  0  0
   16.8680   -8.4154    0.0000 F   0  0  0  0  0  0  0  0  0  0  0  0
  1  2  2  0
  2  3  1  0
  3  6  2  0
  5  4  2  0
  4  1  1  0
  5  6  1  0
  6  7  1  0
  7  8  2  0
  8  9  1  0
  9 10  2  0
 10  5  1  0
 10 11  1  0
 11 12  1  0
 12 13  2  0
 13 14  1  0
 14 15  2  0
 15 16  1  0
 16 17  2  0
 17 12  1  0
 18 19  2  0
 19 20  1  0
 20 21  2  0
 21 22  1  0
 22 23  2  0
 23 18  1  0
  8 18  1  0
 15 24  1  0
 24 25  1  0
 24 26  1  0
 24 27  1  0
M  END
>  <Classification>  (294) 
1

>  <pchembl>  (294) 
6.31

>  <InChI_steorem>  (294) 
InChI=1S/C20H13F3N4/c21-20(22,23)14-5-7-15(8-6-14)25-19-16-3-1-2-4-17(16)26-18(27-19)13-9-11-24-12-10-13/h1-12H,(H,25,26,27)

>  <source>  (294) 
ChEMBL25

>  <source_id>  (294) 
25

>  <optional_reference>  (294) 
10.1021/acs.jmedchem.7b00441

>  <optional_origin>  (294) 
None

>  <target>  (294) 
BCRP

$$$$

     RDKit          2D

 24 27  0  0  0  0  0  0  0  0999 V2000
   30.3502   -4.3955    0.0000 C   0  0  0  0  0  0  0  0  0  0  0  0
   30.3491   -5.2150    0.0000 C   0  0  0  0  0  0  0  0  0  0  0  0
   31.0571   -5.6240    0.0000 C   0  0  0  0  0  0  0  0  0  0  0  0
   31.0553   -3.9866    0.0000 C   0  0  0  0  0  0  0  0  0  0  0  0
   31.7640   -4.3919    0.0000 C   0  0  0  0  0  0  0  0  0  0  0  0
   31.7647   -5.2109    0.0000 C   0  0  0  0  0  0  0  0  0  0  0  0
   32.4732   -5.6179    0.0000 N   0  0  0  0  0  0  0  0  0  0  0  0
   33.1815   -5.2071    0.0000 C   0  0  0  0  0  0  0  0  0  0  0  0
   33.1768   -4.3850    0.0000 N   0  0  0  0  0  0  0  0  0  0  0  0
   32.4677   -3.9816    0.0000 C   0  0  0  0  0  0  0  0  0  0  0  0
   32.4633   -3.1644    0.0000 N   0  0  0  0  0  0  0  0  0  0  0  0
   33.1689   -2.7521    0.0000 C   0  0  0  0  0  0  0  0  0  0  0  0
   33.8742   -3.1603    0.0000 C   0  0  0  0  0  0  0  0  0  0  0  0
   34.5792   -2.7487    0.0000 C   0  0  0  0  0  0  0  0  0  0  0  0
   34.5753   -1.9306    0.0000 C   0  0  0  0  0  0  0  0  0  0  0  0
   33.8605   -1.5260    0.0000 C   0  0  0  0  0  0  0  0  0  0  0  0
   33.1583   -1.9400    0.0000 C   0  0  0  0  0  0  0  0  0  0  0  0
   33.8872   -5.6089    0.0000 C   0  0  0  0  0  0  0  0  0  0  0  0
   33.8891   -6.4272    0.0000 C   0  0  0  0  0  0  0  0  0  0  0  0
   34.5975   -6.8329    0.0000 C   0  0  0  0  0  0  0  0  0  0  0  0
   35.3046   -6.4215    0.0000 N   0  0  0  0  0  0  0  0  0  0  0  0
   35.2988   -5.6001    0.0000 C   0  0  0  0  0  0  0  0  0  0  0  0
   34.5898   -5.1981    0.0000 C   0  0  0  0  0  0  0  0  0  0  0  0
   33.8533   -0.7088    0.0000 O   0  0  0  0  0  0  0  0  0  0  0  0
  1  2  2  0
  2  3  1  0
  3  6  2  0
  5  4  2  0
  4  1  1  0
  5  6  1  0
  6  7  1  0
  7  8  2  0
  8  9  1  0
  9 10  2  0
 10  5  1  0
 10 11  1  0
 11 12  1  0
 12 13  2  0
 13 14  1  0
 14 15  2  0
 15 16  1  0
 16 17  2  0
 17 12  1  0
 18 19  2  0
 19 20  1  0
 20 21  2  0
 21 22  1  0
 22 23  2  0
 23 18  1  0
  8 18  1  0
 16 24  1  0
M  END
>  <Classification>  (295) 
1

>  <pchembl>  (295) 
5.97

>  <InChI_steorem>  (295) 
InChI=1S/C19H14N4O/c24-15-5-3-4-14(12-15)21-19-16-6-1-2-7-17(16)22-18(23-19)13-8-10-20-11-9-13/h1-12,24H,(H,21,22,23)

>  <source>  (295) 
ChEMBL25

>  <source_id>  (295) 
25

>  <optional_reference>  (295) 
10.1021/acs.jmedchem.7b00441

>  <optional_origin>  (295) 
None

>  <target>  (295) 
BCRP

$$$$

     RDKit          2D

 26 29  0  0  0  0  0  0  0  0999 V2000
    8.9082   -7.6941    0.0000 C   0  0  0  0  0  0  0  0  0  0  0  0
    8.1991   -8.1027    0.0000 N   0  0  0  0  0  0  0  0  0  0  0  0
    7.4941   -7.6941    0.0000 C   0  0  0  0  0  0  0  0  0  0  0  0
    7.4941   -6.8769    0.0000 C   0  0  0  0  0  0  0  0  0  0  0  0
    8.1991   -6.4683    0.0000 C   0  0  0  0  0  0  0  0  0  0  0  0
    8.9082   -6.8769    0.0000 N   0  0  0  0  0  0  0  0  0  0  0  0
    6.7850   -6.4683    0.0000 C   0  0  0  0  0  0  0  0  0  0  0  0
    6.0759   -6.8769    0.0000 C   0  0  0  0  0  0  0  0  0  0  0  0
    6.0759   -7.6941    0.0000 C   0  0  0  0  0  0  0  0  0  0  0  0
    6.7850   -8.1027    0.0000 N   0  0  0  0  0  0  0  0  0  0  0  0
    8.1991   -5.6511    0.0000 N   0  0  0  0  0  0  0  0  0  0  0  0
    9.6131   -8.1027    0.0000 C   0  0  0  0  0  0  0  0  0  0  0  0
    9.6131   -8.9199    0.0000 C   0  0  0  0  0  0  0  0  0  0  0  0
   10.3222   -9.3285    0.0000 C   0  0  0  0  0  0  0  0  0  0  0  0
   11.0313   -8.9199    0.0000 C   0  0  0  0  0  0  0  0  0  0  0  0
   11.0313   -8.1027    0.0000 C   0  0  0  0  0  0  0  0  0  0  0  0
   10.3222   -7.6941    0.0000 C   0  0  0  0  0  0  0  0  0  0  0  0
   10.3222  -10.1456    0.0000 O   0  0  0  0  0  0  0  0  0  0  0  0
   11.0313  -10.5542    0.0000 C   0  0  0  0  0  0  0  0  0  0  0  0
    8.9082   -5.2425    0.0000 C   0  0  0  0  0  0  0  0  0  0  0  0
    9.6131   -5.6511    0.0000 C   0  0  0  0  0  0  0  0  0  0  0  0
   10.3222   -5.2425    0.0000 C   0  0  0  0  0  0  0  0  0  0  0  0
   10.3222   -4.4253    0.0000 C   0  0  0  0  0  0  0  0  0  0  0  0
    9.6131   -4.0167    0.0000 C   0  0  0  0  0  0  0  0  0  0  0  0
    8.9082   -4.4253    0.0000 C   0  0  0  0  0  0  0  0  0  0  0  0
   11.0313   -5.6511    0.0000 F   0  0  0  0  0  0  0  0  0  0  0  0
  1  2  2  0
  2  3  1  0
  3  4  2  0
  4  5  1  0
  5  6  2  0
  1  6  1  0
  7  8  2  0
  8  9  1  0
  9 10  2  0
  3 10  1  0
  4  7  1  0
  5 11  1  0
 12 13  2  0
 13 14  1  0
 14 15  2  0
 15 16  1  0
 16 17  2  0
 12 17  1  0
 18 19  1  0
 14 18  1  0
  1 12  1  0
 20 21  2  0
 21 22  1  0
 22 23  2  0
 23 24  1  0
 24 25  2  0
 20 25  1  0
 22 26  1  0
 11 20  1  0
M  END
>  <Classification>  (296) 
1

>  <pchembl>  (296) 
6.58

>  <InChI_steorem>  (296) 
InChI=1S/C20H15FN4O/c1-26-16-8-2-5-13(11-16)18-24-19-17(9-4-10-22-19)20(25-18)23-15-7-3-6-14(21)12-15/h2-12H,1H3,(H,22,23,24,25)

>  <source>  (296) 
ChEMBL25

>  <source_id>  (296) 
25

>  <optional_reference>  (296) 
10.1021/acs.jmedchem.7b01012

>  <optional_origin>  (296) 
None

>  <target>  (296) 
BCRP

$$$$

     RDKit          2D

 23 26  0  0  0  0  0  0  0  0999 V2000
    9.9080   -7.4600    0.0000 C   0  0  0  0  0  0  0  0  0  0  0  0
    9.2031   -7.8686    0.0000 N   0  0  0  0  0  0  0  0  0  0  0  0
    8.4940   -7.4600    0.0000 C   0  0  0  0  0  0  0  0  0  0  0  0
    8.4940   -6.6428    0.0000 C   0  0  0  0  0  0  0  0  0  0  0  0
    9.2031   -6.2342    0.0000 C   0  0  0  0  0  0  0  0  0  0  0  0
    9.9080   -6.6428    0.0000 N   0  0  0  0  0  0  0  0  0  0  0  0
    7.7849   -6.2342    0.0000 C   0  0  0  0  0  0  0  0  0  0  0  0
    7.0758   -6.6428    0.0000 C   0  0  0  0  0  0  0  0  0  0  0  0
    7.0758   -7.4600    0.0000 C   0  0  0  0  0  0  0  0  0  0  0  0
    7.7849   -7.8686    0.0000 N   0  0  0  0  0  0  0  0  0  0  0  0
    9.2031   -5.4129    0.0000 N   0  0  0  0  0  0  0  0  0  0  0  0
   10.6171   -7.8686    0.0000 C   0  0  0  0  0  0  0  0  0  0  0  0
   10.6171   -8.6858    0.0000 C   0  0  0  0  0  0  0  0  0  0  0  0
   11.3221   -9.0943    0.0000 C   0  0  0  0  0  0  0  0  0  0  0  0
   12.0312   -8.6858    0.0000 C   0  0  0  0  0  0  0  0  0  0  0  0
   12.0312   -7.8686    0.0000 C   0  0  0  0  0  0  0  0  0  0  0  0
   11.3221   -7.4600    0.0000 C   0  0  0  0  0  0  0  0  0  0  0  0
    9.9080   -5.0043    0.0000 C   0  0  0  0  0  0  0  0  0  0  0  0
   10.6171   -5.4129    0.0000 C   0  0  0  0  0  0  0  0  0  0  0  0
   11.3221   -5.0043    0.0000 C   0  0  0  0  0  0  0  0  0  0  0  0
   11.3221   -4.1871    0.0000 C   0  0  0  0  0  0  0  0  0  0  0  0
   10.6171   -3.7785    0.0000 C   0  0  0  0  0  0  0  0  0  0  0  0
    9.9080   -4.1871    0.0000 C   0  0  0  0  0  0  0  0  0  0  0  0
  1  2  2  0
  2  3  1  0
  3  4  2  0
  4  5  1  0
  5  6  2  0
  1  6  1  0
  7  8  2  0
  8  9  1  0
  9 10  2  0
  3 10  1  0
  4  7  1  0
  5 11  1  0
 12 13  2  0
 13 14  1  0
 14 15  2  0
 15 16  1  0
 16 17  2  0
 12 17  1  0
  1 12  1  0
 18 19  2  0
 19 20  1  0
 20 21  2  0
 21 22  1  0
 22 23  2  0
 18 23  1  0
 11 18  1  0
M  END
>  <Classification>  (297) 
1

>  <pchembl>  (297) 
6.83

>  <InChI_steorem>  (297) 
InChI=1S/C19H14N4/c1-3-8-14(9-4-1)17-22-18-16(12-7-13-20-18)19(23-17)21-15-10-5-2-6-11-15/h1-13H,(H,20,21,22,23)

>  <source>  (297) 
ChEMBL25

>  <source_id>  (297) 
25

>  <optional_reference>  (297) 
10.1021/acs.jmedchem.7b01012

>  <optional_origin>  (297) 
None

>  <target>  (297) 
BCRP

$$$$

     RDKit          2D

 26 29  0  0  0  0  0  0  0  0999 V2000
   12.6403  -21.0901    0.0000 C   0  0  0  0  0  0  0  0  0  0  0  0
   12.6391  -21.9096    0.0000 C   0  0  0  0  0  0  0  0  0  0  0  0
   13.3472  -22.3186    0.0000 C   0  0  0  0  0  0  0  0  0  0  0  0
   13.3454  -20.6812    0.0000 C   0  0  0  0  0  0  0  0  0  0  0  0
   14.0540  -21.0865    0.0000 C   0  0  0  0  0  0  0  0  0  0  0  0
   14.0548  -21.9055    0.0000 C   0  0  0  0  0  0  0  0  0  0  0  0
   14.7633  -22.3126    0.0000 N   0  0  0  0  0  0  0  0  0  0  0  0
   15.4716  -21.9018    0.0000 C   0  0  0  0  0  0  0  0  0  0  0  0
   15.4668  -21.0796    0.0000 N   0  0  0  0  0  0  0  0  0  0  0  0
   14.7577  -20.6763    0.0000 C   0  0  0  0  0  0  0  0  0  0  0  0
   14.7534  -19.8591    0.0000 N   0  0  0  0  0  0  0  0  0  0  0  0
   15.4589  -19.4467    0.0000 C   0  0  0  0  0  0  0  0  0  0  0  0
   16.1642  -19.8550    0.0000 C   0  0  0  0  0  0  0  0  0  0  0  0
   16.8693  -19.4433    0.0000 C   0  0  0  0  0  0  0  0  0  0  0  0
   16.8654  -18.6252    0.0000 C   0  0  0  0  0  0  0  0  0  0  0  0
   16.1505  -18.2206    0.0000 C   0  0  0  0  0  0  0  0  0  0  0  0
   15.4484  -18.6346    0.0000 C   0  0  0  0  0  0  0  0  0  0  0  0
   16.1773  -22.3035    0.0000 C   0  0  0  0  0  0  0  0  0  0  0  0
   16.1792  -23.1218    0.0000 C   0  0  0  0  0  0  0  0  0  0  0  0
   16.8876  -23.5276    0.0000 C   0  0  0  0  0  0  0  0  0  0  0  0
   17.5947  -23.1162    0.0000 N   0  0  0  0  0  0  0  0  0  0  0  0
   17.5889  -22.2948    0.0000 C   0  0  0  0  0  0  0  0  0  0  0  0
   16.8799  -21.8927    0.0000 C   0  0  0  0  0  0  0  0  0  0  0  0
   16.1433  -17.4034    0.0000 C   0  0  0  0  0  0  0  0  0  0  0  0
   16.8474  -16.9886    0.0000 O   0  0  0  0  0  0  0  0  0  0  0  0
   15.4320  -17.0011    0.0000 O   0  0  0  0  0  0  0  0  0  0  0  0
  1  2  2  0
  2  3  1  0
  3  6  2  0
  5  4  2  0
  4  1  1  0
  5  6  1  0
  6  7  1  0
  7  8  2  0
  8  9  1  0
  9 10  2  0
 10  5  1  0
 10 11  1  0
 11 12  1  0
 12 13  2  0
 13 14  1  0
 14 15  2  0
 15 16  1  0
 16 17  2  0
 17 12  1  0
 18 19  2  0
 19 20  1  0
 20 21  2  0
 21 22  1  0
 22 23  2  0
 23 18  1  0
  8 18  1  0
 16 24  1  0
 24 25  1  0
 24 26  2  0
M  END
>  <Classification>  (298) 
0

>  <pchembl>  (298) 
4.22

>  <InChI_steorem>  (298) 
InChI=1S/C20H14N4O2/c25-20(26)14-4-3-5-15(12-14)22-19-16-6-1-2-7-17(16)23-18(24-19)13-8-10-21-11-9-13/h1-12H,(H,25,26)(H,22,23,24)

>  <source>  (298) 
ChEMBL25

>  <source_id>  (298) 
25

>  <optional_reference>  (298) 
10.1021/acs.jmedchem.7b00441

>  <optional_origin>  (298) 
None

>  <target>  (298) 
BCRP

$$$$

     RDKit          2D

 32 35  0  0  0  0  0  0  0  0999 V2000
   13.3307   -9.9271    0.0000 N   0  0  0  0  0  0  0  0  0  0  0  0
   13.3134  -10.7441    0.0000 C   0  0  0  0  0  0  0  0  0  0  0  0
   14.0157  -11.1670    0.0000 O   0  0  0  0  0  0  0  0  0  0  0  0
   12.5978  -11.1423    0.0000 N   0  0  0  0  0  0  0  0  0  0  0  0
   12.5847  -11.9593    0.0000 C   0  0  0  0  0  0  0  0  0  0  0  0
   11.8692  -12.3534    0.0000 C   0  0  0  0  0  0  0  0  0  0  0  0
   11.8560  -13.1704    0.0000 C   0  0  0  0  0  0  0  0  0  0  0  0
   12.5583  -13.5933    0.0000 C   0  0  0  0  0  0  0  0  0  0  0  0
   13.2697  -13.1951    0.0000 C   0  0  0  0  0  0  0  0  0  0  0  0
   13.2870  -12.3781    0.0000 C   0  0  0  0  0  0  0  0  0  0  0  0
   11.1709  -11.9345    0.0000 N   0  0  0  0  0  0  0  0  0  0  0  0
   11.1841  -11.1175    0.0000 O   0  0  0  0  0  0  0  0  0  0  0  0
   10.4554  -12.3286    0.0000 O   0  0  0  0  0  0  0  0  0  0  0  0
   12.6283   -9.5083    0.0000 C   0  0  0  0  0  0  0  0  0  0  0  0
   12.6415   -8.6913    0.0000 C   0  0  0  0  0  0  0  0  0  0  0  0
   11.9433   -8.2683    0.0000 C   0  0  0  0  0  0  0  0  0  0  0  0
   11.2278   -8.6665    0.0000 C   0  0  0  0  0  0  0  0  0  0  0  0
   11.2105   -9.4835    0.0000 C   0  0  0  0  0  0  0  0  0  0  0  0
   11.9128   -9.9023    0.0000 C   0  0  0  0  0  0  0  0  0  0  0  0
   14.0954   -8.6387    0.0000 N   0  0  0  0  0  0  0  0  0  0  0  0
   14.6549   -8.0426    0.0000 N   0  0  0  0  0  0  0  0  0  0  0  0
   14.2567   -7.3271    0.0000 N   0  0  0  0  0  0  0  0  0  0  0  0
   13.4582   -7.4851    0.0000 N   0  0  0  0  0  0  0  0  0  0  0  0
   13.3570   -8.2931    0.0000 C   0  0  0  0  0  0  0  0  0  0  0  0
   15.4670   -8.1396    0.0000 C   0  0  0  0  0  0  0  0  0  0  0  0
   15.7859   -8.8913    0.0000 C   0  0  0  0  0  0  0  0  0  0  0  0
   16.5980   -8.9925    0.0000 C   0  0  0  0  0  0  0  0  0  0  0  0
   17.0871   -8.3420    0.0000 C   0  0  0  0  0  0  0  0  0  0  0  0
   16.7683   -7.5862    0.0000 C   0  0  0  0  0  0  0  0  0  0  0  0
   15.9561   -7.4891    0.0000 C   0  0  0  0  0  0  0  0  0  0  0  0
   16.9169   -9.7442    0.0000 O   0  0  0  0  0  0  0  0  0  0  0  0
   17.7249   -9.8454    0.0000 C   0  0  0  0  0  0  0  0  0  0  0  0
  1  2  1  0
  2  3  2  0
  2  4  1  0
  5  6  2  0
  6  7  1  0
  7  8  2  0
  8  9  1  0
  9 10  2  0
  5 10  1  0
 11 12  2  0
 11 13  1  0
  6 11  1  0
  4  5  1  0
 14 15  1  0
 15 16  2  0
 16 17  1  0
 17 18  2  0
 18 19  1  0
 14 19  2  0
 20 21  1  0
 21 22  1  0
 22 23  2  0
 23 24  1  0
 20 24  2  0
 25 26  2  0
 26 27  1  0
 27 28  2  0
 28 29  1  0
 29 30  2  0
 25 30  1  0
 31 32  1  0
 27 31  1  0
 21 25  1  0
 15 24  1  0
  1 14  1  0
M  CHG  2  11   1  13  -1
M  END
>  <Classification>  (299) 
1

>  <pchembl>  (299) 
6.05

>  <InChI_steorem>  (299) 
InChI=1S/C21H17N7O4/c1-32-15-8-6-7-14(13-15)27-25-20(24-26-27)16-9-2-3-10-17(16)22-21(29)23-18-11-4-5-12-19(18)28(30)31/h2-13H,1H3,(H2,22,23,29)

>  <source>  (299) 
ChEMBL25

>  <source_id>  (299) 
25

>  <optional_reference>  (299) 
10.1016/j.bmcl.2017.09.009

>  <optional_origin>  (299) 
None

>  <target>  (299) 
BCRP

$$$$

     RDKit          2D

 27 30  0  0  0  0  0  0  0  0999 V2000
   12.0577   -4.7952    0.0000 C   0  0  0  0  0  0  0  0  0  0  0  0
   11.3527   -5.2038    0.0000 C   0  0  0  0  0  0  0  0  0  0  0  0
   10.6437   -4.7952    0.0000 C   0  0  0  0  0  0  0  0  0  0  0  0
    9.9346   -5.2038    0.0000 C   0  0  0  0  0  0  0  0  0  0  0  0
    9.9346   -6.0209    0.0000 C   0  0  0  0  0  0  0  0  0  0  0  0
   10.6437   -6.4295    0.0000 C   0  0  0  0  0  0  0  0  0  0  0  0
   11.3527   -6.0209    0.0000 C   0  0  0  0  0  0  0  0  0  0  0  0
   12.7668   -4.3866    0.0000 N   0  0  0  0  0  0  0  0  0  0  0  0
    9.2255   -6.4295    0.0000 N   0  0  0  0  0  0  0  0  0  0  0  0
    9.9346   -8.4766    0.0000 C   0  0  0  0  0  0  0  0  0  0  0  0
    9.2255   -8.8852    0.0000 N   0  0  0  0  0  0  0  0  0  0  0  0
    8.5205   -8.4766    0.0000 C   0  0  0  0  0  0  0  0  0  0  0  0
    8.5205   -7.6595    0.0000 C   0  0  0  0  0  0  0  0  0  0  0  0
    9.2255   -7.2509    0.0000 C   0  0  0  0  0  0  0  0  0  0  0  0
    9.9346   -7.6595    0.0000 N   0  0  0  0  0  0  0  0  0  0  0  0
    7.8114   -7.2509    0.0000 C   0  0  0  0  0  0  0  0  0  0  0  0
    7.1065   -7.6595    0.0000 C   0  0  0  0  0  0  0  0  0  0  0  0
    7.1065   -8.4766    0.0000 C   0  0  0  0  0  0  0  0  0  0  0  0
    7.8114   -8.8852    0.0000 N   0  0  0  0  0  0  0  0  0  0  0  0
   10.6437   -8.8852    0.0000 C   0  0  0  0  0  0  0  0  0  0  0  0
   10.6437   -9.7024    0.0000 C   0  0  0  0  0  0  0  0  0  0  0  0
   11.3527  -10.1110    0.0000 C   0  0  0  0  0  0  0  0  0  0  0  0
   12.0577   -9.7024    0.0000 C   0  0  0  0  0  0  0  0  0  0  0  0
   12.0577   -8.8852    0.0000 C   0  0  0  0  0  0  0  0  0  0  0  0
   11.3527   -8.4766    0.0000 C   0  0  0  0  0  0  0  0  0  0  0  0
   11.3527  -10.9282    0.0000 O   0  0  0  0  0  0  0  0  0  0  0  0
   12.0577  -11.3368    0.0000 C   0  0  0  0  0  0  0  0  0  0  0  0
  1  2  1  0
  2  3  2  0
  3  4  1  0
  4  5  2  0
  5  6  1  0
  6  7  2  0
  2  7  1  0
  1  8  3  0
 10 11  2  0
 11 12  1  0
 12 13  2  0
 13 14  1  0
 14 15  2  0
 10 15  1  0
 16 17  2  0
 17 18  1  0
 18 19  2  0
 12 19  1  0
 13 16  1  0
 20 21  2  0
 21 22  1  0
 22 23  2  0
 23 24  1  0
 24 25  2  0
 20 25  1  0
 26 27  1  0
 22 26  1  0
 10 20  1  0
  9 14  1  0
  5  9  1  0
M  END
>  <Classification>  (300) 
1

>  <pchembl>  (300) 
6.06

>  <InChI_steorem>  (300) 
InChI=1S/C21H15N5O/c1-27-17-5-2-4-15(12-17)19-25-20-18(6-3-11-23-20)21(26-19)24-16-9-7-14(13-22)8-10-16/h2-12H,1H3,(H,23,24,25,26)

>  <source>  (300) 
ChEMBL25

>  <source_id>  (300) 
25

>  <optional_reference>  (300) 
10.1021/acs.jmedchem.7b01012

>  <optional_origin>  (300) 
None

>  <target>  (300) 
BCRP

$$$$

     RDKit          2D

 29 32  0  0  0  0  0  0  0  0999 V2000
    9.4606   -7.7833    0.0000 C   0  0  0  0  0  0  0  0  0  0  0  0
    8.7516   -8.1919    0.0000 N   0  0  0  0  0  0  0  0  0  0  0  0
    8.0466   -7.7833    0.0000 C   0  0  0  0  0  0  0  0  0  0  0  0
    8.0466   -6.9661    0.0000 C   0  0  0  0  0  0  0  0  0  0  0  0
    8.7516   -6.5575    0.0000 C   0  0  0  0  0  0  0  0  0  0  0  0
    9.4606   -6.9661    0.0000 N   0  0  0  0  0  0  0  0  0  0  0  0
    7.3375   -6.5575    0.0000 C   0  0  0  0  0  0  0  0  0  0  0  0
    6.6284   -6.9661    0.0000 C   0  0  0  0  0  0  0  0  0  0  0  0
    6.6284   -7.7833    0.0000 C   0  0  0  0  0  0  0  0  0  0  0  0
    7.3375   -8.1919    0.0000 N   0  0  0  0  0  0  0  0  0  0  0  0
    8.7516   -5.7403    0.0000 N   0  0  0  0  0  0  0  0  0  0  0  0
   10.1697   -8.1919    0.0000 C   0  0  0  0  0  0  0  0  0  0  0  0
   10.1697   -9.0091    0.0000 C   0  0  0  0  0  0  0  0  0  0  0  0
   10.8788   -9.4177    0.0000 C   0  0  0  0  0  0  0  0  0  0  0  0
   11.5838   -9.0091    0.0000 C   0  0  0  0  0  0  0  0  0  0  0  0
   11.5838   -8.1919    0.0000 C   0  0  0  0  0  0  0  0  0  0  0  0
   10.8788   -7.7833    0.0000 C   0  0  0  0  0  0  0  0  0  0  0  0
   10.8788  -10.2348    0.0000 O   0  0  0  0  0  0  0  0  0  0  0  0
   11.5838  -10.6434    0.0000 C   0  0  0  0  0  0  0  0  0  0  0  0
    9.4606   -5.3317    0.0000 C   0  0  0  0  0  0  0  0  0  0  0  0
   10.1697   -5.7403    0.0000 C   0  0  0  0  0  0  0  0  0  0  0  0
   10.8788   -5.3317    0.0000 C   0  0  0  0  0  0  0  0  0  0  0  0
   10.8788   -4.5145    0.0000 C   0  0  0  0  0  0  0  0  0  0  0  0
   10.1697   -4.1059    0.0000 C   0  0  0  0  0  0  0  0  0  0  0  0
    9.4606   -4.5145    0.0000 C   0  0  0  0  0  0  0  0  0  0  0  0
   11.5838   -4.1059    0.0000 O   0  0  0  0  0  0  0  0  0  0  0  0
   11.5838   -3.2887    0.0000 C   0  0  0  0  0  0  0  0  0  0  0  0
   11.5838   -5.7403    0.0000 O   0  0  0  0  0  0  0  0  0  0  0  0
   12.2929   -5.3317    0.0000 C   0  0  0  0  0  0  0  0  0  0  0  0
  1  2  2  0
  2  3  1  0
  3  4  2  0
  4  5  1  0
  5  6  2  0
  1  6  1  0
  7  8  2  0
  8  9  1  0
  9 10  2  0
  3 10  1  0
  4  7  1  0
  5 11  1  0
 12 13  2  0
 13 14  1  0
 14 15  2  0
 15 16  1  0
 16 17  2  0
 12 17  1  0
 18 19  1  0
 14 18  1  0
  1 12  1  0
 20 21  2  0
 21 22  1  0
 22 23  2  0
 23 24  1  0
 24 25  2  0
 20 25  1  0
 26 27  1  0
 23 26  1  0
 28 29  1  0
 22 28  1  0
 11 20  1  0
M  END
>  <Classification>  (301) 
1

>  <pchembl>  (301) 
6.24

>  <InChI_steorem>  (301) 
InChI=1S/C22H20N4O3/c1-27-16-7-4-6-14(12-16)20-25-21-17(8-5-11-23-21)22(26-20)24-15-9-10-18(28-2)19(13-15)29-3/h4-13H,1-3H3,(H,23,24,25,26)

>  <source>  (301) 
ChEMBL25

>  <source_id>  (301) 
25

>  <optional_reference>  (301) 
10.1021/acs.jmedchem.7b01012

>  <optional_origin>  (301) 
None

>  <target>  (301) 
BCRP

$$$$

     RDKit          2D

 26 29  0  0  0  0  0  0  0  0999 V2000
   18.5064  -11.7177    0.0000 C   0  0  0  0  0  0  0  0  0  0  0  0
   17.7973  -12.1263    0.0000 N   0  0  0  0  0  0  0  0  0  0  0  0
   17.0923  -11.7177    0.0000 C   0  0  0  0  0  0  0  0  0  0  0  0
   17.0923  -10.9005    0.0000 C   0  0  0  0  0  0  0  0  0  0  0  0
   17.7973  -10.4919    0.0000 C   0  0  0  0  0  0  0  0  0  0  0  0
   18.5064  -10.9005    0.0000 N   0  0  0  0  0  0  0  0  0  0  0  0
   16.3832  -10.4919    0.0000 C   0  0  0  0  0  0  0  0  0  0  0  0
   15.6741  -10.9005    0.0000 C   0  0  0  0  0  0  0  0  0  0  0  0
   15.6741  -11.7177    0.0000 C   0  0  0  0  0  0  0  0  0  0  0  0
   16.3832  -12.1263    0.0000 N   0  0  0  0  0  0  0  0  0  0  0  0
   17.7973   -9.6747    0.0000 N   0  0  0  0  0  0  0  0  0  0  0  0
   19.2155  -12.1263    0.0000 C   0  0  0  0  0  0  0  0  0  0  0  0
   19.2155  -12.9435    0.0000 C   0  0  0  0  0  0  0  0  0  0  0  0
   19.9204  -13.3521    0.0000 C   0  0  0  0  0  0  0  0  0  0  0  0
   20.6295  -12.9435    0.0000 C   0  0  0  0  0  0  0  0  0  0  0  0
   20.6295  -12.1263    0.0000 C   0  0  0  0  0  0  0  0  0  0  0  0
   19.9204  -11.7177    0.0000 C   0  0  0  0  0  0  0  0  0  0  0  0
   18.5064   -9.2620    0.0000 C   0  0  0  0  0  0  0  0  0  0  0  0
   19.2155   -9.6747    0.0000 C   0  0  0  0  0  0  0  0  0  0  0  0
   19.9204   -9.2620    0.0000 C   0  0  0  0  0  0  0  0  0  0  0  0
   19.9204   -8.4448    0.0000 C   0  0  0  0  0  0  0  0  0  0  0  0
   19.2155   -8.0362    0.0000 C   0  0  0  0  0  0  0  0  0  0  0  0
   18.5064   -8.4448    0.0000 C   0  0  0  0  0  0  0  0  0  0  0  0
   20.6295   -8.0362    0.0000 N   0  0  0  0  0  0  0  0  0  0  0  0
   20.6295   -7.2190    0.0000 O   0  0  0  0  0  0  0  0  0  0  0  0
   21.3386   -8.4448    0.0000 O   0  0  0  0  0  0  0  0  0  0  0  0
  1  2  2  0
  2  3  1  0
  3  4  2  0
  4  5  1  0
  5  6  2  0
  1  6  1  0
  7  8  2  0
  8  9  1  0
  9 10  2  0
  3 10  1  0
  4  7  1  0
  5 11  1  0
 12 13  2  0
 13 14  1  0
 14 15  2  0
 15 16  1  0
 16 17  2  0
 12 17  1  0
  1 12  1  0
 18 19  2  0
 19 20  1  0
 20 21  2  0
 21 22  1  0
 22 23  2  0
 18 23  1  0
 24 25  2  0
 24 26  1  0
 21 24  1  0
 11 18  1  0
M  CHG  2  24   1  26  -1
M  END
>  <Classification>  (302) 
0

>  <pchembl>  (302) 
4.71

>  <InChI_steorem>  (302) 
InChI=1S/C19H13N5O2/c25-24(26)15-10-8-14(9-11-15)21-19-16-7-4-12-20-18(16)22-17(23-19)13-5-2-1-3-6-13/h1-12H,(H,20,21,22,23)

>  <source>  (302) 
ChEMBL25

>  <source_id>  (302) 
25

>  <optional_reference>  (302) 
10.1021/acs.jmedchem.7b01012

>  <optional_origin>  (302) 
None

>  <target>  (302) 
BCRP

$$$$

     RDKit          2D

 30 32  0  0  0  0  0  0  0  0999 V2000
   28.3244  -11.5429    0.0000 C   0  0  0  0  0  0  0  0  0  0  0  0
   27.6177  -11.9557    0.0000 C   0  0  0  0  0  0  0  0  0  0  0  0
   27.6225  -12.7728    0.0000 C   0  0  0  0  0  0  0  0  0  0  0  0
   26.9158  -13.1856    0.0000 C   0  0  0  0  0  0  0  0  0  0  0  0
   26.2043  -12.7771    0.0000 C   0  0  0  0  0  0  0  0  0  0  0  0
   26.2036  -11.9599    0.0000 C   0  0  0  0  0  0  0  0  0  0  0  0
   26.9062  -11.5512    0.0000 C   0  0  0  0  0  0  0  0  0  0  0  0
   29.0317  -11.9514    0.0000 O   0  0  0  0  0  0  0  0  0  0  0  0
   28.3195  -10.7257    0.0000 N   0  0  0  0  0  0  0  0  0  0  0  0
   29.0262  -10.3171    0.0000 C   0  0  0  0  0  0  0  0  0  0  0  0
   29.0255   -9.4999    0.0000 C   0  0  0  0  0  0  0  0  0  0  0  0
   29.7322   -9.0871    0.0000 C   0  0  0  0  0  0  0  0  0  0  0  0
   30.4396   -9.4916    0.0000 C   0  0  0  0  0  0  0  0  0  0  0  0
   30.4402  -10.3087    0.0000 C   0  0  0  0  0  0  0  0  0  0  0  0
   29.7336  -10.7215    0.0000 C   0  0  0  0  0  0  0  0  0  0  0  0
   31.1462   -9.0829    0.0000 C   0  0  0  0  0  0  0  0  0  0  0  0
   31.1414   -8.2657    0.0000 C   0  0  0  0  0  0  0  0  0  0  0  0
   31.8481   -7.8530    0.0000 C   0  0  0  0  0  0  0  0  0  0  0  0
   28.3347  -13.9944    0.0000 C   0  0  0  0  0  0  0  0  0  0  0  0
   29.0420  -14.4030    0.0000 C   0  0  0  0  0  0  0  0  0  0  0  0
   29.7487  -13.9902    0.0000 C   0  0  0  0  0  0  0  0  0  0  0  0
   30.4561  -14.3988    0.0000 C   0  0  0  0  0  0  0  0  0  0  0  0
   30.4609  -15.2160    0.0000 C   0  0  0  0  0  0  0  0  0  0  0  0
   29.7542  -15.6246    0.0000 C   0  0  0  0  0  0  0  0  0  0  0  0
   29.0469  -15.2202    0.0000 C   0  0  0  0  0  0  0  0  0  0  0  0
   27.6280  -14.4072    0.0000 O   0  0  0  0  0  0  0  0  0  0  0  0
   28.3299  -13.1773    0.0000 N   0  0  0  0  0  0  0  0  0  0  0  0
   31.1628  -13.9860    0.0000 N   0  0  0  0  0  0  0  0  0  0  0  0
   31.1621  -13.1688    0.0000 O   0  0  0  0  0  0  0  0  0  0  0  0
   31.8742  -14.3904    0.0000 O   0  0  0  0  0  0  0  0  0  0  0  0
  1  2  1  0
  2  3  1  0
  3  4  2  0
  4  5  1  0
  5  6  2  0
  6  7  1  0
  2  7  2  0
  1  8  2  0
  1  9  1  0
 10 11  2  0
 11 12  1  0
 12 13  2  0
 13 14  1  0
 14 15  2  0
 10 15  1  0
 16 17  1  0
 17 18  1  0
 13 16  1  0
  9 10  1  0
 19 20  1  0
 20 21  2  0
 21 22  1  0
 22 23  2  0
 23 24  1  0
 24 25  2  0
 20 25  1  0
 19 26  2  0
 19 27  1  0
 28 29  2  0
 28 30  1  0
 22 28  1  0
  3 27  1  0
M  CHG  2  28   1  30  -1
M  END
>  <Classification>  (303) 
1

>  <pchembl>  (303) 
6.29

>  <InChI_steorem>  (303) 
InChI=1S/C23H21N3O4/c1-2-6-16-11-13-18(14-12-16)24-23(28)20-9-3-4-10-21(20)25-22(27)17-7-5-8-19(15-17)26(29)30/h3-5,7-15H,2,6H2,1H3,(H,24,28)(H,25,27)

>  <source>  (303) 
ChEMBL25

>  <source_id>  (303) 
25

>  <optional_reference>  (303) 
10.1016/j.bmcl.2017.09.009

>  <optional_origin>  (303) 
None

>  <target>  (303) 
BCRP

$$$$

     RDKit          2D

 27 30  0  0  0  0  0  0  0  0999 V2000
   23.1249   -9.0056    0.0000 O   0  0  0  0  0  0  0  0  0  0  0  0
   23.9421   -9.0056    0.0000 S   0  0  0  0  0  0  0  0  0  0  0  0
   23.5335   -8.2979    0.0000 O   0  0  0  0  0  0  0  0  0  0  0  0
   20.4407  -12.6953    0.0000 C   0  0  0  0  0  0  0  0  0  0  0  0
   20.4396  -13.5149    0.0000 C   0  0  0  0  0  0  0  0  0  0  0  0
   21.1476  -13.9238    0.0000 C   0  0  0  0  0  0  0  0  0  0  0  0
   21.1459  -12.2865    0.0000 C   0  0  0  0  0  0  0  0  0  0  0  0
   21.8545  -12.6917    0.0000 C   0  0  0  0  0  0  0  0  0  0  0  0
   21.8552  -13.5107    0.0000 C   0  0  0  0  0  0  0  0  0  0  0  0
   22.5638  -13.9178    0.0000 N   0  0  0  0  0  0  0  0  0  0  0  0
   23.2720  -13.5070    0.0000 C   0  0  0  0  0  0  0  0  0  0  0  0
   23.2673  -12.6848    0.0000 N   0  0  0  0  0  0  0  0  0  0  0  0
   22.5582  -12.2815    0.0000 C   0  0  0  0  0  0  0  0  0  0  0  0
   22.5539  -11.4643    0.0000 N   0  0  0  0  0  0  0  0  0  0  0  0
   23.2594  -11.0520    0.0000 C   0  0  0  0  0  0  0  0  0  0  0  0
   23.9647  -11.4602    0.0000 C   0  0  0  0  0  0  0  0  0  0  0  0
   24.6697  -11.0485    0.0000 C   0  0  0  0  0  0  0  0  0  0  0  0
   24.6658  -10.2305    0.0000 C   0  0  0  0  0  0  0  0  0  0  0  0
   23.9510   -9.8258    0.0000 C   0  0  0  0  0  0  0  0  0  0  0  0
   23.2489  -10.2398    0.0000 C   0  0  0  0  0  0  0  0  0  0  0  0
   23.9778  -13.9087    0.0000 C   0  0  0  0  0  0  0  0  0  0  0  0
   23.9796  -14.7270    0.0000 C   0  0  0  0  0  0  0  0  0  0  0  0
   24.6881  -15.1328    0.0000 C   0  0  0  0  0  0  0  0  0  0  0  0
   25.3952  -14.7214    0.0000 N   0  0  0  0  0  0  0  0  0  0  0  0
   25.3893  -13.9000    0.0000 C   0  0  0  0  0  0  0  0  0  0  0  0
   24.6803  -13.4979    0.0000 C   0  0  0  0  0  0  0  0  0  0  0  0
   24.6478   -8.5938    0.0000 F   0  0  0  0  0  0  0  0  0  0  0  0
  2  1  2  0
  3  2  2  0
  4  5  2  0
  5  6  1  0
  6  9  2  0
  8  7  2  0
  7  4  1  0
  8  9  1  0
  9 10  1  0
 10 11  2  0
 11 12  1  0
 12 13  2  0
 13  8  1  0
 13 14  1  0
 14 15  1  0
 15 16  2  0
 16 17  1  0
 17 18  2  0
 18 19  1  0
 19 20  2  0
 20 15  1  0
 21 22  2  0
 22 23  1  0
 23 24  2  0
 24 25  1  0
 25 26  2  0
 26 21  1  0
 11 21  1  0
 19  2  1  0
  2 27  1  0
M  END
>  <Classification>  (304) 
1

>  <pchembl>  (304) 
5.86

>  <InChI_steorem>  (304) 
InChI=1S/C19H13FN4O2S/c20-27(25,26)15-5-3-4-14(12-15)22-19-16-6-1-2-7-17(16)23-18(24-19)13-8-10-21-11-9-13/h1-12H,(H,22,23,24)

>  <source>  (304) 
ChEMBL25

>  <source_id>  (304) 
25

>  <optional_reference>  (304) 
10.1021/acs.jmedchem.7b00441

>  <optional_origin>  (304) 
None

>  <target>  (304) 
BCRP

$$$$

     RDKit          2D

 26 29  0  0  0  0  0  0  0  0999 V2000
   10.8449   -4.2056    0.0000 C   0  0  0  0  0  0  0  0  0  0  0  0
   10.8438   -5.0251    0.0000 C   0  0  0  0  0  0  0  0  0  0  0  0
   11.5518   -5.4341    0.0000 C   0  0  0  0  0  0  0  0  0  0  0  0
   11.5501   -3.7967    0.0000 C   0  0  0  0  0  0  0  0  0  0  0  0
   12.2587   -4.2020    0.0000 C   0  0  0  0  0  0  0  0  0  0  0  0
   12.2594   -5.0210    0.0000 C   0  0  0  0  0  0  0  0  0  0  0  0
   12.9680   -5.4281    0.0000 N   0  0  0  0  0  0  0  0  0  0  0  0
   13.6762   -5.0173    0.0000 C   0  0  0  0  0  0  0  0  0  0  0  0
   13.6715   -4.1951    0.0000 N   0  0  0  0  0  0  0  0  0  0  0  0
   12.9624   -3.7918    0.0000 C   0  0  0  0  0  0  0  0  0  0  0  0
   12.9581   -2.9746    0.0000 N   0  0  0  0  0  0  0  0  0  0  0  0
   13.6636   -2.5623    0.0000 C   0  0  0  0  0  0  0  0  0  0  0  0
   14.3689   -2.9705    0.0000 C   0  0  0  0  0  0  0  0  0  0  0  0
   15.0739   -2.5588    0.0000 C   0  0  0  0  0  0  0  0  0  0  0  0
   15.0700   -1.7408    0.0000 C   0  0  0  0  0  0  0  0  0  0  0  0
   14.3552   -1.3361    0.0000 C   0  0  0  0  0  0  0  0  0  0  0  0
   13.6531   -1.7501    0.0000 C   0  0  0  0  0  0  0  0  0  0  0  0
   14.3820   -5.4190    0.0000 C   0  0  0  0  0  0  0  0  0  0  0  0
   14.3838   -6.2373    0.0000 C   0  0  0  0  0  0  0  0  0  0  0  0
   15.0923   -6.6431    0.0000 N   0  0  0  0  0  0  0  0  0  0  0  0
   15.7994   -6.2317    0.0000 C   0  0  0  0  0  0  0  0  0  0  0  0
   15.7935   -5.4103    0.0000 C   0  0  0  0  0  0  0  0  0  0  0  0
   15.0845   -5.0082    0.0000 C   0  0  0  0  0  0  0  0  0  0  0  0
   15.7734   -1.3267    0.0000 N   0  0  0  0  0  0  0  0  0  0  0  0
   15.7679   -0.5095    0.0000 O   0  0  0  0  0  0  0  0  0  0  0  0
   16.4838   -1.7306    0.0000 O   0  0  0  0  0  0  0  0  0  0  0  0
  1  2  2  0
  2  3  1  0
  3  6  2  0
  5  4  2  0
  4  1  1  0
  5  6  1  0
  6  7  1  0
  7  8  2  0
  8  9  1  0
  9 10  2  0
 10  5  1  0
 10 11  1  0
 11 12  1  0
 12 13  2  0
 13 14  1  0
 14 15  2  0
 15 16  1  0
 16 17  2  0
 17 12  1  0
 18 19  2  0
 19 20  1  0
 20 21  2  0
 21 22  1  0
 22 23  2  0
 23 18  1  0
  8 18  1  0
 24 25  2  0
 24 26  1  0
 15 24  1  0
M  CHG  2  24   1  26  -1
M  END
>  <Classification>  (305) 
1

>  <pchembl>  (305) 
7.19

>  <InChI_steorem>  (305) 
InChI=1S/C19H13N5O2/c25-24(26)15-9-7-14(8-10-15)21-19-16-5-1-2-6-17(16)22-18(23-19)13-4-3-11-20-12-13/h1-12H,(H,21,22,23)

>  <source>  (305) 
ChEMBL25

>  <source_id>  (305) 
25

>  <optional_reference>  (305) 
10.1021/acs.jmedchem.7b00441

>  <optional_origin>  (305) 
None

>  <target>  (305) 
BCRP

$$$$

     RDKit          2D

 27 30  0  0  0  0  0  0  0  0999 V2000
   12.4541   -6.3450    0.0000 C   0  0  0  0  0  0  0  0  0  0  0  0
   11.7492   -5.9365    0.0000 C   0  0  0  0  0  0  0  0  0  0  0  0
   11.0401   -6.3450    0.0000 C   0  0  0  0  0  0  0  0  0  0  0  0
   11.0401   -7.1664    0.0000 C   0  0  0  0  0  0  0  0  0  0  0  0
   11.7492   -7.5750    0.0000 C   0  0  0  0  0  0  0  0  0  0  0  0
   12.4541   -7.1664    0.0000 C   0  0  0  0  0  0  0  0  0  0  0  0
   13.1632   -5.9365    0.0000 O   0  0  0  0  0  0  0  0  0  0  0  0
   10.3310   -7.5750    0.0000 N   0  0  0  0  0  0  0  0  0  0  0  0
   11.0401   -9.6179    0.0000 C   0  0  0  0  0  0  0  0  0  0  0  0
   10.3310  -10.0265    0.0000 N   0  0  0  0  0  0  0  0  0  0  0  0
    9.6219   -9.6179    0.0000 C   0  0  0  0  0  0  0  0  0  0  0  0
    9.6219   -8.8008    0.0000 C   0  0  0  0  0  0  0  0  0  0  0  0
   10.3310   -8.3922    0.0000 C   0  0  0  0  0  0  0  0  0  0  0  0
   11.0401   -8.8008    0.0000 N   0  0  0  0  0  0  0  0  0  0  0  0
    8.9169   -8.3922    0.0000 C   0  0  0  0  0  0  0  0  0  0  0  0
    8.2078   -8.8008    0.0000 C   0  0  0  0  0  0  0  0  0  0  0  0
    8.2078   -9.6179    0.0000 C   0  0  0  0  0  0  0  0  0  0  0  0
    8.9169  -10.0265    0.0000 N   0  0  0  0  0  0  0  0  0  0  0  0
   11.7492  -10.0265    0.0000 C   0  0  0  0  0  0  0  0  0  0  0  0
   11.7492  -10.8437    0.0000 C   0  0  0  0  0  0  0  0  0  0  0  0
   12.4541  -11.2523    0.0000 C   0  0  0  0  0  0  0  0  0  0  0  0
   13.1632  -10.8437    0.0000 C   0  0  0  0  0  0  0  0  0  0  0  0
   13.1632  -10.0265    0.0000 C   0  0  0  0  0  0  0  0  0  0  0  0
   12.4541   -9.6179    0.0000 C   0  0  0  0  0  0  0  0  0  0  0  0
   11.7492   -5.1193    0.0000 N   0  0  0  0  0  0  0  0  0  0  0  0
   12.4541   -4.7107    0.0000 O   0  0  0  0  0  0  0  0  0  0  0  0
   11.0401   -4.7107    0.0000 O   0  0  0  0  0  0  0  0  0  0  0  0
  1  2  2  0
  2  3  1  0
  3  4  2  0
  4  5  1  0
  5  6  2  0
  1  6  1  0
  1  7  1  0
  9 10  2  0
 10 11  1  0
 11 12  2  0
 12 13  1  0
 13 14  2  0
  9 14  1  0
 15 16  2  0
 16 17  1  0
 17 18  2  0
 11 18  1  0
 12 15  1  0
 19 20  2  0
 20 21  1  0
 21 22  2  0
 22 23  1  0
 23 24  2  0
 19 24  1  0
  9 19  1  0
  8 13  1  0
  4  8  1  0
 25 26  2  0
 25 27  1  0
  2 25  1  0
M  CHG  2  25   1  27  -1
M  END
>  <Classification>  (306) 
1

>  <pchembl>  (306) 
6.28

>  <InChI_steorem>  (306) 
InChI=1S/C19H13N5O3/c25-16-9-8-13(11-15(16)24(26)27)21-19-14-7-4-10-20-18(14)22-17(23-19)12-5-2-1-3-6-12/h1-11,25H,(H,20,21,22,23)

>  <source>  (306) 
ChEMBL25

>  <source_id>  (306) 
25

>  <optional_reference>  (306) 
10.1021/acs.jmedchem.7b01012

>  <optional_origin>  (306) 
None

>  <target>  (306) 
BCRP

$$$$

     RDKit          2D

 28 31  0  0  0  0  0  0  0  0999 V2000
   16.2983   -8.7837    0.0000 C   0  0  0  0  0  0  0  0  0  0  0  0
   15.5892   -9.1923    0.0000 N   0  0  0  0  0  0  0  0  0  0  0  0
   14.8842   -8.7837    0.0000 C   0  0  0  0  0  0  0  0  0  0  0  0
   14.8842   -7.9665    0.0000 C   0  0  0  0  0  0  0  0  0  0  0  0
   15.5892   -7.5579    0.0000 C   0  0  0  0  0  0  0  0  0  0  0  0
   16.2983   -7.9665    0.0000 N   0  0  0  0  0  0  0  0  0  0  0  0
   14.1752   -7.5579    0.0000 C   0  0  0  0  0  0  0  0  0  0  0  0
   13.4661   -7.9665    0.0000 C   0  0  0  0  0  0  0  0  0  0  0  0
   13.4661   -8.7837    0.0000 C   0  0  0  0  0  0  0  0  0  0  0  0
   14.1752   -9.1923    0.0000 N   0  0  0  0  0  0  0  0  0  0  0  0
   15.5892   -6.7407    0.0000 N   0  0  0  0  0  0  0  0  0  0  0  0
   16.2983   -6.3321    0.0000 C   0  0  0  0  0  0  0  0  0  0  0  0
   17.0074   -6.7407    0.0000 C   0  0  0  0  0  0  0  0  0  0  0  0
   17.7123   -6.3321    0.0000 C   0  0  0  0  0  0  0  0  0  0  0  0
   17.7123   -5.5149    0.0000 C   0  0  0  0  0  0  0  0  0  0  0  0
   17.0074   -5.1063    0.0000 C   0  0  0  0  0  0  0  0  0  0  0  0
   16.2983   -5.5149    0.0000 C   0  0  0  0  0  0  0  0  0  0  0  0
   18.4214   -6.7407    0.0000 N   0  0  0  0  0  0  0  0  0  0  0  0
   18.4214   -7.5579    0.0000 O   0  0  0  0  0  0  0  0  0  0  0  0
   19.1305   -6.3321    0.0000 O   0  0  0  0  0  0  0  0  0  0  0  0
   17.0074   -9.1923    0.0000 C   0  0  0  0  0  0  0  0  0  0  0  0
   17.0074  -10.0094    0.0000 C   0  0  0  0  0  0  0  0  0  0  0  0
   17.7123  -10.4180    0.0000 C   0  0  0  0  0  0  0  0  0  0  0  0
   18.4214  -10.0094    0.0000 C   0  0  0  0  0  0  0  0  0  0  0  0
   18.4214   -9.1923    0.0000 C   0  0  0  0  0  0  0  0  0  0  0  0
   17.7123   -8.7837    0.0000 C   0  0  0  0  0  0  0  0  0  0  0  0
   17.7123  -11.2352    0.0000 O   0  0  0  0  0  0  0  0  0  0  0  0
   18.4214  -11.6438    0.0000 C   0  0  0  0  0  0  0  0  0  0  0  0
  1  2  2  0
  2  3  1  0
  3  4  2  0
  4  5  1  0
  5  6  2  0
  1  6  1  0
  7  8  2  0
  8  9  1  0
  9 10  2  0
  3 10  1  0
  4  7  1  0
  5 11  1  0
 12 13  2  0
 13 14  1  0
 14 15  2  0
 15 16  1  0
 16 17  2  0
 12 17  1  0
 18 19  2  0
 18 20  1  0
 14 18  1  0
 11 12  1  0
 21 22  2  0
 22 23  1  0
 23 24  2  0
 24 25  1  0
 25 26  2  0
 21 26  1  0
 27 28  1  0
 23 27  1  0
  1 21  1  0
M  CHG  2  18   1  20  -1
M  END
>  <Classification>  (307) 
1

>  <pchembl>  (307) 
6.13

>  <InChI_steorem>  (307) 
InChI=1S/C20H15N5O3/c1-28-16-8-2-5-13(11-16)18-23-19-17(9-4-10-21-19)20(24-18)22-14-6-3-7-15(12-14)25(26)27/h2-12H,1H3,(H,21,22,23,24)

>  <source>  (307) 
ChEMBL25

>  <source_id>  (307) 
25

>  <optional_reference>  (307) 
10.1021/acs.jmedchem.7b01012

>  <optional_origin>  (307) 
None

>  <target>  (307) 
BCRP

$$$$

     RDKit          2D

 31 34  0  0  0  0  0  0  0  0999 V2000
   10.5354  -12.3478    0.0000 N   0  0  0  0  0  0  0  0  0  0  0  0
   11.2357  -11.9313    0.0000 C   0  0  0  0  0  0  0  0  0  0  0  0
   11.9493  -12.3296    0.0000 O   0  0  0  0  0  0  0  0  0  0  0  0
   11.2245  -11.1130    0.0000 N   0  0  0  0  0  0  0  0  0  0  0  0
   10.5110  -10.7147    0.0000 C   0  0  0  0  0  0  0  0  0  0  0  0
   10.4998   -9.8964    0.0000 C   0  0  0  0  0  0  0  0  0  0  0  0
    9.7862   -9.4982    0.0000 C   0  0  0  0  0  0  0  0  0  0  0  0
    9.0838   -9.9182    0.0000 C   0  0  0  0  0  0  0  0  0  0  0  0
    9.0950  -10.7365    0.0000 C   0  0  0  0  0  0  0  0  0  0  0  0
    9.8086  -11.1348    0.0000 C   0  0  0  0  0  0  0  0  0  0  0  0
   11.9507   -9.7980    0.0000 N   0  0  0  0  0  0  0  0  0  0  0  0
   12.4889   -9.1841    0.0000 N   0  0  0  0  0  0  0  0  0  0  0  0
   12.0725   -8.4837    0.0000 N   0  0  0  0  0  0  0  0  0  0  0  0
   11.2723   -8.6645    0.0000 N   0  0  0  0  0  0  0  0  0  0  0  0
   11.2021   -9.4764    0.0000 C   0  0  0  0  0  0  0  0  0  0  0  0
   13.3045   -9.2563    0.0000 C   0  0  0  0  0  0  0  0  0  0  0  0
   13.6460   -9.9968    0.0000 C   0  0  0  0  0  0  0  0  0  0  0  0
   14.4595  -10.0726    0.0000 C   0  0  0  0  0  0  0  0  0  0  0  0
   14.9335   -9.4043    0.0000 C   0  0  0  0  0  0  0  0  0  0  0  0
   14.5883   -8.6618    0.0000 C   0  0  0  0  0  0  0  0  0  0  0  0
   13.7764   -8.5916    0.0000 C   0  0  0  0  0  0  0  0  0  0  0  0
   15.7469   -9.4801    0.0000 O   0  0  0  0  0  0  0  0  0  0  0  0
   16.2173   -8.8098    0.0000 C   0  0  0  0  0  0  0  0  0  0  0  0
   10.5466  -13.1661    0.0000 C   0  0  0  0  0  0  0  0  0  0  0  0
    9.8462  -13.5825    0.0000 C   0  0  0  0  0  0  0  0  0  0  0  0
    9.8574  -14.4008    0.0000 C   0  0  0  0  0  0  0  0  0  0  0  0
   10.5710  -14.7991    0.0000 C   0  0  0  0  0  0  0  0  0  0  0  0
   11.2734  -14.3791    0.0000 C   0  0  0  0  0  0  0  0  0  0  0  0
   11.2602  -13.5643    0.0000 C   0  0  0  0  0  0  0  0  0  0  0  0
   10.5822  -15.6174    0.0000 O   0  0  0  0  0  0  0  0  0  0  0  0
    9.8798  -16.0374    0.0000 C   0  0  0  0  0  0  0  0  0  0  0  0
  1  2  1  0
  2  3  2  0
  2  4  1  0
  5  6  1  0
  6  7  2  0
  7  8  1  0
  8  9  2  0
  9 10  1  0
  5 10  2  0
 11 12  1  0
 12 13  1  0
 13 14  2  0
 14 15  1  0
 11 15  2  0
 16 17  2  0
 17 18  1  0
 18 19  2  0
 19 20  1  0
 20 21  2  0
 16 21  1  0
 22 23  1  0
 19 22  1  0
 12 16  1  0
  6 15  1  0
  4  5  1  0
 24 25  2  0
 25 26  1  0
 26 27  2  0
 27 28  1  0
 28 29  2  0
 24 29  1  0
 30 31  1  0
 27 30  1  0
  1 24  1  0
M  END
>  <Classification>  (308) 
1

>  <pchembl>  (308) 
6.45

>  <InChI_steorem>  (308) 
InChI=1S/C22H20N6O3/c1-30-17-11-7-15(8-12-17)23-22(29)24-20-6-4-3-5-19(20)21-25-27-28(26-21)16-9-13-18(31-2)14-10-16/h3-14H,1-2H3,(H2,23,24,29)

>  <source>  (308) 
ChEMBL25

>  <source_id>  (308) 
25

>  <optional_reference>  (308) 
10.1016/j.bmcl.2017.09.009

>  <optional_origin>  (308) 
None

>  <target>  (308) 
BCRP

$$$$

     RDKit          2D

 32 35  0  0  0  0  0  0  0  0999 V2000
   12.2469  -11.5341    0.0000 N   0  0  0  0  0  0  0  0  0  0  0  0
   12.9709  -11.1484    0.0000 C   0  0  0  0  0  0  0  0  0  0  0  0
   13.6683  -11.5852    0.0000 O   0  0  0  0  0  0  0  0  0  0  0  0
   12.9998  -10.3264    0.0000 N   0  0  0  0  0  0  0  0  0  0  0  0
   12.3024   -9.8936    0.0000 C   0  0  0  0  0  0  0  0  0  0  0  0
   12.3313   -9.0716    0.0000 C   0  0  0  0  0  0  0  0  0  0  0  0
   11.6340   -8.6348    0.0000 C   0  0  0  0  0  0  0  0  0  0  0  0
   10.9077   -9.0241    0.0000 C   0  0  0  0  0  0  0  0  0  0  0  0
   10.8789   -9.8461    0.0000 C   0  0  0  0  0  0  0  0  0  0  0  0
   11.5762  -10.2788    0.0000 C   0  0  0  0  0  0  0  0  0  0  0  0
   13.7936   -9.0443    0.0000 N   0  0  0  0  0  0  0  0  0  0  0  0
   14.3612   -8.4533    0.0000 N   0  0  0  0  0  0  0  0  0  0  0  0
   13.9761   -7.7271    0.0000 N   0  0  0  0  0  0  0  0  0  0  0  0
   13.1674   -7.8707    0.0000 N   0  0  0  0  0  0  0  0  0  0  0  0
   13.0575   -8.6823    0.0000 C   0  0  0  0  0  0  0  0  0  0  0  0
   15.1763   -8.5654    0.0000 C   0  0  0  0  0  0  0  0  0  0  0  0
   15.4854   -9.3258    0.0000 C   0  0  0  0  0  0  0  0  0  0  0  0
   16.2983   -9.4414    0.0000 C   0  0  0  0  0  0  0  0  0  0  0  0
   16.8009   -8.7908    0.0000 C   0  0  0  0  0  0  0  0  0  0  0  0
   16.4960   -8.0303    0.0000 C   0  0  0  0  0  0  0  0  0  0  0  0
   15.6809   -7.9183    0.0000 C   0  0  0  0  0  0  0  0  0  0  0  0
   16.6067  -10.2040    0.0000 O   0  0  0  0  0  0  0  0  0  0  0  0
   17.4183  -10.3139    0.0000 C   0  0  0  0  0  0  0  0  0  0  0  0
   12.2181  -12.3562    0.0000 C   0  0  0  0  0  0  0  0  0  0  0  0
   11.4940  -12.7378    0.0000 C   0  0  0  0  0  0  0  0  0  0  0  0
   11.4652  -13.5598    0.0000 C   0  0  0  0  0  0  0  0  0  0  0  0
   12.1625  -13.9967    0.0000 C   0  0  0  0  0  0  0  0  0  0  0  0
   12.8887  -13.6074    0.0000 C   0  0  0  0  0  0  0  0  0  0  0  0
   12.9154  -12.7889    0.0000 C   0  0  0  0  0  0  0  0  0  0  0  0
   12.1337  -14.8187    0.0000 N   0  0  0  0  0  0  0  0  0  0  0  0
   11.4074  -15.2038    0.0000 C   0  0  0  0  0  0  0  0  0  0  0  0
   10.6834  -15.5896    0.0000 S   0  0  0  0  0  0  0  0  0  0  0  0
  1  2  1  0
  2  3  2  0
  2  4  1  0
  5  6  1  0
  6  7  2  0
  7  8  1  0
  8  9  2  0
  9 10  1  0
  5 10  2  0
 11 12  1  0
 12 13  1  0
 13 14  2  0
 14 15  1  0
 11 15  2  0
 16 17  2  0
 17 18  1  0
 18 19  2  0
 19 20  1  0
 20 21  2  0
 16 21  1  0
 22 23  1  0
 18 22  1  0
 12 16  1  0
  6 15  1  0
  4  5  1  0
 24 25  2  0
 25 26  1  0
 26 27  2  0
 27 28  1  0
 28 29  2  0
 24 29  1  0
 30 31  2  0
 31 32  2  0
 27 30  1  0
  1 24  1  0
M  END
>  <Classification>  (309) 
1

>  <pchembl>  (309) 
6.26

>  <InChI_steorem>  (309) 
InChI=1S/C22H17N7O2S/c1-31-18-6-4-5-17(13-18)29-27-21(26-28-29)19-7-2-3-8-20(19)25-22(30)24-16-11-9-15(10-12-16)23-14-32/h2-13H,1H3,(H2,24,25,30)

>  <source>  (309) 
ChEMBL25

>  <source_id>  (309) 
25

>  <optional_reference>  (309) 
10.1016/j.bmcl.2017.09.009

>  <optional_origin>  (309) 
None

>  <target>  (309) 
BCRP

$$$$

     RDKit          2D

 24 27  0  0  0  0  0  0  0  0999 V2000
   32.8290   -7.1049    0.0000 C   0  0  0  0  0  0  0  0  0  0  0  0
   32.1145   -6.6924    0.0000 C   0  0  0  0  0  0  0  0  0  0  0  0
   31.4000   -7.1049    0.0000 C   0  0  0  0  0  0  0  0  0  0  0  0
   31.4000   -7.9299    0.0000 C   0  0  0  0  0  0  0  0  0  0  0  0
   32.1145   -8.3424    0.0000 C   0  0  0  0  0  0  0  0  0  0  0  0
   32.8290   -7.9299    0.0000 C   0  0  0  0  0  0  0  0  0  0  0  0
   33.5434   -6.6924    0.0000 O   0  0  0  0  0  0  0  0  0  0  0  0
   30.6855   -8.3424    0.0000 N   0  0  0  0  0  0  0  0  0  0  0  0
   31.4000  -10.4049    0.0000 C   0  0  0  0  0  0  0  0  0  0  0  0
   30.6855  -10.8174    0.0000 N   0  0  0  0  0  0  0  0  0  0  0  0
   29.9711  -10.4049    0.0000 C   0  0  0  0  0  0  0  0  0  0  0  0
   29.9711   -9.5799    0.0000 C   0  0  0  0  0  0  0  0  0  0  0  0
   30.6855   -9.1674    0.0000 C   0  0  0  0  0  0  0  0  0  0  0  0
   31.4000   -9.5799    0.0000 N   0  0  0  0  0  0  0  0  0  0  0  0
   29.2566   -9.1674    0.0000 C   0  0  0  0  0  0  0  0  0  0  0  0
   28.5421   -9.5799    0.0000 C   0  0  0  0  0  0  0  0  0  0  0  0
   28.5421  -10.4049    0.0000 C   0  0  0  0  0  0  0  0  0  0  0  0
   29.2566  -10.8174    0.0000 N   0  0  0  0  0  0  0  0  0  0  0  0
   32.1145  -10.8174    0.0000 C   0  0  0  0  0  0  0  0  0  0  0  0
   32.1145  -11.6424    0.0000 C   0  0  0  0  0  0  0  0  0  0  0  0
   32.8290  -12.0549    0.0000 C   0  0  0  0  0  0  0  0  0  0  0  0
   33.5434  -11.6424    0.0000 C   0  0  0  0  0  0  0  0  0  0  0  0
   33.5434  -10.8174    0.0000 C   0  0  0  0  0  0  0  0  0  0  0  0
   32.8290  -10.4049    0.0000 C   0  0  0  0  0  0  0  0  0  0  0  0
  1  2  2  0
  2  3  1  0
  3  4  2  0
  4  5  1  0
  5  6  2  0
  1  6  1  0
  1  7  1  0
  9 10  2  0
 10 11  1  0
 11 12  2  0
 12 13  1  0
 13 14  2  0
  9 14  1  0
 15 16  2  0
 16 17  1  0
 17 18  2  0
 11 18  1  0
 12 15  1  0
 19 20  2  0
 20 21  1  0
 21 22  2  0
 22 23  1  0
 23 24  2  0
 19 24  1  0
  9 19  1  0
  8 13  1  0
  4  8  1  0
M  END
>  <Classification>  (310) 
1

>  <pchembl>  (310) 
5.69

>  <InChI_steorem>  (310) 
InChI=1S/C19H14N4O/c24-15-10-8-14(9-11-15)21-19-16-7-4-12-20-18(16)22-17(23-19)13-5-2-1-3-6-13/h1-12,24H,(H,20,21,22,23)

>  <source>  (310) 
ChEMBL25

>  <source_id>  (310) 
25

>  <optional_reference>  (310) 
10.1021/acs.jmedchem.7b01012

>  <optional_origin>  (310) 
None

>  <target>  (310) 
BCRP

$$$$

     RDKit          2D

 24 27  0  0  0  0  0  0  0  0999 V2000
   15.5901  -10.7762    0.0000 C   0  0  0  0  0  0  0  0  0  0  0  0
   14.8811  -11.1848    0.0000 N   0  0  0  0  0  0  0  0  0  0  0  0
   14.1761  -10.7762    0.0000 C   0  0  0  0  0  0  0  0  0  0  0  0
   14.1761   -9.9590    0.0000 C   0  0  0  0  0  0  0  0  0  0  0  0
   14.8811   -9.5504    0.0000 C   0  0  0  0  0  0  0  0  0  0  0  0
   15.5901   -9.9590    0.0000 N   0  0  0  0  0  0  0  0  0  0  0  0
   13.4670   -9.5504    0.0000 C   0  0  0  0  0  0  0  0  0  0  0  0
   12.7579   -9.9590    0.0000 C   0  0  0  0  0  0  0  0  0  0  0  0
   12.7579  -10.7762    0.0000 C   0  0  0  0  0  0  0  0  0  0  0  0
   13.4670  -11.1848    0.0000 N   0  0  0  0  0  0  0  0  0  0  0  0
   14.8811   -8.7291    0.0000 N   0  0  0  0  0  0  0  0  0  0  0  0
   16.2951  -11.1848    0.0000 C   0  0  0  0  0  0  0  0  0  0  0  0
   16.2951  -12.0020    0.0000 C   0  0  0  0  0  0  0  0  0  0  0  0
   17.0042  -12.4106    0.0000 C   0  0  0  0  0  0  0  0  0  0  0  0
   17.7133  -12.0020    0.0000 C   0  0  0  0  0  0  0  0  0  0  0  0
   17.7133  -11.1848    0.0000 C   0  0  0  0  0  0  0  0  0  0  0  0
   17.0042  -10.7762    0.0000 C   0  0  0  0  0  0  0  0  0  0  0  0
   15.5901   -8.3205    0.0000 C   0  0  0  0  0  0  0  0  0  0  0  0
   16.2951   -8.7291    0.0000 C   0  0  0  0  0  0  0  0  0  0  0  0
   17.0042   -8.3205    0.0000 C   0  0  0  0  0  0  0  0  0  0  0  0
   17.0042   -7.5033    0.0000 C   0  0  0  0  0  0  0  0  0  0  0  0
   16.2951   -7.0988    0.0000 C   0  0  0  0  0  0  0  0  0  0  0  0
   15.5901   -7.5074    0.0000 C   0  0  0  0  0  0  0  0  0  0  0  0
   17.7133   -8.7291    0.0000 F   0  0  0  0  0  0  0  0  0  0  0  0
  1  2  2  0
  2  3  1  0
  3  4  2  0
  4  5  1  0
  5  6  2  0
  1  6  1  0
  7  8  2  0
  8  9  1  0
  9 10  2  0
  3 10  1  0
  4  7  1  0
  5 11  1  0
 12 13  2  0
 13 14  1  0
 14 15  2  0
 15 16  1  0
 16 17  2  0
 12 17  1  0
  1 12  1  0
 18 19  2  0
 19 20  1  0
 20 21  2  0
 21 22  1  0
 22 23  2  0
 18 23  1  0
 20 24  1  0
 11 18  1  0
M  END
>  <Classification>  (311) 
1

>  <pchembl>  (311) 
6.79

>  <InChI_steorem>  (311) 
InChI=1S/C19H13FN4/c20-14-8-4-9-15(12-14)22-19-16-10-5-11-21-18(16)23-17(24-19)13-6-2-1-3-7-13/h1-12H,(H,21,22,23,24)

>  <source>  (311) 
ChEMBL25

>  <source_id>  (311) 
25

>  <optional_reference>  (311) 
10.1021/acs.jmedchem.7b01012

>  <optional_origin>  (311) 
None

>  <target>  (311) 
BCRP

$$$$

     RDKit          2D

 25 28  0  0  0  0  0  0  0  0999 V2000
    9.6809   -9.1443    0.0000 C   0  0  0  0  0  0  0  0  0  0  0  0
    8.9760   -9.5529    0.0000 N   0  0  0  0  0  0  0  0  0  0  0  0
    8.2669   -9.1443    0.0000 C   0  0  0  0  0  0  0  0  0  0  0  0
    8.2669   -8.3272    0.0000 C   0  0  0  0  0  0  0  0  0  0  0  0
    8.9760   -7.9186    0.0000 C   0  0  0  0  0  0  0  0  0  0  0  0
    9.6809   -8.3272    0.0000 N   0  0  0  0  0  0  0  0  0  0  0  0
    7.5578   -7.9186    0.0000 C   0  0  0  0  0  0  0  0  0  0  0  0
    6.8487   -8.3272    0.0000 C   0  0  0  0  0  0  0  0  0  0  0  0
    6.8487   -9.1443    0.0000 C   0  0  0  0  0  0  0  0  0  0  0  0
    7.5578   -9.5529    0.0000 N   0  0  0  0  0  0  0  0  0  0  0  0
    8.9760   -7.1014    0.0000 N   0  0  0  0  0  0  0  0  0  0  0  0
   10.3900   -9.5529    0.0000 C   0  0  0  0  0  0  0  0  0  0  0  0
   10.3900  -10.3701    0.0000 C   0  0  0  0  0  0  0  0  0  0  0  0
   11.0950  -10.7787    0.0000 C   0  0  0  0  0  0  0  0  0  0  0  0
   11.8041  -10.3701    0.0000 C   0  0  0  0  0  0  0  0  0  0  0  0
   11.8041   -9.5529    0.0000 C   0  0  0  0  0  0  0  0  0  0  0  0
   11.0950   -9.1443    0.0000 C   0  0  0  0  0  0  0  0  0  0  0  0
    9.6809   -6.6886    0.0000 C   0  0  0  0  0  0  0  0  0  0  0  0
   10.3900   -7.1014    0.0000 C   0  0  0  0  0  0  0  0  0  0  0  0
   11.0950   -6.6886    0.0000 C   0  0  0  0  0  0  0  0  0  0  0  0
   11.0950   -5.8715    0.0000 C   0  0  0  0  0  0  0  0  0  0  0  0
   10.3900   -5.4629    0.0000 C   0  0  0  0  0  0  0  0  0  0  0  0
    9.6809   -5.8714    0.0000 C   0  0  0  0  0  0  0  0  0  0  0  0
   11.8041   -5.4629    0.0000 O   0  0  0  0  0  0  0  0  0  0  0  0
   11.8041   -4.6457    0.0000 C   0  0  0  0  0  0  0  0  0  0  0  0
  1  2  2  0
  2  3  1  0
  3  4  2  0
  4  5  1  0
  5  6  2  0
  1  6  1  0
  7  8  2  0
  8  9  1  0
  9 10  2  0
  3 10  1  0
  4  7  1  0
  5 11  1  0
 12 13  2  0
 13 14  1  0
 14 15  2  0
 15 16  1  0
 16 17  2  0
 12 17  1  0
  1 12  1  0
 18 19  2  0
 19 20  1  0
 20 21  2  0
 21 22  1  0
 22 23  2  0
 18 23  1  0
 24 25  1  0
 21 24  1  0
 11 18  1  0
M  END
>  <Classification>  (312) 
1

>  <pchembl>  (312) 
6.62

>  <InChI_steorem>  (312) 
InChI=1S/C20H16N4O/c1-25-16-11-9-15(10-12-16)22-20-17-8-5-13-21-19(17)23-18(24-20)14-6-3-2-4-7-14/h2-13H,1H3,(H,21,22,23,24)

>  <source>  (312) 
ChEMBL25

>  <source_id>  (312) 
25

>  <optional_reference>  (312) 
10.1021/acs.jmedchem.7b01012

>  <optional_origin>  (312) 
None

>  <target>  (312) 
BCRP

$$$$

     RDKit          2D

 30 32  0  0  0  0  0  0  0  0999 V2000
   10.3041  -12.9076    0.0000 C   0  0  0  0  0  0  0  0  0  0  0  0
   10.3041  -13.7247    0.0000 C   0  0  0  0  0  0  0  0  0  0  0  0
   11.0090  -14.1333    0.0000 C   0  0  0  0  0  0  0  0  0  0  0  0
   11.0090  -14.9505    0.0000 C   0  0  0  0  0  0  0  0  0  0  0  0
   10.3041  -15.3591    0.0000 C   0  0  0  0  0  0  0  0  0  0  0  0
    9.5950  -14.9505    0.0000 C   0  0  0  0  0  0  0  0  0  0  0  0
    9.5950  -14.1333    0.0000 C   0  0  0  0  0  0  0  0  0  0  0  0
   11.0090  -12.4990    0.0000 O   0  0  0  0  0  0  0  0  0  0  0  0
    9.5950  -12.4990    0.0000 N   0  0  0  0  0  0  0  0  0  0  0  0
    9.5950  -11.6818    0.0000 C   0  0  0  0  0  0  0  0  0  0  0  0
   10.3041  -11.2732    0.0000 C   0  0  0  0  0  0  0  0  0  0  0  0
   10.3041  -10.4560    0.0000 C   0  0  0  0  0  0  0  0  0  0  0  0
    9.5950  -10.0474    0.0000 C   0  0  0  0  0  0  0  0  0  0  0  0
    8.8859  -10.4560    0.0000 C   0  0  0  0  0  0  0  0  0  0  0  0
    8.8859  -11.2732    0.0000 C   0  0  0  0  0  0  0  0  0  0  0  0
   11.0090  -10.0474    0.0000 C   0  0  0  0  0  0  0  0  0  0  0  0
   11.0090   -9.2302    0.0000 C   0  0  0  0  0  0  0  0  0  0  0  0
   10.3041   -8.8216    0.0000 C   0  0  0  0  0  0  0  0  0  0  0  0
   12.4231  -14.1333    0.0000 C   0  0  0  0  0  0  0  0  0  0  0  0
   13.1322  -13.7247    0.0000 C   0  0  0  0  0  0  0  0  0  0  0  0
   13.8412  -14.1333    0.0000 C   0  0  0  0  0  0  0  0  0  0  0  0
   14.5503  -13.7247    0.0000 C   0  0  0  0  0  0  0  0  0  0  0  0
   14.5503  -12.9076    0.0000 C   0  0  0  0  0  0  0  0  0  0  0  0
   13.8412  -12.4990    0.0000 C   0  0  0  0  0  0  0  0  0  0  0  0
   13.1322  -12.9076    0.0000 C   0  0  0  0  0  0  0  0  0  0  0  0
   12.4231  -14.9505    0.0000 O   0  0  0  0  0  0  0  0  0  0  0  0
   11.7181  -13.7247    0.0000 N   0  0  0  0  0  0  0  0  0  0  0  0
   13.8412  -14.9505    0.0000 N   0  0  0  0  0  0  0  0  0  0  0  0
   13.1322  -15.3591    0.0000 O   0  0  0  0  0  0  0  0  0  0  0  0
   14.5503  -15.3591    0.0000 O   0  0  0  0  0  0  0  0  0  0  0  0
  1  2  1  0
  2  3  1  0
  3  4  2  0
  4  5  1  0
  5  6  2  0
  6  7  1  0
  2  7  2  0
  1  8  2  0
  1  9  1  0
 10 11  2  0
 11 12  1  0
 12 13  2  0
 13 14  1  0
 14 15  2  0
 10 15  1  0
 16 17  1  0
 17 18  1  0
 12 16  1  0
  9 10  1  0
 19 20  1  0
 20 21  2  0
 21 22  1  0
 22 23  2  0
 23 24  1  0
 24 25  2  0
 20 25  1  0
 19 26  2  0
 19 27  1  0
 28 29  2  0
 28 30  1  0
 21 28  1  0
  3 27  1  0
M  CHG  2  28   1  30  -1
M  END
>  <Classification>  (313) 
1

>  <pchembl>  (313) 
5.77

>  <InChI_steorem>  (313) 
InChI=1S/C23H21N3O4/c1-2-8-16-9-7-10-17(15-16)24-22(27)18-11-3-5-13-20(18)25-23(28)19-12-4-6-14-21(19)26(29)30/h3-7,9-15H,2,8H2,1H3,(H,24,27)(H,25,28)

>  <source>  (313) 
ChEMBL25

>  <source_id>  (313) 
25

>  <optional_reference>  (313) 
10.1016/j.bmcl.2017.09.009

>  <optional_origin>  (313) 
None

>  <target>  (313) 
BCRP

$$$$

     RDKit          2D

 32 35  0  0  0  0  0  0  0  0999 V2000
   12.0525  -12.7461    0.0000 C   0  0  0  0  0  0  0  0  0  0  0  0
   11.3273  -13.1346    0.0000 C   0  0  0  0  0  0  0  0  0  0  0  0
   10.6290  -12.6970    0.0000 C   0  0  0  0  0  0  0  0  0  0  0  0
    9.9038  -13.0855    0.0000 C   0  0  0  0  0  0  0  0  0  0  0  0
    9.8768  -13.9076    0.0000 C   0  0  0  0  0  0  0  0  0  0  0  0
   10.5731  -14.3375    0.0000 C   0  0  0  0  0  0  0  0  0  0  0  0
   11.2983  -13.9531    0.0000 C   0  0  0  0  0  0  0  0  0  0  0  0
   12.7447  -13.1801    0.0000 O   0  0  0  0  0  0  0  0  0  0  0  0
   12.0795  -11.9240    0.0000 N   0  0  0  0  0  0  0  0  0  0  0  0
   11.3812  -11.4905    0.0000 C   0  0  0  0  0  0  0  0  0  0  0  0
   11.4102  -10.6721    0.0000 C   0  0  0  0  0  0  0  0  0  0  0  0
   10.7119  -10.2344    0.0000 C   0  0  0  0  0  0  0  0  0  0  0  0
    9.9866  -10.6230    0.0000 C   0  0  0  0  0  0  0  0  0  0  0  0
    9.9597  -11.4450    0.0000 C   0  0  0  0  0  0  0  0  0  0  0  0
   10.6560  -11.8749    0.0000 C   0  0  0  0  0  0  0  0  0  0  0  0
   12.8733  -10.6434    0.0000 N   0  0  0  0  0  0  0  0  0  0  0  0
   13.4413  -10.0526    0.0000 N   0  0  0  0  0  0  0  0  0  0  0  0
   13.0569   -9.3273    0.0000 N   0  0  0  0  0  0  0  0  0  0  0  0
   12.2471   -9.4682    0.0000 N   0  0  0  0  0  0  0  0  0  0  0  0
   12.1354  -10.2835    0.0000 C   0  0  0  0  0  0  0  0  0  0  0  0
   14.2529  -10.1662    0.0000 C   0  0  0  0  0  0  0  0  0  0  0  0
   14.5642  -10.9250    0.0000 C   0  0  0  0  0  0  0  0  0  0  0  0
   15.3758  -11.0386    0.0000 C   0  0  0  0  0  0  0  0  0  0  0  0
   15.8799  -10.3915    0.0000 C   0  0  0  0  0  0  0  0  0  0  0  0
   15.5745   -9.6312    0.0000 C   0  0  0  0  0  0  0  0  0  0  0  0
   14.7592   -9.5154    0.0000 C   0  0  0  0  0  0  0  0  0  0  0  0
   15.6849  -11.8010    0.0000 O   0  0  0  0  0  0  0  0  0  0  0  0
   16.5001  -11.9127    0.0000 C   0  0  0  0  0  0  0  0  0  0  0  0
    9.1226  -15.1105    0.0000 C   0  0  0  0  0  0  0  0  0  0  0  0
    9.8209  -15.5481    0.0000 C   0  0  0  0  0  0  0  0  0  0  0  0
    8.3973  -15.4990    0.0000 O   0  0  0  0  0  0  0  0  0  0  0  0
    9.1515  -14.2920    0.0000 N   0  0  0  0  0  0  0  0  0  0  0  0
  1  2  1  0
  2  3  2  0
  3  4  1  0
  4  5  2  0
  5  6  1  0
  6  7  2  0
  2  7  1  0
  1  8  2  0
  1  9  1  0
 10 11  1  0
 11 12  2  0
 12 13  1  0
 13 14  2  0
 14 15  1  0
 10 15  2  0
 16 17  1  0
 17 18  1  0
 18 19  2  0
 19 20  1  0
 16 20  2  0
 21 22  2  0
 22 23  1  0
 23 24  2  0
 24 25  1  0
 25 26  2  0
 21 26  1  0
 27 28  1  0
 23 27  1  0
 17 21  1  0
 11 20  1  0
  9 10  1  0
 29 30  1  0
 29 31  2  0
 29 32  1  0
  5 32  1  0
M  END
>  <Classification>  (314) 
1

>  <pchembl>  (314) 
5.92

>  <InChI_steorem>  (314) 
InChI=1S/C23H20N6O3/c1-15(30)24-17-12-10-16(11-13-17)23(31)25-21-9-4-3-8-20(21)22-26-28-29(27-22)18-6-5-7-19(14-18)32-2/h3-14H,1-2H3,(H,24,30)(H,25,31)

>  <source>  (314) 
ChEMBL25

>  <source_id>  (314) 
25

>  <optional_reference>  (314) 
10.1016/j.bmcl.2017.09.009

>  <optional_origin>  (314) 
None

>  <target>  (314) 
BCRP

$$$$

     RDKit          2D

 22 24  0  0  0  0  0  0  0  0999 V2000
   23.7076  -21.1484    0.0000 C   0  0  0  0  0  0  0  0  0  0  0  0
   23.7084  -21.9674    0.0000 C   0  0  0  0  0  0  0  0  0  0  0  0
   24.4169  -22.3745    0.0000 N   0  0  0  0  0  0  0  0  0  0  0  0
   25.1252  -21.9637    0.0000 C   0  0  0  0  0  0  0  0  0  0  0  0
   25.1204  -21.1415    0.0000 N   0  0  0  0  0  0  0  0  0  0  0  0
   24.4113  -20.7382    0.0000 C   0  0  0  0  0  0  0  0  0  0  0  0
   24.4070  -19.9210    0.0000 N   0  0  0  0  0  0  0  0  0  0  0  0
   25.1125  -19.5087    0.0000 C   0  0  0  0  0  0  0  0  0  0  0  0
   25.8178  -19.9169    0.0000 C   0  0  0  0  0  0  0  0  0  0  0  0
   26.5229  -19.5052    0.0000 C   0  0  0  0  0  0  0  0  0  0  0  0
   26.5190  -18.6872    0.0000 C   0  0  0  0  0  0  0  0  0  0  0  0
   25.8041  -18.2825    0.0000 C   0  0  0  0  0  0  0  0  0  0  0  0
   25.1020  -18.6965    0.0000 C   0  0  0  0  0  0  0  0  0  0  0  0
   25.8309  -22.3654    0.0000 C   0  0  0  0  0  0  0  0  0  0  0  0
   25.8327  -23.1837    0.0000 C   0  0  0  0  0  0  0  0  0  0  0  0
   26.5412  -23.5895    0.0000 C   0  0  0  0  0  0  0  0  0  0  0  0
   27.2483  -23.1781    0.0000 N   0  0  0  0  0  0  0  0  0  0  0  0
   27.2425  -22.3567    0.0000 C   0  0  0  0  0  0  0  0  0  0  0  0
   26.5334  -21.9546    0.0000 C   0  0  0  0  0  0  0  0  0  0  0  0
   23.0013  -22.3771    0.0000 C   0  0  0  0  0  0  0  0  0  0  0  0
   25.7969  -17.4654    0.0000 O   0  0  0  0  0  0  0  0  0  0  0  0
   26.5010  -17.0505    0.0000 C   0  0  0  0  0  0  0  0  0  0  0  0
  1  2  2  0
  2  3  1  0
  3  4  2  0
  4  5  1  0
  5  6  2  0
  6  1  1  0
  6  7  1  0
  7  8  1  0
  8  9  2  0
  9 10  1  0
 10 11  2  0
 11 12  1  0
 12 13  2  0
 13  8  1  0
 14 15  2  0
 15 16  1  0
 16 17  2  0
 17 18  1  0
 18 19  2  0
 19 14  1  0
  4 14  1  0
  2 20  1  0
 12 21  1  0
 21 22  1  0
M  END
>  <Classification>  (315) 
1

>  <pchembl>  (315) 
6.57

>  <InChI_steorem>  (315) 
InChI=1S/C17H16N4O/c1-12-10-16(20-14-4-3-5-15(11-14)22-2)21-17(19-12)13-6-8-18-9-7-13/h3-11H,1-2H3,(H,19,20,21)

>  <source>  (315) 
ChEMBL25

>  <source_id>  (315) 
25

>  <optional_reference>  (315) 
10.1021/acs.jmedchem.7b00441

>  <optional_origin>  (315) 
None

>  <target>  (315) 
BCRP

$$$$

     RDKit          2D

 31 33  0  0  0  0  0  0  0  0999 V2000
   11.2055  -10.5905    0.0000 C   0  0  0  0  0  0  0  0  0  0  0  0
   10.4936  -10.9837    0.0000 C   0  0  0  0  0  0  0  0  0  0  0  0
   10.4753  -11.8006    0.0000 C   0  0  0  0  0  0  0  0  0  0  0  0
    9.7634  -12.1979    0.0000 C   0  0  0  0  0  0  0  0  0  0  0  0
    9.0616  -11.7782    0.0000 C   0  0  0  0  0  0  0  0  0  0  0  0
    9.0758  -10.9612    0.0000 C   0  0  0  0  0  0  0  0  0  0  0  0
    9.7918  -10.5640    0.0000 C   0  0  0  0  0  0  0  0  0  0  0  0
   11.9073  -11.0102    0.0000 O   0  0  0  0  0  0  0  0  0  0  0  0
   11.2198   -9.7735    0.0000 N   0  0  0  0  0  0  0  0  0  0  0  0
   11.9358   -9.3762    0.0000 C   0  0  0  0  0  0  0  0  0  0  0  0
   11.9500   -8.5592    0.0000 C   0  0  0  0  0  0  0  0  0  0  0  0
   12.6660   -8.1661    0.0000 C   0  0  0  0  0  0  0  0  0  0  0  0
   13.3678   -8.5858    0.0000 C   0  0  0  0  0  0  0  0  0  0  0  0
   13.3536   -9.4028    0.0000 C   0  0  0  0  0  0  0  0  0  0  0  0
   12.6376   -9.8000    0.0000 C   0  0  0  0  0  0  0  0  0  0  0  0
   14.0797   -8.1885    0.0000 C   0  0  0  0  0  0  0  0  0  0  0  0
   14.0980   -7.3715    0.0000 C   0  0  0  0  0  0  0  0  0  0  0  0
   14.8099   -6.9783    0.0000 C   0  0  0  0  0  0  0  0  0  0  0  0
   11.1771  -12.2245    0.0000 N   0  0  0  0  0  0  0  0  0  0  0  0
   11.1629  -13.0415    0.0000 C   0  0  0  0  0  0  0  0  0  0  0  0
   10.4469  -13.4346    0.0000 O   0  0  0  0  0  0  0  0  0  0  0  0
   11.8647  -13.4612    0.0000 N   0  0  0  0  0  0  0  0  0  0  0  0
   11.8464  -14.2781    0.0000 C   0  0  0  0  0  0  0  0  0  0  0  0
   12.5482  -14.7020    0.0000 C   0  0  0  0  0  0  0  0  0  0  0  0
   12.5339  -15.5190    0.0000 C   0  0  0  0  0  0  0  0  0  0  0  0
   11.8179  -15.9121    0.0000 C   0  0  0  0  0  0  0  0  0  0  0  0
   11.1161  -15.4924    0.0000 C   0  0  0  0  0  0  0  0  0  0  0  0
   11.1345  -14.6754    0.0000 C   0  0  0  0  0  0  0  0  0  0  0  0
   11.8037  -16.7291    0.0000 N   0  0  0  0  0  0  0  0  0  0  0  0
   12.5014  -17.1529    0.0000 O   0  0  0  0  0  0  0  0  0  0  0  0
   11.0877  -17.1264    0.0000 O   0  0  0  0  0  0  0  0  0  0  0  0
  1  2  1  0
  2  3  1  0
  3  4  2  0
  4  5  1  0
  5  6  2  0
  6  7  1  0
  2  7  2  0
  1  8  2  0
  1  9  1  0
 10 11  2  0
 11 12  1  0
 12 13  2  0
 13 14  1  0
 14 15  2  0
 10 15  1  0
 16 17  1  0
 17 18  1  0
 13 16  1  0
  9 10  1  0
 19 20  1  0
 20 21  2  0
 20 22  1  0
 23 24  2  0
 24 25  1  0
 25 26  2  0
 26 27  1  0
 27 28  2  0
 23 28  1  0
 29 30  2  0
 29 31  1  0
 26 29  1  0
 22 23  1  0
  3 19  1  0
M  CHG  2  29   1  31  -1
M  END
>  <Classification>  (316) 
1

>  <pchembl>  (316) 
6.49

>  <InChI_steorem>  (316) 
InChI=1S/C23H22N4O4/c1-2-5-16-8-10-17(11-9-16)24-22(28)20-6-3-4-7-21(20)26-23(29)25-18-12-14-19(15-13-18)27(30)31/h3-4,6-15H,2,5H2,1H3,(H,24,28)(H2,25,26,29)

>  <source>  (316) 
ChEMBL25

>  <source_id>  (316) 
25

>  <optional_reference>  (316) 
10.1016/j.bmcl.2017.09.009

>  <optional_origin>  (316) 
None

>  <target>  (316) 
BCRP

$$$$

     RDKit          2D

 30 33  0  0  0  0  0  0  0  0999 V2000
   14.1846  -13.9359    0.0000 N   0  0  0  0  0  0  0  0  0  0  0  0
   14.8913  -13.5263    0.0000 C   0  0  0  0  0  0  0  0  0  0  0  0
   15.5986  -13.9380    0.0000 O   0  0  0  0  0  0  0  0  0  0  0  0
   14.8950  -12.7091    0.0000 N   0  0  0  0  0  0  0  0  0  0  0  0
   14.1877  -12.3015    0.0000 C   0  0  0  0  0  0  0  0  0  0  0  0
   14.1913  -11.4843    0.0000 C   0  0  0  0  0  0  0  0  0  0  0  0
   13.4840  -11.0726    0.0000 C   0  0  0  0  0  0  0  0  0  0  0  0
   12.7772  -11.4780    0.0000 C   0  0  0  0  0  0  0  0  0  0  0  0
   12.7736  -12.2952    0.0000 C   0  0  0  0  0  0  0  0  0  0  0  0
   13.4809  -12.7070    0.0000 C   0  0  0  0  0  0  0  0  0  0  0  0
   15.6439  -11.4124    0.0000 N   0  0  0  0  0  0  0  0  0  0  0  0
   16.1944  -10.8042    0.0000 N   0  0  0  0  0  0  0  0  0  0  0  0
   15.7889  -10.0974    0.0000 N   0  0  0  0  0  0  0  0  0  0  0  0
   14.9898  -10.2647    0.0000 N   0  0  0  0  0  0  0  0  0  0  0  0
   14.8980  -11.0747    0.0000 C   0  0  0  0  0  0  0  0  0  0  0  0
   17.0044  -10.8918    0.0000 C   0  0  0  0  0  0  0  0  0  0  0  0
   17.3355  -11.6406    0.0000 C   0  0  0  0  0  0  0  0  0  0  0  0
   18.1497  -11.7282    0.0000 C   0  0  0  0  0  0  0  0  0  0  0  0
   18.6327  -11.0670    0.0000 C   0  0  0  0  0  0  0  0  0  0  0  0
   18.3016  -10.3224    0.0000 C   0  0  0  0  0  0  0  0  0  0  0  0
   17.4875  -10.2348    0.0000 C   0  0  0  0  0  0  0  0  0  0  0  0
   18.4808  -12.4769    0.0000 O   0  0  0  0  0  0  0  0  0  0  0  0
   19.2908  -12.5645    0.0000 C   0  0  0  0  0  0  0  0  0  0  0  0
   14.1810  -14.7530    0.0000 C   0  0  0  0  0  0  0  0  0  0  0  0
   13.4742  -15.1585    0.0000 C   0  0  0  0  0  0  0  0  0  0  0  0
   13.4706  -15.9757    0.0000 C   0  0  0  0  0  0  0  0  0  0  0  0
   14.1779  -16.3874    0.0000 C   0  0  0  0  0  0  0  0  0  0  0  0
   14.8847  -15.9778    0.0000 C   0  0  0  0  0  0  0  0  0  0  0  0
   14.8883  -15.1606    0.0000 C   0  0  0  0  0  0  0  0  0  0  0  0
   14.1743  -17.2046    0.0000 N   0  0  0  0  0  0  0  0  0  0  0  0
  1  2  1  0
  2  3  2  0
  2  4  1  0
  5  6  1  0
  6  7  2  0
  7  8  1  0
  8  9  2  0
  9 10  1  0
  5 10  2  0
 11 12  1  0
 12 13  1  0
 13 14  2  0
 14 15  1  0
 11 15  2  0
 16 17  2  0
 17 18  1  0
 18 19  2  0
 19 20  1  0
 20 21  2  0
 16 21  1  0
 22 23  1  0
 18 22  1  0
 12 16  1  0
  6 15  1  0
  4  5  1  0
 24 25  2  0
 25 26  1  0
 26 27  2  0
 27 28  1  0
 28 29  2  0
 24 29  1  0
 27 30  1  0
  1 24  1  0
M  END
>  <Classification>  (317) 
1

>  <pchembl>  (317) 
6.42

>  <InChI_steorem>  (317) 
InChI=1S/C21H19N7O2/c1-30-17-6-4-5-16(13-17)28-26-20(25-27-28)18-7-2-3-8-19(18)24-21(29)23-15-11-9-14(22)10-12-15/h2-13H,22H2,1H3,(H2,23,24,29)

>  <source>  (317) 
ChEMBL25

>  <source_id>  (317) 
25

>  <optional_reference>  (317) 
10.1016/j.bmcl.2017.09.009

>  <optional_origin>  (317) 
None

>  <target>  (317) 
BCRP

$$$$

     RDKit          2D

 27 30  0  0  0  0  0  0  0  0999 V2000
    9.1212   -7.4357    0.0000 C   0  0  0  0  0  0  0  0  0  0  0  0
    8.4121   -7.8443    0.0000 N   0  0  0  0  0  0  0  0  0  0  0  0
    7.7071   -7.4357    0.0000 C   0  0  0  0  0  0  0  0  0  0  0  0
    7.7071   -6.6185    0.0000 C   0  0  0  0  0  0  0  0  0  0  0  0
    8.4121   -6.2099    0.0000 C   0  0  0  0  0  0  0  0  0  0  0  0
    9.1212   -6.6185    0.0000 N   0  0  0  0  0  0  0  0  0  0  0  0
    6.9980   -6.2099    0.0000 C   0  0  0  0  0  0  0  0  0  0  0  0
    6.2931   -6.6185    0.0000 C   0  0  0  0  0  0  0  0  0  0  0  0
    6.2931   -7.4357    0.0000 C   0  0  0  0  0  0  0  0  0  0  0  0
    6.9980   -7.8443    0.0000 N   0  0  0  0  0  0  0  0  0  0  0  0
    8.4121   -5.3927    0.0000 N   0  0  0  0  0  0  0  0  0  0  0  0
    9.8303   -7.8443    0.0000 C   0  0  0  0  0  0  0  0  0  0  0  0
    9.8303   -8.6615    0.0000 C   0  0  0  0  0  0  0  0  0  0  0  0
   10.5394   -9.0701    0.0000 C   0  0  0  0  0  0  0  0  0  0  0  0
   11.2443   -8.6615    0.0000 C   0  0  0  0  0  0  0  0  0  0  0  0
   11.2443   -7.8443    0.0000 C   0  0  0  0  0  0  0  0  0  0  0  0
   10.5394   -7.4357    0.0000 C   0  0  0  0  0  0  0  0  0  0  0  0
    9.1212   -4.9800    0.0000 C   0  0  0  0  0  0  0  0  0  0  0  0
    9.8303   -5.3927    0.0000 C   0  0  0  0  0  0  0  0  0  0  0  0
   10.5394   -4.9800    0.0000 C   0  0  0  0  0  0  0  0  0  0  0  0
   10.5394   -4.1628    0.0000 C   0  0  0  0  0  0  0  0  0  0  0  0
    9.8303   -3.7542    0.0000 C   0  0  0  0  0  0  0  0  0  0  0  0
    9.1212   -4.1628    0.0000 C   0  0  0  0  0  0  0  0  0  0  0  0
   11.2443   -3.7542    0.0000 O   0  0  0  0  0  0  0  0  0  0  0  0
   11.2443   -2.9370    0.0000 C   0  0  0  0  0  0  0  0  0  0  0  0
   11.2443   -5.3927    0.0000 O   0  0  0  0  0  0  0  0  0  0  0  0
   11.9534   -4.9800    0.0000 C   0  0  0  0  0  0  0  0  0  0  0  0
  1  2  2  0
  2  3  1  0
  3  4  2  0
  4  5  1  0
  5  6  2  0
  1  6  1  0
  7  8  2  0
  8  9  1  0
  9 10  2  0
  3 10  1  0
  4  7  1  0
  5 11  1  0
 12 13  2  0
 13 14  1  0
 14 15  2  0
 15 16  1  0
 16 17  2  0
 12 17  1  0
  1 12  1  0
 18 19  2  0
 19 20  1  0
 20 21  2  0
 21 22  1  0
 22 23  2  0
 18 23  1  0
 24 25  1  0
 21 24  1  0
 26 27  1  0
 20 26  1  0
 11 18  1  0
M  END
>  <Classification>  (318) 
1

>  <pchembl>  (318) 
6.46

>  <InChI_steorem>  (318) 
InChI=1S/C21H18N4O2/c1-26-17-11-10-15(13-18(17)27-2)23-21-16-9-6-12-22-20(16)24-19(25-21)14-7-4-3-5-8-14/h3-13H,1-2H3,(H,22,23,24,25)

>  <source>  (318) 
ChEMBL25

>  <source_id>  (318) 
25

>  <optional_reference>  (318) 
10.1021/acs.jmedchem.7b01012

>  <optional_origin>  (318) 
None

>  <target>  (318) 
BCRP

$$$$

     RDKit          2D

 29 31  0  0  0  0  0  0  0  0999 V2000
    8.1223  -12.8025    0.0000 C   0  0  0  0  0  0  0  0  0  0  0  0
    7.4145  -13.2163    0.0000 C   0  0  0  0  0  0  0  0  0  0  0  0
    7.4213  -14.0335    0.0000 C   0  0  0  0  0  0  0  0  0  0  0  0
    6.7177  -14.4473    0.0000 C   0  0  0  0  0  0  0  0  0  0  0  0
    6.0073  -14.0482    0.0000 C   0  0  0  0  0  0  0  0  0  0  0  0
    6.0006  -13.2310    0.0000 C   0  0  0  0  0  0  0  0  0  0  0  0
    6.7042  -12.8130    0.0000 C   0  0  0  0  0  0  0  0  0  0  0  0
    8.8326  -13.2057    0.0000 O   0  0  0  0  0  0  0  0  0  0  0  0
    8.1114  -11.9853    0.0000 N   0  0  0  0  0  0  0  0  0  0  0  0
    8.8191  -11.5714    0.0000 C   0  0  0  0  0  0  0  0  0  0  0  0
    8.8083  -10.7543    0.0000 C   0  0  0  0  0  0  0  0  0  0  0  0
    9.5160  -10.3363    0.0000 C   0  0  0  0  0  0  0  0  0  0  0  0
   10.2264  -10.7396    0.0000 C   0  0  0  0  0  0  0  0  0  0  0  0
   10.2331  -11.5567    0.0000 C   0  0  0  0  0  0  0  0  0  0  0  0
    9.5295  -11.9706    0.0000 C   0  0  0  0  0  0  0  0  0  0  0  0
   10.9300  -10.3257    0.0000 C   0  0  0  0  0  0  0  0  0  0  0  0
   10.9232   -9.5086    0.0000 C   0  0  0  0  0  0  0  0  0  0  0  0
   11.6268   -9.0947    0.0000 C   0  0  0  0  0  0  0  0  0  0  0  0
    8.1425  -15.2539    0.0000 C   0  0  0  0  0  0  0  0  0  0  0  0
    8.8529  -15.6572    0.0000 C   0  0  0  0  0  0  0  0  0  0  0  0
    9.5565  -15.2392    0.0000 C   0  0  0  0  0  0  0  0  0  0  0  0
   10.2669  -15.6425    0.0000 C   0  0  0  0  0  0  0  0  0  0  0  0
   10.2736  -16.4596    0.0000 C   0  0  0  0  0  0  0  0  0  0  0  0
    9.5700  -16.8735    0.0000 C   0  0  0  0  0  0  0  0  0  0  0  0
    8.8596  -16.4743    0.0000 C   0  0  0  0  0  0  0  0  0  0  0  0
    7.4389  -15.6677    0.0000 O   0  0  0  0  0  0  0  0  0  0  0  0
    8.1358  -14.4367    0.0000 N   0  0  0  0  0  0  0  0  0  0  0  0
   10.9881  -16.8629    0.0000 O   0  0  0  0  0  0  0  0  0  0  0  0
   10.9948  -17.6800    0.0000 C   0  0  0  0  0  0  0  0  0  0  0  0
  1  2  1  0
  2  3  1  0
  3  4  2  0
  4  5  1  0
  5  6  2  0
  6  7  1  0
  2  7  2  0
  1  8  2  0
  1  9  1  0
 10 11  2  0
 11 12  1  0
 12 13  2  0
 13 14  1  0
 14 15  2  0
 10 15  1  0
 16 17  1  0
 17 18  1  0
 13 16  1  0
  9 10  1  0
 19 20  1  0
 20 21  2  0
 21 22  1  0
 22 23  2  0
 23 24  1  0
 24 25  2  0
 20 25  1  0
 19 26  2  0
 19 27  1  0
 28 29  1  0
 23 28  1  0
  3 27  1  0
M  END
>  <Classification>  (319) 
1

>  <pchembl>  (319) 
5.78

>  <InChI_steorem>  (319) 
InChI=1S/C24H24N2O3/c1-3-6-17-9-13-19(14-10-17)25-24(28)21-7-4-5-8-22(21)26-23(27)18-11-15-20(29-2)16-12-18/h4-5,7-16H,3,6H2,1-2H3,(H,25,28)(H,26,27)

>  <source>  (319) 
ChEMBL25

>  <source_id>  (319) 
25

>  <optional_reference>  (319) 
10.1016/j.bmcl.2017.09.009

>  <optional_origin>  (319) 
None

>  <target>  (319) 
BCRP

$$$$

     RDKit          2D

 25 28  0  0  0  0  0  0  0  0999 V2000
   20.3706  -12.5550    0.0000 C   0  0  0  0  0  0  0  0  0  0  0  0
   20.3694  -13.3745    0.0000 C   0  0  0  0  0  0  0  0  0  0  0  0
   21.0775  -13.7835    0.0000 C   0  0  0  0  0  0  0  0  0  0  0  0
   21.0757  -12.1461    0.0000 C   0  0  0  0  0  0  0  0  0  0  0  0
   21.7843  -12.5514    0.0000 C   0  0  0  0  0  0  0  0  0  0  0  0
   21.7851  -13.3704    0.0000 C   0  0  0  0  0  0  0  0  0  0  0  0
   22.4936  -13.7775    0.0000 N   0  0  0  0  0  0  0  0  0  0  0  0
   23.2019  -13.3667    0.0000 C   0  0  0  0  0  0  0  0  0  0  0  0
   23.1971  -12.5445    0.0000 N   0  0  0  0  0  0  0  0  0  0  0  0
   22.4880  -12.1412    0.0000 C   0  0  0  0  0  0  0  0  0  0  0  0
   22.4837  -11.3240    0.0000 N   0  0  0  0  0  0  0  0  0  0  0  0
   23.1892  -10.9116    0.0000 C   0  0  0  0  0  0  0  0  0  0  0  0
   23.8945  -11.3199    0.0000 C   0  0  0  0  0  0  0  0  0  0  0  0
   24.5996  -10.9082    0.0000 C   0  0  0  0  0  0  0  0  0  0  0  0
   24.5957  -10.0901    0.0000 C   0  0  0  0  0  0  0  0  0  0  0  0
   23.8808   -9.6855    0.0000 C   0  0  0  0  0  0  0  0  0  0  0  0
   23.1787  -10.0995    0.0000 C   0  0  0  0  0  0  0  0  0  0  0  0
   23.9076  -13.7684    0.0000 C   0  0  0  0  0  0  0  0  0  0  0  0
   23.9095  -14.5867    0.0000 C   0  0  0  0  0  0  0  0  0  0  0  0
   24.6179  -14.9925    0.0000 N   0  0  0  0  0  0  0  0  0  0  0  0
   25.3250  -14.5811    0.0000 C   0  0  0  0  0  0  0  0  0  0  0  0
   25.3192  -13.7597    0.0000 C   0  0  0  0  0  0  0  0  0  0  0  0
   24.6102  -13.3576    0.0000 C   0  0  0  0  0  0  0  0  0  0  0  0
   25.2985   -9.6748    0.0000 C   0  0  0  0  0  0  0  0  0  0  0  0
   26.0035   -9.2615    0.0000 N   0  0  0  0  0  0  0  0  0  0  0  0
  1  2  2  0
  2  3  1  0
  3  6  2  0
  5  4  2  0
  4  1  1  0
  5  6  1  0
  6  7  1  0
  7  8  2  0
  8  9  1  0
  9 10  2  0
 10  5  1  0
 10 11  1  0
 11 12  1  0
 12 13  2  0
 13 14  1  0
 14 15  2  0
 15 16  1  0
 16 17  2  0
 17 12  1  0
 18 19  2  0
 19 20  1  0
 20 21  2  0
 21 22  1  0
 22 23  2  0
 23 18  1  0
  8 18  1  0
 24 25  3  0
 15 24  1  0
M  END
>  <Classification>  (320) 
1

>  <pchembl>  (320) 
6.78

>  <InChI_steorem>  (320) 
InChI=1S/C20H13N5/c21-12-14-7-9-16(10-8-14)23-20-17-5-1-2-6-18(17)24-19(25-20)15-4-3-11-22-13-15/h1-11,13H,(H,23,24,25)

>  <source>  (320) 
ChEMBL25

>  <source_id>  (320) 
25

>  <optional_reference>  (320) 
10.1021/acs.jmedchem.7b00441

>  <optional_origin>  (320) 
None

>  <target>  (320) 
BCRP

$$$$

     RDKit          2D

 26 29  0  0  0  0  0  0  0  0999 V2000
    2.2809  -20.5247    0.0000 C   0  0  0  0  0  0  0  0  0  0  0  0
    2.2798  -21.3442    0.0000 C   0  0  0  0  0  0  0  0  0  0  0  0
    2.9878  -21.7532    0.0000 C   0  0  0  0  0  0  0  0  0  0  0  0
    2.9861  -20.1158    0.0000 C   0  0  0  0  0  0  0  0  0  0  0  0
    3.6947  -20.5211    0.0000 C   0  0  0  0  0  0  0  0  0  0  0  0
    3.6954  -21.3401    0.0000 C   0  0  0  0  0  0  0  0  0  0  0  0
    4.4040  -21.7471    0.0000 N   0  0  0  0  0  0  0  0  0  0  0  0
    5.1122  -21.3363    0.0000 C   0  0  0  0  0  0  0  0  0  0  0  0
    5.1075  -20.5142    0.0000 N   0  0  0  0  0  0  0  0  0  0  0  0
    4.3984  -20.1108    0.0000 C   0  0  0  0  0  0  0  0  0  0  0  0
    4.3941  -19.2937    0.0000 N   0  0  0  0  0  0  0  0  0  0  0  0
    5.0996  -18.8813    0.0000 C   0  0  0  0  0  0  0  0  0  0  0  0
    5.8049  -19.2895    0.0000 C   0  0  0  0  0  0  0  0  0  0  0  0
    6.5099  -18.8779    0.0000 C   0  0  0  0  0  0  0  0  0  0  0  0
    6.5060  -18.0598    0.0000 C   0  0  0  0  0  0  0  0  0  0  0  0
    5.7912  -17.6552    0.0000 C   0  0  0  0  0  0  0  0  0  0  0  0
    5.0891  -18.0692    0.0000 C   0  0  0  0  0  0  0  0  0  0  0  0
    5.8180  -21.7381    0.0000 C   0  0  0  0  0  0  0  0  0  0  0  0
    5.8198  -22.5564    0.0000 C   0  0  0  0  0  0  0  0  0  0  0  0
    6.5283  -22.9622    0.0000 C   0  0  0  0  0  0  0  0  0  0  0  0
    7.2354  -22.5508    0.0000 N   0  0  0  0  0  0  0  0  0  0  0  0
    7.2295  -21.7294    0.0000 C   0  0  0  0  0  0  0  0  0  0  0  0
    6.5205  -21.3273    0.0000 C   0  0  0  0  0  0  0  0  0  0  0  0
    5.7839  -16.8342    0.0000 N   0  0  0  0  0  0  0  0  0  0  0  0
    5.0727  -16.4318    0.0000 O   0  0  0  0  0  0  0  0  0  0  0  0
    6.4880  -16.4193    0.0000 O   0  0  0  0  0  0  0  0  0  0  0  0
  1  2  2  0
  2  3  1  0
  3  6  2  0
  5  4  2  0
  4  1  1  0
  5  6  1  0
  6  7  1  0
  7  8  2  0
  8  9  1  0
  9 10  2  0
 10  5  1  0
 10 11  1  0
 11 12  1  0
 12 13  2  0
 13 14  1  0
 14 15  2  0
 15 16  1  0
 16 17  2  0
 17 12  1  0
 18 19  2  0
 19 20  1  0
 20 21  2  0
 21 22  1  0
 22 23  2  0
 23 18  1  0
  8 18  1  0
 24 25  2  0
 24 26  1  0
 16 24  1  0
M  CHG  2  24   1  26  -1
M  END
>  <Classification>  (321) 
1

>  <pchembl>  (321) 
6.93

>  <InChI_steorem>  (321) 
InChI=1S/C19H13N5O2/c25-24(26)15-5-3-4-14(12-15)21-19-16-6-1-2-7-17(16)22-18(23-19)13-8-10-20-11-9-13/h1-12H,(H,21,22,23)

>  <source>  (321) 
ChEMBL25

>  <source_id>  (321) 
25

>  <optional_reference>  (321) 
10.1021/acs.jmedchem.7b00441

>  <optional_origin>  (321) 
None

>  <target>  (321) 
BCRP

$$$$

     RDKit          2D

 27 30  0  0  0  0  0  0  0  0999 V2000
    2.0581  -20.0831    0.0000 C   0  0  0  0  0  0  0  0  0  0  0  0
    2.0569  -20.9026    0.0000 C   0  0  0  0  0  0  0  0  0  0  0  0
    2.7650  -21.3116    0.0000 C   0  0  0  0  0  0  0  0  0  0  0  0
    2.7632  -19.6742    0.0000 C   0  0  0  0  0  0  0  0  0  0  0  0
    3.4718  -20.0795    0.0000 C   0  0  0  0  0  0  0  0  0  0  0  0
    3.4726  -20.8985    0.0000 C   0  0  0  0  0  0  0  0  0  0  0  0
    4.1811  -21.3055    0.0000 N   0  0  0  0  0  0  0  0  0  0  0  0
    4.8894  -20.8947    0.0000 C   0  0  0  0  0  0  0  0  0  0  0  0
    4.8846  -20.0726    0.0000 N   0  0  0  0  0  0  0  0  0  0  0  0
    4.1755  -19.6692    0.0000 C   0  0  0  0  0  0  0  0  0  0  0  0
    4.1712  -18.8520    0.0000 N   0  0  0  0  0  0  0  0  0  0  0  0
    4.8767  -18.4397    0.0000 C   0  0  0  0  0  0  0  0  0  0  0  0
    5.5820  -18.8479    0.0000 C   0  0  0  0  0  0  0  0  0  0  0  0
    6.2871  -18.4363    0.0000 C   0  0  0  0  0  0  0  0  0  0  0  0
    6.2832  -17.6182    0.0000 C   0  0  0  0  0  0  0  0  0  0  0  0
    5.5683  -17.2136    0.0000 C   0  0  0  0  0  0  0  0  0  0  0  0
    4.8662  -17.6276    0.0000 C   0  0  0  0  0  0  0  0  0  0  0  0
    5.5951  -21.2965    0.0000 C   0  0  0  0  0  0  0  0  0  0  0  0
    5.5969  -22.1148    0.0000 C   0  0  0  0  0  0  0  0  0  0  0  0
    6.3054  -22.5205    0.0000 C   0  0  0  0  0  0  0  0  0  0  0  0
    7.0125  -22.1091    0.0000 N   0  0  0  0  0  0  0  0  0  0  0  0
    7.0067  -21.2877    0.0000 C   0  0  0  0  0  0  0  0  0  0  0  0
    6.2976  -20.8857    0.0000 C   0  0  0  0  0  0  0  0  0  0  0  0
    5.5611  -16.3964    0.0000 O   0  0  0  0  0  0  0  0  0  0  0  0
    6.2652  -15.9816    0.0000 C   0  0  0  0  0  0  0  0  0  0  0  0
    6.9881  -17.2049    0.0000 O   0  0  0  0  0  0  0  0  0  0  0  0
    7.6985  -17.6088    0.0000 C   0  0  0  0  0  0  0  0  0  0  0  0
  1  2  2  0
  2  3  1  0
  3  6  2  0
  5  4  2  0
  4  1  1  0
  5  6  1  0
  6  7  1  0
  7  8  2  0
  8  9  1  0
  9 10  2  0
 10  5  1  0
 10 11  1  0
 11 12  1  0
 12 13  2  0
 13 14  1  0
 14 15  2  0
 15 16  1  0
 16 17  2  0
 17 12  1  0
 18 19  2  0
 19 20  1  0
 20 21  2  0
 21 22  1  0
 22 23  2  0
 23 18  1  0
  8 18  1  0
 16 24  1  0
 24 25  1  0
 15 26  1  0
 26 27  1  0
M  END
>  <Classification>  (322) 
1

>  <pchembl>  (322) 
6.26

>  <InChI_steorem>  (322) 
InChI=1S/C21H18N4O2/c1-26-18-8-7-15(13-19(18)27-2)23-21-16-5-3-4-6-17(16)24-20(25-21)14-9-11-22-12-10-14/h3-13H,1-2H3,(H,23,24,25)

>  <source>  (322) 
ChEMBL25

>  <source_id>  (322) 
25

>  <optional_reference>  (322) 
10.1021/acs.jmedchem.7b00441

>  <optional_origin>  (322) 
None

>  <target>  (322) 
BCRP

$$$$

     RDKit          2D

 27 30  0  0  0  0  0  0  0  0999 V2000
    2.0581   -4.5523    0.0000 C   0  0  0  0  0  0  0  0  0  0  0  0
    2.0569   -5.3718    0.0000 C   0  0  0  0  0  0  0  0  0  0  0  0
    2.7650   -5.7808    0.0000 C   0  0  0  0  0  0  0  0  0  0  0  0
    2.7632   -4.1434    0.0000 C   0  0  0  0  0  0  0  0  0  0  0  0
    3.4718   -4.5487    0.0000 C   0  0  0  0  0  0  0  0  0  0  0  0
    3.4726   -5.3677    0.0000 C   0  0  0  0  0  0  0  0  0  0  0  0
    4.1811   -5.7748    0.0000 N   0  0  0  0  0  0  0  0  0  0  0  0
    4.8894   -5.3640    0.0000 C   0  0  0  0  0  0  0  0  0  0  0  0
    4.8846   -4.5418    0.0000 N   0  0  0  0  0  0  0  0  0  0  0  0
    4.1755   -4.1385    0.0000 C   0  0  0  0  0  0  0  0  0  0  0  0
    4.1712   -3.3213    0.0000 N   0  0  0  0  0  0  0  0  0  0  0  0
    4.8767   -2.9089    0.0000 C   0  0  0  0  0  0  0  0  0  0  0  0
    5.5820   -3.3172    0.0000 C   0  0  0  0  0  0  0  0  0  0  0  0
    6.2871   -2.9055    0.0000 C   0  0  0  0  0  0  0  0  0  0  0  0
    6.2832   -2.0874    0.0000 C   0  0  0  0  0  0  0  0  0  0  0  0
    5.5683   -1.6828    0.0000 C   0  0  0  0  0  0  0  0  0  0  0  0
    4.8662   -2.0968    0.0000 C   0  0  0  0  0  0  0  0  0  0  0  0
    5.5951   -5.7657    0.0000 C   0  0  0  0  0  0  0  0  0  0  0  0
    5.5969   -6.5840    0.0000 N   0  0  0  0  0  0  0  0  0  0  0  0
    6.3054   -6.9898    0.0000 C   0  0  0  0  0  0  0  0  0  0  0  0
    7.0125   -6.5784    0.0000 C   0  0  0  0  0  0  0  0  0  0  0  0
    7.0067   -5.7570    0.0000 C   0  0  0  0  0  0  0  0  0  0  0  0
    6.2976   -5.3549    0.0000 C   0  0  0  0  0  0  0  0  0  0  0  0
    5.5611   -0.8656    0.0000 O   0  0  0  0  0  0  0  0  0  0  0  0
    6.2652   -0.4508    0.0000 C   0  0  0  0  0  0  0  0  0  0  0  0
    6.9881   -1.6742    0.0000 O   0  0  0  0  0  0  0  0  0  0  0  0
    7.6985   -2.0781    0.0000 C   0  0  0  0  0  0  0  0  0  0  0  0
  1  2  2  0
  2  3  1  0
  3  6  2  0
  5  4  2  0
  4  1  1  0
  5  6  1  0
  6  7  1  0
  7  8  2  0
  8  9  1  0
  9 10  2  0
 10  5  1  0
 10 11  1  0
 11 12  1  0
 12 13  2  0
 13 14  1  0
 14 15  2  0
 15 16  1  0
 16 17  2  0
 17 12  1  0
 18 19  2  0
 19 20  1  0
 20 21  2  0
 21 22  1  0
 22 23  2  0
 23 18  1  0
  8 18  1  0
 16 24  1  0
 24 25  1  0
 15 26  1  0
 26 27  1  0
M  END
>  <Classification>  (323) 
1

>  <pchembl>  (323) 
5.97

>  <InChI_steorem>  (323) 
InChI=1S/C21H18N4O2/c1-26-18-11-10-14(13-19(18)27-2)23-20-15-7-3-4-8-16(15)24-21(25-20)17-9-5-6-12-22-17/h3-13H,1-2H3,(H,23,24,25)

>  <source>  (323) 
ChEMBL25

>  <source_id>  (323) 
25

>  <optional_reference>  (323) 
10.1021/acs.jmedchem.7b00441

>  <optional_origin>  (323) 
None

>  <target>  (323) 
BCRP

$$$$

     RDKit          2D

 24 27  0  0  0  0  0  0  0  0999 V2000
    7.7316   -6.5004    0.0000 C   0  0  0  0  0  0  0  0  0  0  0  0
    7.0226   -6.9090    0.0000 N   0  0  0  0  0  0  0  0  0  0  0  0
    6.3176   -6.5004    0.0000 C   0  0  0  0  0  0  0  0  0  0  0  0
    6.3176   -5.6832    0.0000 C   0  0  0  0  0  0  0  0  0  0  0  0
    7.0226   -5.2746    0.0000 C   0  0  0  0  0  0  0  0  0  0  0  0
    7.7316   -5.6832    0.0000 N   0  0  0  0  0  0  0  0  0  0  0  0
    5.6085   -5.2746    0.0000 C   0  0  0  0  0  0  0  0  0  0  0  0
    4.8994   -5.6832    0.0000 C   0  0  0  0  0  0  0  0  0  0  0  0
    4.8994   -6.5004    0.0000 C   0  0  0  0  0  0  0  0  0  0  0  0
    5.6085   -6.9090    0.0000 N   0  0  0  0  0  0  0  0  0  0  0  0
    7.0226   -4.4533    0.0000 N   0  0  0  0  0  0  0  0  0  0  0  0
    9.1457   -6.5004    0.0000 C   0  0  0  0  0  0  0  0  0  0  0  0
    8.4366   -6.9090    0.0000 C   0  0  0  0  0  0  0  0  0  0  0  0
    8.4366   -7.7262    0.0000 C   0  0  0  0  0  0  0  0  0  0  0  0
    9.1457   -8.1348    0.0000 C   0  0  0  0  0  0  0  0  0  0  0  0
    9.8548   -7.7262    0.0000 C   0  0  0  0  0  0  0  0  0  0  0  0
    9.8548   -6.9090    0.0000 N   0  0  0  0  0  0  0  0  0  0  0  0
    7.7316   -4.0447    0.0000 C   0  0  0  0  0  0  0  0  0  0  0  0
    8.4366   -4.4533    0.0000 C   0  0  0  0  0  0  0  0  0  0  0  0
    9.1457   -4.0447    0.0000 C   0  0  0  0  0  0  0  0  0  0  0  0
    9.1457   -3.2275    0.0000 C   0  0  0  0  0  0  0  0  0  0  0  0
    8.4366   -2.8230    0.0000 C   0  0  0  0  0  0  0  0  0  0  0  0
    7.7316   -3.2316    0.0000 C   0  0  0  0  0  0  0  0  0  0  0  0
    9.8548   -4.4533    0.0000 F   0  0  0  0  0  0  0  0  0  0  0  0
  1  2  2  0
  2  3  1  0
  3  4  2  0
  4  5  1  0
  5  6  2  0
  1  6  1  0
  7  8  2  0
  8  9  1  0
  9 10  2  0
  3 10  1  0
  4  7  1  0
  5 11  1  0
 12 13  2  0
 13 14  1  0
 14 15  2  0
 15 16  1  0
 16 17  2  0
 12 17  1  0
  1 13  1  0
 18 19  2  0
 19 20  1  0
 20 21  2  0
 21 22  1  0
 22 23  2  0
 18 23  1  0
 20 24  1  0
 11 18  1  0
M  END
>  <Classification>  (324) 
1

>  <pchembl>  (324) 
5.91

>  <InChI_steorem>  (324) 
InChI=1S/C18H12FN5/c19-13-5-1-6-14(10-13)22-18-15-7-3-9-21-17(15)23-16(24-18)12-4-2-8-20-11-12/h1-11H,(H,21,22,23,24)

>  <source>  (324) 
ChEMBL25

>  <source_id>  (324) 
25

>  <optional_reference>  (324) 
10.1021/acs.jmedchem.7b01012

>  <optional_origin>  (324) 
None

>  <target>  (324) 
BCRP

$$$$

     RDKit          2D

 22 24  0  0  0  0  0  0  0  0999 V2000
   24.2607  -13.5708    0.0000 C   0  0  0  0  0  0  0  0  0  0  0  0
   24.2614  -14.3898    0.0000 C   0  0  0  0  0  0  0  0  0  0  0  0
   24.9699  -14.7969    0.0000 N   0  0  0  0  0  0  0  0  0  0  0  0
   25.6782  -14.3861    0.0000 C   0  0  0  0  0  0  0  0  0  0  0  0
   25.6735  -13.5639    0.0000 N   0  0  0  0  0  0  0  0  0  0  0  0
   24.9644  -13.1606    0.0000 C   0  0  0  0  0  0  0  0  0  0  0  0
   24.9600  -12.3434    0.0000 N   0  0  0  0  0  0  0  0  0  0  0  0
   25.6656  -11.9311    0.0000 C   0  0  0  0  0  0  0  0  0  0  0  0
   26.3709  -12.3393    0.0000 C   0  0  0  0  0  0  0  0  0  0  0  0
   27.0759  -11.9276    0.0000 C   0  0  0  0  0  0  0  0  0  0  0  0
   27.0720  -11.1096    0.0000 C   0  0  0  0  0  0  0  0  0  0  0  0
   26.3572  -10.7049    0.0000 C   0  0  0  0  0  0  0  0  0  0  0  0
   25.6550  -11.1189    0.0000 C   0  0  0  0  0  0  0  0  0  0  0  0
   26.3839  -14.7878    0.0000 C   0  0  0  0  0  0  0  0  0  0  0  0
   26.3858  -15.6061    0.0000 C   0  0  0  0  0  0  0  0  0  0  0  0
   27.0942  -16.0119    0.0000 C   0  0  0  0  0  0  0  0  0  0  0  0
   27.8013  -15.6005    0.0000 N   0  0  0  0  0  0  0  0  0  0  0  0
   27.7955  -14.7791    0.0000 C   0  0  0  0  0  0  0  0  0  0  0  0
   27.0865  -14.3770    0.0000 C   0  0  0  0  0  0  0  0  0  0  0  0
   23.5543  -14.7995    0.0000 C   0  0  0  0  0  0  0  0  0  0  0  0
   27.7849  -12.3316    0.0000 C   0  0  0  0  0  0  0  0  0  0  0  0
   28.4946  -12.7368    0.0000 N   0  0  0  0  0  0  0  0  0  0  0  0
  1  2  2  0
  2  3  1  0
  3  4  2  0
  4  5  1  0
  5  6  2  0
  6  1  1  0
  6  7  1  0
  7  8  1  0
  8  9  2  0
  9 10  1  0
 10 11  2  0
 11 12  1  0
 12 13  2  0
 13  8  1  0
 14 15  2  0
 15 16  1  0
 16 17  2  0
 17 18  1  0
 18 19  2  0
 19 14  1  0
  4 14  1  0
  2 20  1  0
 21 22  3  0
 10 21  1  0
M  END
>  <Classification>  (325) 
1

>  <pchembl>  (325) 
6.88

>  <InChI_steorem>  (325) 
InChI=1S/C17H13N5/c1-12-9-16(21-15-4-2-3-13(10-15)11-18)22-17(20-12)14-5-7-19-8-6-14/h2-10H,1H3,(H,20,21,22)

>  <source>  (325) 
ChEMBL25

>  <source_id>  (325) 
25

>  <optional_reference>  (325) 
10.1021/acs.jmedchem.7b00441

>  <optional_origin>  (325) 
None

>  <target>  (325) 
BCRP

$$$$

     RDKit          2D

 32 35  0  0  0  0  0  0  0  0999 V2000
   32.1234  -11.5926    0.0000 N   0  0  0  0  0  0  0  0  0  0  0  0
   32.1296  -12.4098    0.0000 C   0  0  0  0  0  0  0  0  0  0  0  0
   32.8377  -12.8130    0.0000 O   0  0  0  0  0  0  0  0  0  0  0  0
   31.4237  -12.8197    0.0000 N   0  0  0  0  0  0  0  0  0  0  0  0
   31.4257  -13.6368    0.0000 C   0  0  0  0  0  0  0  0  0  0  0  0
   30.7239  -14.0508    0.0000 C   0  0  0  0  0  0  0  0  0  0  0  0
   30.7260  -14.8680    0.0000 C   0  0  0  0  0  0  0  0  0  0  0  0
   31.4340  -15.2712    0.0000 C   0  0  0  0  0  0  0  0  0  0  0  0
   32.1400  -14.8613    0.0000 C   0  0  0  0  0  0  0  0  0  0  0  0
   32.1379  -14.0442    0.0000 C   0  0  0  0  0  0  0  0  0  0  0  0
   31.4402  -16.0884    0.0000 N   0  0  0  0  0  0  0  0  0  0  0  0
   30.7343  -16.5023    0.0000 O   0  0  0  0  0  0  0  0  0  0  0  0
   32.1483  -16.4957    0.0000 O   0  0  0  0  0  0  0  0  0  0  0  0
   31.4154  -11.1853    0.0000 C   0  0  0  0  0  0  0  0  0  0  0  0
   31.4133  -10.3681    0.0000 C   0  0  0  0  0  0  0  0  0  0  0  0
   30.7011   -9.9649    0.0000 C   0  0  0  0  0  0  0  0  0  0  0  0
   29.9951  -10.3748    0.0000 C   0  0  0  0  0  0  0  0  0  0  0  0
   30.0013  -11.1919    0.0000 C   0  0  0  0  0  0  0  0  0  0  0  0
   30.7094  -11.5993    0.0000 C   0  0  0  0  0  0  0  0  0  0  0  0
   32.8649  -10.2829    0.0000 N   0  0  0  0  0  0  0  0  0  0  0  0
   33.4082   -9.6764    0.0000 N   0  0  0  0  0  0  0  0  0  0  0  0
   32.9983   -8.9704    0.0000 N   0  0  0  0  0  0  0  0  0  0  0  0
   32.1971   -9.1431    0.0000 N   0  0  0  0  0  0  0  0  0  0  0  0
   32.1151   -9.9583    0.0000 C   0  0  0  0  0  0  0  0  0  0  0  0
   34.2233   -9.7542    0.0000 C   0  0  0  0  0  0  0  0  0  0  0  0
   34.5593  -10.5031    0.0000 C   0  0  0  0  0  0  0  0  0  0  0  0
   35.3744  -10.5810    0.0000 C   0  0  0  0  0  0  0  0  0  0  0  0
   35.8495   -9.9182    0.0000 C   0  0  0  0  0  0  0  0  0  0  0  0
   35.5136   -9.1734    0.0000 C   0  0  0  0  0  0  0  0  0  0  0  0
   34.6984   -9.0915    0.0000 C   0  0  0  0  0  0  0  0  0  0  0  0
   35.7062  -11.3257    0.0000 O   0  0  0  0  0  0  0  0  0  0  0  0
   36.5214  -11.4077    0.0000 C   0  0  0  0  0  0  0  0  0  0  0  0
  1  2  1  0
  2  3  2  0
  2  4  1  0
  5  6  2  0
  6  7  1  0
  7  8  2  0
  8  9  1  0
  9 10  2  0
  5 10  1  0
 11 12  2  0
 11 13  1  0
  8 11  1  0
  4  5  1  0
 14 15  1  0
 15 16  2  0
 16 17  1  0
 17 18  2  0
 18 19  1  0
 14 19  2  0
 20 21  1  0
 21 22  1  0
 22 23  2  0
 23 24  1  0
 20 24  2  0
 25 26  2  0
 26 27  1  0
 27 28  2  0
 28 29  1  0
 29 30  2  0
 25 30  1  0
 31 32  1  0
 27 31  1  0
 21 25  1  0
 15 24  1  0
  1 14  1  0
M  CHG  2  11   1  13  -1
M  END
>  <Classification>  (326) 
1

>  <pchembl>  (326) 
6.39

>  <InChI_steorem>  (326) 
InChI=1S/C21H17N7O4/c1-32-17-6-4-5-16(13-17)27-25-20(24-26-27)18-7-2-3-8-19(18)23-21(29)22-14-9-11-15(12-10-14)28(30)31/h2-13H,1H3,(H2,22,23,29)

>  <source>  (326) 
ChEMBL25

>  <source_id>  (326) 
25

>  <optional_reference>  (326) 
10.1016/j.bmcl.2017.09.009

>  <optional_origin>  (326) 
None

>  <target>  (326) 
BCRP

$$$$

     RDKit          2D

 27 30  0  0  0  0  0  0  0  0999 V2000
    3.2343  -12.6623    0.0000 C   0  0  0  0  0  0  0  0  0  0  0  0
    3.2332  -13.4818    0.0000 C   0  0  0  0  0  0  0  0  0  0  0  0
    3.9412  -13.8908    0.0000 C   0  0  0  0  0  0  0  0  0  0  0  0
    3.9394  -12.2534    0.0000 C   0  0  0  0  0  0  0  0  0  0  0  0
    4.6481  -12.6587    0.0000 C   0  0  0  0  0  0  0  0  0  0  0  0
    4.6488  -13.4777    0.0000 C   0  0  0  0  0  0  0  0  0  0  0  0
    5.3574  -13.8848    0.0000 N   0  0  0  0  0  0  0  0  0  0  0  0
    6.0656  -13.4740    0.0000 C   0  0  0  0  0  0  0  0  0  0  0  0
    6.0609  -12.6518    0.0000 N   0  0  0  0  0  0  0  0  0  0  0  0
    5.3518  -12.2485    0.0000 C   0  0  0  0  0  0  0  0  0  0  0  0
    5.3474  -11.4313    0.0000 N   0  0  0  0  0  0  0  0  0  0  0  0
    6.0530  -11.0189    0.0000 C   0  0  0  0  0  0  0  0  0  0  0  0
    6.7583  -11.4272    0.0000 C   0  0  0  0  0  0  0  0  0  0  0  0
    7.4633  -11.0155    0.0000 C   0  0  0  0  0  0  0  0  0  0  0  0
    7.4594  -10.1974    0.0000 C   0  0  0  0  0  0  0  0  0  0  0  0
    6.7446   -9.7928    0.0000 C   0  0  0  0  0  0  0  0  0  0  0  0
    6.0425  -10.2068    0.0000 C   0  0  0  0  0  0  0  0  0  0  0  0
    6.7714  -13.8757    0.0000 C   0  0  0  0  0  0  0  0  0  0  0  0
    6.7732  -14.6940    0.0000 C   0  0  0  0  0  0  0  0  0  0  0  0
    7.4817  -15.0998    0.0000 N   0  0  0  0  0  0  0  0  0  0  0  0
    8.1887  -14.6884    0.0000 C   0  0  0  0  0  0  0  0  0  0  0  0
    8.1829  -13.8670    0.0000 C   0  0  0  0  0  0  0  0  0  0  0  0
    7.4739  -13.4649    0.0000 C   0  0  0  0  0  0  0  0  0  0  0  0
    8.1644   -9.7842    0.0000 O   0  0  0  0  0  0  0  0  0  0  0  0
    6.7373   -8.9718    0.0000 N   0  0  0  0  0  0  0  0  0  0  0  0
    6.0260   -8.5695    0.0000 O   0  0  0  0  0  0  0  0  0  0  0  0
    7.4414   -8.5570    0.0000 O   0  0  0  0  0  0  0  0  0  0  0  0
  1  2  2  0
  2  3  1  0
  3  6  2  0
  5  4  2  0
  4  1  1  0
  5  6  1  0
  6  7  1  0
  7  8  2  0
  8  9  1  0
  9 10  2  0
 10  5  1  0
 10 11  1  0
 11 12  1  0
 12 13  2  0
 13 14  1  0
 14 15  2  0
 15 16  1  0
 16 17  2  0
 17 12  1  0
 18 19  2  0
 19 20  1  0
 20 21  2  0
 21 22  1  0
 22 23  2  0
 23 18  1  0
  8 18  1  0
 15 24  1  0
 25 26  2  0
 25 27  1  0
 16 25  1  0
M  CHG  2  25   1  27  -1
M  END
>  <Classification>  (327) 
1

>  <pchembl>  (327) 
6.61

>  <InChI_steorem>  (327) 
InChI=1S/C19H13N5O3/c25-17-8-7-13(10-16(17)24(26)27)21-19-14-5-1-2-6-15(14)22-18(23-19)12-4-3-9-20-11-12/h1-11,25H,(H,21,22,23)

>  <source>  (327) 
ChEMBL25

>  <source_id>  (327) 
25

>  <optional_reference>  (327) 
10.1021/acs.jmedchem.7b00441

>  <optional_origin>  (327) 
None

>  <target>  (327) 
BCRP

$$$$

     RDKit          2D

 26 29  0  0  0  0  0  0  0  0999 V2000
   11.0103   -4.4732    0.0000 C   0  0  0  0  0  0  0  0  0  0  0  0
   10.3012   -4.8818    0.0000 C   0  0  0  0  0  0  0  0  0  0  0  0
   10.3012   -5.6990    0.0000 C   0  0  0  0  0  0  0  0  0  0  0  0
   11.0103   -6.1076    0.0000 C   0  0  0  0  0  0  0  0  0  0  0  0
   11.7152   -5.6990    0.0000 C   0  0  0  0  0  0  0  0  0  0  0  0
   11.7152   -4.8818    0.0000 C   0  0  0  0  0  0  0  0  0  0  0  0
   11.0103   -3.6560    0.0000 O   0  0  0  0  0  0  0  0  0  0  0  0
    9.5921   -6.1076    0.0000 N   0  0  0  0  0  0  0  0  0  0  0  0
   10.3012   -8.1506    0.0000 C   0  0  0  0  0  0  0  0  0  0  0  0
    9.5921   -8.5592    0.0000 N   0  0  0  0  0  0  0  0  0  0  0  0
    8.8871   -8.1506    0.0000 C   0  0  0  0  0  0  0  0  0  0  0  0
    8.8871   -7.3334    0.0000 C   0  0  0  0  0  0  0  0  0  0  0  0
    9.5921   -6.9248    0.0000 C   0  0  0  0  0  0  0  0  0  0  0  0
   10.3012   -7.3334    0.0000 N   0  0  0  0  0  0  0  0  0  0  0  0
    8.1780   -6.9248    0.0000 C   0  0  0  0  0  0  0  0  0  0  0  0
    7.4689   -7.3334    0.0000 C   0  0  0  0  0  0  0  0  0  0  0  0
    7.4689   -8.1506    0.0000 C   0  0  0  0  0  0  0  0  0  0  0  0
    8.1780   -8.5592    0.0000 N   0  0  0  0  0  0  0  0  0  0  0  0
   11.0103   -8.5592    0.0000 C   0  0  0  0  0  0  0  0  0  0  0  0
   11.0103   -9.3764    0.0000 C   0  0  0  0  0  0  0  0  0  0  0  0
   11.7152   -9.7850    0.0000 C   0  0  0  0  0  0  0  0  0  0  0  0
   12.4243   -9.3764    0.0000 C   0  0  0  0  0  0  0  0  0  0  0  0
   12.4243   -8.5592    0.0000 C   0  0  0  0  0  0  0  0  0  0  0  0
   11.7152   -8.1506    0.0000 C   0  0  0  0  0  0  0  0  0  0  0  0
   11.7152  -10.6022    0.0000 O   0  0  0  0  0  0  0  0  0  0  0  0
   12.4243  -11.0108    0.0000 C   0  0  0  0  0  0  0  0  0  0  0  0
  1  2  2  0
  2  3  1  0
  3  4  2  0
  4  5  1  0
  5  6  2  0
  1  6  1  0
  1  7  1  0
  9 10  2  0
 10 11  1  0
 11 12  2  0
 12 13  1  0
 13 14  2  0
  9 14  1  0
 15 16  2  0
 16 17  1  0
 17 18  2  0
 11 18  1  0
 12 15  1  0
 19 20  2  0
 20 21  1  0
 21 22  2  0
 22 23  1  0
 23 24  2  0
 19 24  1  0
 25 26  1  0
 21 25  1  0
  9 19  1  0
  8 13  1  0
  3  8  1  0
M  END
>  <Classification>  (328) 
1

>  <pchembl>  (328) 
6.02

>  <InChI_steorem>  (328) 
InChI=1S/C20H16N4O2/c1-26-16-8-2-5-13(11-16)18-23-19-17(9-4-10-21-19)20(24-18)22-14-6-3-7-15(25)12-14/h2-12,25H,1H3,(H,21,22,23,24)

>  <source>  (328) 
ChEMBL25

>  <source_id>  (328) 
25

>  <optional_reference>  (328) 
10.1021/acs.jmedchem.7b01012

>  <optional_origin>  (328) 
None

>  <target>  (328) 
BCRP

$$$$

     RDKit          2D

 25 28  0  0  0  0  0  0  0  0999 V2000
    2.8299   -5.4520    0.0000 C   0  0  0  0  0  0  0  0  0  0  0  0
    2.8287   -6.2716    0.0000 C   0  0  0  0  0  0  0  0  0  0  0  0
    3.5368   -6.6805    0.0000 C   0  0  0  0  0  0  0  0  0  0  0  0
    3.5350   -5.0432    0.0000 C   0  0  0  0  0  0  0  0  0  0  0  0
    4.2436   -5.4484    0.0000 C   0  0  0  0  0  0  0  0  0  0  0  0
    4.2443   -6.2674    0.0000 C   0  0  0  0  0  0  0  0  0  0  0  0
    4.9529   -6.6745    0.0000 N   0  0  0  0  0  0  0  0  0  0  0  0
    5.6611   -6.2637    0.0000 C   0  0  0  0  0  0  0  0  0  0  0  0
    5.6564   -5.4416    0.0000 N   0  0  0  0  0  0  0  0  0  0  0  0
    4.9473   -5.0382    0.0000 C   0  0  0  0  0  0  0  0  0  0  0  0
    4.9430   -4.2210    0.0000 N   0  0  0  0  0  0  0  0  0  0  0  0
    5.6485   -3.8087    0.0000 C   0  0  0  0  0  0  0  0  0  0  0  0
    6.3538   -4.2169    0.0000 C   0  0  0  0  0  0  0  0  0  0  0  0
    7.0588   -3.8052    0.0000 C   0  0  0  0  0  0  0  0  0  0  0  0
    7.0549   -2.9872    0.0000 C   0  0  0  0  0  0  0  0  0  0  0  0
    6.3401   -2.5825    0.0000 C   0  0  0  0  0  0  0  0  0  0  0  0
    5.6380   -2.9965    0.0000 C   0  0  0  0  0  0  0  0  0  0  0  0
    6.3669   -6.6655    0.0000 C   0  0  0  0  0  0  0  0  0  0  0  0
    6.3687   -7.4837    0.0000 C   0  0  0  0  0  0  0  0  0  0  0  0
    7.0772   -7.8895    0.0000 C   0  0  0  0  0  0  0  0  0  0  0  0
    7.7843   -7.4781    0.0000 N   0  0  0  0  0  0  0  0  0  0  0  0
    7.7785   -6.6567    0.0000 C   0  0  0  0  0  0  0  0  0  0  0  0
    7.0694   -6.2546    0.0000 C   0  0  0  0  0  0  0  0  0  0  0  0
    6.3329   -1.7654    0.0000 C   0  0  0  0  0  0  0  0  0  0  0  0
    7.0370   -1.3505    0.0000 O   0  0  0  0  0  0  0  0  0  0  0  0
  1  2  2  0
  2  3  1  0
  3  6  2  0
  5  4  2  0
  4  1  1  0
  5  6  1  0
  6  7  1  0
  7  8  2  0
  8  9  1  0
  9 10  2  0
 10  5  1  0
 10 11  1  0
 11 12  1  0
 12 13  2  0
 13 14  1  0
 14 15  2  0
 15 16  1  0
 16 17  2  0
 17 12  1  0
 18 19  2  0
 19 20  1  0
 20 21  2  0
 21 22  1  0
 22 23  2  0
 23 18  1  0
  8 18  1  0
 16 24  1  0
 24 25  1  0
M  END
>  <Classification>  (329) 
1

>  <pchembl>  (329) 
6.04

>  <InChI_steorem>  (329) 
InChI=1S/C20H16N4O/c25-13-14-4-3-5-16(12-14)22-20-17-6-1-2-7-18(17)23-19(24-20)15-8-10-21-11-9-15/h1-12,25H,13H2,(H,22,23,24)

>  <source>  (329) 
ChEMBL25

>  <source_id>  (329) 
25

>  <optional_reference>  (329) 
10.1021/acs.jmedchem.7b00441

>  <optional_origin>  (329) 
None

>  <target>  (329) 
BCRP

$$$$

     RDKit          2D

 31 33  0  0  0  0  0  0  0  0999 V2000
    6.8424   -7.7632    0.0000 C   0  0  0  0  0  0  0  0  0  0  0  0
    6.1314   -8.1685    0.0000 C   0  0  0  0  0  0  0  0  0  0  0  0
    6.1276   -8.9857    0.0000 C   0  0  0  0  0  0  0  0  0  0  0  0
    5.4207   -9.3910    0.0000 C   0  0  0  0  0  0  0  0  0  0  0  0
    4.7135   -8.9791    0.0000 C   0  0  0  0  0  0  0  0  0  0  0  0
    4.7174   -8.1619    0.0000 C   0  0  0  0  0  0  0  0  0  0  0  0
    5.4284   -7.7566    0.0000 C   0  0  0  0  0  0  0  0  0  0  0  0
    7.5496   -8.1751    0.0000 O   0  0  0  0  0  0  0  0  0  0  0  0
    6.8462   -6.9460    0.0000 N   0  0  0  0  0  0  0  0  0  0  0  0
    7.5572   -6.5408    0.0000 C   0  0  0  0  0  0  0  0  0  0  0  0
    7.5610   -5.7236    0.0000 C   0  0  0  0  0  0  0  0  0  0  0  0
    8.2720   -5.3183    0.0000 C   0  0  0  0  0  0  0  0  0  0  0  0
    8.9751   -5.7302    0.0000 C   0  0  0  0  0  0  0  0  0  0  0  0
    8.9712   -6.5474    0.0000 C   0  0  0  0  0  0  0  0  0  0  0  0
    8.2644   -6.9527    0.0000 C   0  0  0  0  0  0  0  0  0  0  0  0
    9.6860   -5.3249    0.0000 C   0  0  0  0  0  0  0  0  0  0  0  0
    9.6899   -4.5077    0.0000 C   0  0  0  0  0  0  0  0  0  0  0  0
   10.4008   -4.1024    0.0000 C   0  0  0  0  0  0  0  0  0  0  0  0
    6.8348   -9.3976    0.0000 N   0  0  0  0  0  0  0  0  0  0  0  0
    6.8309  -10.2148    0.0000 C   0  0  0  0  0  0  0  0  0  0  0  0
    6.1199  -10.6200    0.0000 O   0  0  0  0  0  0  0  0  0  0  0  0
    7.5381  -10.6267    0.0000 N   0  0  0  0  0  0  0  0  0  0  0  0
    7.5343  -11.4439    0.0000 C   0  0  0  0  0  0  0  0  0  0  0  0
    8.2415  -11.8558    0.0000 C   0  0  0  0  0  0  0  0  0  0  0  0
    8.2377  -12.6729    0.0000 C   0  0  0  0  0  0  0  0  0  0  0  0
    7.5267  -13.0782    0.0000 C   0  0  0  0  0  0  0  0  0  0  0  0
    6.8195  -12.6663    0.0000 C   0  0  0  0  0  0  0  0  0  0  0  0
    6.8233  -11.8491    0.0000 C   0  0  0  0  0  0  0  0  0  0  0  0
    8.9483  -11.4505    0.0000 N   0  0  0  0  0  0  0  0  0  0  0  0
    8.9521  -10.6333    0.0000 O   0  0  0  0  0  0  0  0  0  0  0  0
    9.6555  -11.8624    0.0000 O   0  0  0  0  0  0  0  0  0  0  0  0
  1  2  1  0
  2  3  1  0
  3  4  2  0
  4  5  1  0
  5  6  2  0
  6  7  1  0
  2  7  2  0
  1  8  2  0
  1  9  1  0
 10 11  2  0
 11 12  1  0
 12 13  2  0
 13 14  1  0
 14 15  2  0
 10 15  1  0
 16 17  1  0
 17 18  1  0
 13 16  1  0
  9 10  1  0
 19 20  1  0
 20 21  2  0
 20 22  1  0
 23 24  2  0
 24 25  1  0
 25 26  2  0
 26 27  1  0
 27 28  2  0
 23 28  1  0
 29 30  2  0
 29 31  1  0
 24 29  1  0
 22 23  1  0
  3 19  1  0
M  CHG  2  29   1  31  -1
M  END
>  <Classification>  (330) 
1

>  <pchembl>  (330) 
5.95

>  <InChI_steorem>  (330) 
InChI=1S/C23H22N4O4/c1-2-7-16-12-14-17(15-13-16)24-22(28)18-8-3-4-9-19(18)25-23(29)26-20-10-5-6-11-21(20)27(30)31/h3-6,8-15H,2,7H2,1H3,(H,24,28)(H2,25,26,29)

>  <source>  (330) 
ChEMBL25

>  <source_id>  (330) 
25

>  <optional_reference>  (330) 
10.1016/j.bmcl.2017.09.009

>  <optional_origin>  (330) 
None

>  <target>  (330) 
BCRP

$$$$

     RDKit          2D

 24 27  0  0  0  0  0  0  0  0999 V2000
   22.6117   -5.0187    0.0000 C   0  0  0  0  0  0  0  0  0  0  0  0
   22.6105   -5.8423    0.0000 C   0  0  0  0  0  0  0  0  0  0  0  0
   23.3227   -6.2513    0.0000 C   0  0  0  0  0  0  0  0  0  0  0  0
   23.3209   -4.6057    0.0000 C   0  0  0  0  0  0  0  0  0  0  0  0
   24.0337   -5.0151    0.0000 C   0  0  0  0  0  0  0  0  0  0  0  0
   24.0344   -5.8382    0.0000 C   0  0  0  0  0  0  0  0  0  0  0  0
   24.7471   -6.2453    0.0000 N   0  0  0  0  0  0  0  0  0  0  0  0
   25.4553   -5.8345    0.0000 C   0  0  0  0  0  0  0  0  0  0  0  0
   25.4506   -5.0082    0.0000 N   0  0  0  0  0  0  0  0  0  0  0  0
   24.7415   -4.6007    0.0000 C   0  0  0  0  0  0  0  0  0  0  0  0
   24.7372   -3.7794    0.0000 N   0  0  0  0  0  0  0  0  0  0  0  0
   25.4427   -3.3671    0.0000 C   0  0  0  0  0  0  0  0  0  0  0  0
   26.1521   -3.7753    0.0000 C   0  0  0  0  0  0  0  0  0  0  0  0
   26.8613   -3.3636    0.0000 C   0  0  0  0  0  0  0  0  0  0  0  0
   26.8574   -2.5414    0.0000 C   0  0  0  0  0  0  0  0  0  0  0  0
   26.1384   -2.1327    0.0000 C   0  0  0  0  0  0  0  0  0  0  0  0
   25.4322   -2.5508    0.0000 C   0  0  0  0  0  0  0  0  0  0  0  0
   26.1652   -6.2362    0.0000 C   0  0  0  0  0  0  0  0  0  0  0  0
   26.1670   -7.0586    0.0000 C   0  0  0  0  0  0  0  0  0  0  0  0
   26.8796   -7.4685    0.0000 C   0  0  0  0  0  0  0  0  0  0  0  0
   27.5908   -7.0530    0.0000 C   0  0  0  0  0  0  0  0  0  0  0  0
   27.5850   -6.2275    0.0000 C   0  0  0  0  0  0  0  0  0  0  0  0
   26.8719   -5.8254    0.0000 C   0  0  0  0  0  0  0  0  0  0  0  0
   26.1312   -1.3114    0.0000 F   0  0  0  0  0  0  0  0  0  0  0  0
  1  2  2  0
  2  3  1  0
  3  6  2  0
  5  4  2  0
  4  1  1  0
  5  6  1  0
  6  7  1  0
  7  8  2  0
  8  9  1  0
  9 10  2  0
 10  5  1  0
 10 11  1  0
 11 12  1  0
 12 13  2  0
 13 14  1  0
 14 15  2  0
 15 16  1  0
 16 17  2  0
 17 12  1  0
 18 19  2  0
 19 20  1  0
 20 21  2  0
 21 22  1  0
 22 23  2  0
 23 18  1  0
  8 18  1  0
 16 24  1  0
M  END
>  <Classification>  (331) 
1

>  <pchembl>  (331) 
6.44

>  <InChI_steorem>  (331) 
InChI=1S/C20H14FN3/c21-15-9-6-10-16(13-15)22-20-17-11-4-5-12-18(17)23-19(24-20)14-7-2-1-3-8-14/h1-13H,(H,22,23,24)

>  <source>  (331) 
ChEMBL25

>  <source_id>  (331) 
25

>  <optional_reference>  (331) 
10.1021/acs.jmedchem.7b00441

>  <optional_origin>  (331) 
None

>  <target>  (331) 
BCRP

$$$$

     RDKit          2D

 17 19  0  0  0  0  0  0  0  0999 V2000
   18.7246  -11.8593    0.0000 N   0  0  0  0  0  0  0  0  0  0  0  0
   18.7118  -12.6836    0.0000 C   0  0  0  0  0  0  0  0  0  0  0  0
   17.9230  -12.9252    0.0000 C   0  0  0  0  0  0  0  0  0  0  0  0
   17.4506  -12.2489    0.0000 C   0  0  0  0  0  0  0  0  0  0  0  0
   17.9467  -11.5879    0.0000 C   0  0  0  0  0  0  0  0  0  0  0  0
   19.3691  -13.1816    0.0000 O   0  0  0  0  0  0  0  0  0  0  0  0
   17.7052  -10.7992    0.0000 O   0  0  0  0  0  0  0  0  0  0  0  0
   17.6280  -15.0404    0.0000 N   0  0  0  0  0  0  0  0  0  0  0  0
   18.1261  -14.3831    0.0000 C   0  0  0  0  0  0  0  0  0  0  0  0
   17.6536  -13.7068    0.0000 C   0  0  0  0  0  0  0  0  0  0  0  0
   16.8629  -13.9447    0.0000 C   0  0  0  0  0  0  0  0  0  0  0  0
   16.1576  -13.5179    0.0000 C   0  0  0  0  0  0  0  0  0  0  0  0
   15.4357  -13.9173    0.0000 C   0  0  0  0  0  0  0  0  0  0  0  0
   15.4193  -14.7437    0.0000 C   0  0  0  0  0  0  0  0  0  0  0  0
   16.1282  -15.1685    0.0000 C   0  0  0  0  0  0  0  0  0  0  0  0
   16.8501  -14.7690    0.0000 C   0  0  0  0  0  0  0  0  0  0  0  0
   14.7288  -13.4962    0.0000 F   0  0  0  0  0  0  0  0  0  0  0  0
  1  2  1  0
  2  3  1  0
  3  4  1  0
  4  5  1  0
  1  5  1  0
  2  6  2  0
  5  7  2  0
  8  9  1  0
  9 10  2  0
 10 11  1  0
 11 12  2  0
 12 13  1  0
 13 14  2  0
 14 15  1  0
 15 16  2  0
  8 16  1  0
 11 16  1  0
 13 17  1  0
  3 10  1  0
M  END
>  <Classification>  (332) 
0

>  <pchembl>  (332) 
4.18

>  <InChI_steorem>  (332) 
InChI=1S/C12H9FN2O2/c13-6-1-2-10-7(3-6)9(5-14-10)8-4-11(16)15-12(8)17/h1-3,5,8,14H,4H2,(H,15,16,17)

>  <source>  (332) 
ChEMBL25

>  <source_id>  (332) 
25

>  <optional_reference>  (332) 
10.1021/acs.jmedchem.7b00974

>  <optional_origin>  (332) 
None

>  <target>  (332) 
BCRP

$$$$

     RDKit          2D

 31 34  0  0  0  0  0  0  0  0999 V2000
   19.7305  -16.2311    0.0000 C   0  0  0  0  0  0  0  0  0  0  0  0
   19.0283  -16.6502    0.0000 C   0  0  0  0  0  0  0  0  0  0  0  0
   18.3127  -16.2564    0.0000 C   0  0  0  0  0  0  0  0  0  0  0  0
   17.6146  -16.6754    0.0000 C   0  0  0  0  0  0  0  0  0  0  0  0
   17.6281  -17.4924    0.0000 C   0  0  0  0  0  0  0  0  0  0  0  0
   18.3437  -17.8904    0.0000 C   0  0  0  0  0  0  0  0  0  0  0  0
   19.0418  -17.4672    0.0000 C   0  0  0  0  0  0  0  0  0  0  0  0
   20.4462  -16.6250    0.0000 O   0  0  0  0  0  0  0  0  0  0  0  0
   19.7129  -15.4141    0.0000 N   0  0  0  0  0  0  0  0  0  0  0  0
   19.0014  -15.0162    0.0000 C   0  0  0  0  0  0  0  0  0  0  0  0
   18.9838  -14.1992    0.0000 C   0  0  0  0  0  0  0  0  0  0  0  0
   18.2682  -13.8053    0.0000 C   0  0  0  0  0  0  0  0  0  0  0  0
   17.5701  -14.2244    0.0000 C   0  0  0  0  0  0  0  0  0  0  0  0
   17.5836  -15.0414    0.0000 C   0  0  0  0  0  0  0  0  0  0  0  0
   18.2992  -15.4394    0.0000 C   0  0  0  0  0  0  0  0  0  0  0  0
   20.4379  -14.0946    0.0000 N   0  0  0  0  0  0  0  0  0  0  0  0
   20.9736  -13.4820    0.0000 N   0  0  0  0  0  0  0  0  0  0  0  0
   20.5545  -12.7798    0.0000 N   0  0  0  0  0  0  0  0  0  0  0  0
   19.7567  -12.9635    0.0000 N   0  0  0  0  0  0  0  0  0  0  0  0
   19.6860  -13.7801    0.0000 C   0  0  0  0  0  0  0  0  0  0  0  0
   21.7902  -13.5527    0.0000 C   0  0  0  0  0  0  0  0  0  0  0  0
   22.1320  -14.2910    0.0000 C   0  0  0  0  0  0  0  0  0  0  0  0
   22.9486  -14.3617    0.0000 C   0  0  0  0  0  0  0  0  0  0  0  0
   23.4152  -13.6940    0.0000 C   0  0  0  0  0  0  0  0  0  0  0  0
   23.0693  -12.9516    0.0000 C   0  0  0  0  0  0  0  0  0  0  0  0
   22.2568  -12.8810    0.0000 C   0  0  0  0  0  0  0  0  0  0  0  0
   23.2945  -15.1041    0.0000 O   0  0  0  0  0  0  0  0  0  0  0  0
   24.1069  -15.1747    0.0000 C   0  0  0  0  0  0  0  0  0  0  0  0
   16.9259  -17.9114    0.0000 N   0  0  0  0  0  0  0  0  0  0  0  0
   16.9393  -18.7284    0.0000 C   0  0  0  0  0  0  0  0  0  0  0  0
   16.9569  -19.5454    0.0000 S   0  0  0  0  0  0  0  0  0  0  0  0
  1  2  1  0
  2  3  2  0
  3  4  1  0
  4  5  2  0
  5  6  1  0
  6  7  2  0
  2  7  1  0
  1  8  2  0
  1  9  1  0
 10 11  1  0
 11 12  2  0
 12 13  1  0
 13 14  2  0
 14 15  1  0
 10 15  2  0
 16 17  1  0
 17 18  1  0
 18 19  2  0
 19 20  1  0
 16 20  2  0
 21 22  2  0
 22 23  1  0
 23 24  2  0
 24 25  1  0
 25 26  2  0
 21 26  1  0
 27 28  1  0
 23 27  1  0
 17 21  1  0
 11 20  1  0
  9 10  1  0
 29 30  2  0
 30 31  2  0
  5 29  1  0
M  END
>  <Classification>  (333) 
1

>  <pchembl>  (333) 
6.02

>  <InChI_steorem>  (333) 
InChI=1S/C22H16N6O2S/c1-30-18-6-4-5-17(13-18)28-26-21(25-27-28)19-7-2-3-8-20(19)24-22(29)15-9-11-16(12-10-15)23-14-31/h2-13H,1H3,(H,24,29)

>  <source>  (333) 
ChEMBL25

>  <source_id>  (333) 
25

>  <optional_reference>  (333) 
10.1016/j.bmcl.2017.09.009

>  <optional_origin>  (333) 
None

>  <target>  (333) 
BCRP

$$$$

     RDKit          2D

 25 28  0  0  0  0  0  0  0  0999 V2000
   13.0860   -5.2663    0.0000 C   0  0  0  0  0  0  0  0  0  0  0  0
   13.0849   -6.0900    0.0000 C   0  0  0  0  0  0  0  0  0  0  0  0
   13.7929   -6.4989    0.0000 C   0  0  0  0  0  0  0  0  0  0  0  0
   13.7911   -4.8533    0.0000 C   0  0  0  0  0  0  0  0  0  0  0  0
   14.5039   -5.2627    0.0000 C   0  0  0  0  0  0  0  0  0  0  0  0
   14.5046   -6.0858    0.0000 C   0  0  0  0  0  0  0  0  0  0  0  0
   15.2173   -6.4929    0.0000 N   0  0  0  0  0  0  0  0  0  0  0  0
   15.9297   -6.0821    0.0000 C   0  0  0  0  0  0  0  0  0  0  0  0
   15.9250   -5.2558    0.0000 N   0  0  0  0  0  0  0  0  0  0  0  0
   15.2117   -4.8483    0.0000 C   0  0  0  0  0  0  0  0  0  0  0  0
   15.2074   -4.0270    0.0000 N   0  0  0  0  0  0  0  0  0  0  0  0
   15.9171   -3.6147    0.0000 C   0  0  0  0  0  0  0  0  0  0  0  0
   16.6265   -4.0229    0.0000 C   0  0  0  0  0  0  0  0  0  0  0  0
   17.3356   -3.6113    0.0000 C   0  0  0  0  0  0  0  0  0  0  0  0
   17.3317   -2.7891    0.0000 C   0  0  0  0  0  0  0  0  0  0  0  0
   16.6128   -2.3803    0.0000 C   0  0  0  0  0  0  0  0  0  0  0  0
   15.9065   -2.7984    0.0000 C   0  0  0  0  0  0  0  0  0  0  0  0
   16.6396   -6.4839    0.0000 C   0  0  0  0  0  0  0  0  0  0  0  0
   16.6414   -7.3063    0.0000 C   0  0  0  0  0  0  0  0  0  0  0  0
   17.3540   -7.7162    0.0000 C   0  0  0  0  0  0  0  0  0  0  0  0
   18.0652   -7.3006    0.0000 C   0  0  0  0  0  0  0  0  0  0  0  0
   18.0594   -6.4751    0.0000 C   0  0  0  0  0  0  0  0  0  0  0  0
   17.3462   -6.0730    0.0000 C   0  0  0  0  0  0  0  0  0  0  0  0
   18.0410   -2.3735    0.0000 C   0  0  0  0  0  0  0  0  0  0  0  0
   18.7460   -1.9561    0.0000 N   0  0  0  0  0  0  0  0  0  0  0  0
  1  2  2  0
  2  3  1  0
  3  6  2  0
  5  4  2  0
  4  1  1  0
  5  6  1  0
  6  7  1  0
  7  8  2  0
  8  9  1  0
  9 10  2  0
 10  5  1  0
 10 11  1  0
 11 12  1  0
 12 13  2  0
 13 14  1  0
 14 15  2  0
 15 16  1  0
 16 17  2  0
 17 12  1  0
 18 19  2  0
 19 20  1  0
 20 21  2  0
 21 22  1  0
 22 23  2  0
 23 18  1  0
  8 18  1  0
 24 25  3  0
 15 24  1  0
M  END
>  <Classification>  (334) 
1

>  <pchembl>  (334) 
7.15

>  <InChI_steorem>  (334) 
InChI=1S/C21H14N4/c22-14-15-10-12-17(13-11-15)23-21-18-8-4-5-9-19(18)24-20(25-21)16-6-2-1-3-7-16/h1-13H,(H,23,24,25)

>  <source>  (334) 
ChEMBL25

>  <source_id>  (334) 
25

>  <optional_reference>  (334) 
10.1021/acs.jmedchem.7b00441

>  <optional_origin>  (334) 
None

>  <target>  (334) 
BCRP

$$$$

     RDKit          2D

 24 26  0  0  0  0  0  0  0  0999 V2000
    4.6604   -5.2710    0.0000 C   0  0  0  0  0  0  0  0  0  0  0  0
    4.6612   -6.0941    0.0000 C   0  0  0  0  0  0  0  0  0  0  0  0
    5.3739   -6.5053    0.0000 N   0  0  0  0  0  0  0  0  0  0  0  0
    6.0863   -6.0903    0.0000 C   0  0  0  0  0  0  0  0  0  0  0  0
    6.0815   -5.2641    0.0000 N   0  0  0  0  0  0  0  0  0  0  0  0
    5.3683   -4.8607    0.0000 C   0  0  0  0  0  0  0  0  0  0  0  0
    5.3640   -4.0394    0.0000 N   0  0  0  0  0  0  0  0  0  0  0  0
    6.0736   -3.6230    0.0000 C   0  0  0  0  0  0  0  0  0  0  0  0
    6.7830   -4.0353    0.0000 C   0  0  0  0  0  0  0  0  0  0  0  0
    7.4881   -3.6195    0.0000 C   0  0  0  0  0  0  0  0  0  0  0  0
    7.4842   -2.7973    0.0000 C   0  0  0  0  0  0  0  0  0  0  0  0
    6.7693   -2.3927    0.0000 C   0  0  0  0  0  0  0  0  0  0  0  0
    6.0631   -2.8067    0.0000 C   0  0  0  0  0  0  0  0  0  0  0  0
    6.7961   -6.4962    0.0000 C   0  0  0  0  0  0  0  0  0  0  0  0
    6.7980   -7.3187    0.0000 C   0  0  0  0  0  0  0  0  0  0  0  0
    7.5105   -7.7244    0.0000 C   0  0  0  0  0  0  0  0  0  0  0  0
    8.2176   -7.3130    0.0000 C   0  0  0  0  0  0  0  0  0  0  0  0
    8.2118   -6.4875    0.0000 C   0  0  0  0  0  0  0  0  0  0  0  0
    7.5028   -6.0813    0.0000 C   0  0  0  0  0  0  0  0  0  0  0  0
    3.9500   -6.5079    0.0000 C   0  0  0  0  0  0  0  0  0  0  0  0
    6.7599   -1.5715    0.0000 N   0  0  0  0  0  0  0  0  0  0  0  0
    6.0445   -1.1650    0.0000 O   0  0  0  0  0  0  0  0  0  0  0  0
    7.4640   -1.1526    0.0000 O   0  0  0  0  0  0  0  0  0  0  0  0
    8.1933   -2.3840    0.0000 O   0  0  0  0  0  0  0  0  0  0  0  0
  1  2  2  0
  2  3  1  0
  3  4  2  0
  4  5  1  0
  5  6  2  0
  6  1  1  0
  6  7  1  0
  7  8  1  0
  8  9  2  0
  9 10  1  0
 10 11  2  0
 11 12  1  0
 12 13  2  0
 13  8  1  0
 14 15  2  0
 15 16  1  0
 16 17  2  0
 17 18  1  0
 18 19  2  0
 19 14  1  0
  4 14  1  0
  2 20  1  0
 21 22  2  0
 21 23  1  0
 12 21  1  0
 11 24  1  0
M  CHG  2  21   1  23  -1
M  END
>  <Classification>  (335) 
1

>  <pchembl>  (335) 
7.0

>  <InChI_steorem>  (335) 
InChI=1S/C17H14N4O3/c1-11-9-16(20-17(18-11)12-5-3-2-4-6-12)19-13-7-8-15(22)14(10-13)21(23)24/h2-10,22H,1H3,(H,18,19,20)

>  <source>  (335) 
ChEMBL25

>  <source_id>  (335) 
25

>  <optional_reference>  (335) 
10.1021/acs.jmedchem.7b00441

>  <optional_origin>  (335) 
None

>  <target>  (335) 
BCRP

$$$$

     RDKit          2D

 25 28  0  0  0  0  0  0  0  0999 V2000
   11.3113  -20.1656    0.0000 C   0  0  0  0  0  0  0  0  0  0  0  0
   11.3102  -20.9851    0.0000 C   0  0  0  0  0  0  0  0  0  0  0  0
   12.0182  -21.3941    0.0000 C   0  0  0  0  0  0  0  0  0  0  0  0
   12.0164  -19.7567    0.0000 C   0  0  0  0  0  0  0  0  0  0  0  0
   12.7250  -20.1620    0.0000 C   0  0  0  0  0  0  0  0  0  0  0  0
   12.7258  -20.9810    0.0000 C   0  0  0  0  0  0  0  0  0  0  0  0
   13.4343  -21.3881    0.0000 N   0  0  0  0  0  0  0  0  0  0  0  0
   14.1426  -20.9773    0.0000 C   0  0  0  0  0  0  0  0  0  0  0  0
   14.1379  -20.1551    0.0000 N   0  0  0  0  0  0  0  0  0  0  0  0
   13.4288  -19.7518    0.0000 C   0  0  0  0  0  0  0  0  0  0  0  0
   13.4244  -18.9346    0.0000 N   0  0  0  0  0  0  0  0  0  0  0  0
   14.1300  -18.5222    0.0000 C   0  0  0  0  0  0  0  0  0  0  0  0
   14.8352  -18.9305    0.0000 C   0  0  0  0  0  0  0  0  0  0  0  0
   15.5403  -18.5188    0.0000 C   0  0  0  0  0  0  0  0  0  0  0  0
   15.5364  -17.7008    0.0000 C   0  0  0  0  0  0  0  0  0  0  0  0
   14.8216  -17.2961    0.0000 C   0  0  0  0  0  0  0  0  0  0  0  0
   14.1194  -17.7101    0.0000 C   0  0  0  0  0  0  0  0  0  0  0  0
   14.8483  -21.3790    0.0000 C   0  0  0  0  0  0  0  0  0  0  0  0
   14.8502  -22.1973    0.0000 C   0  0  0  0  0  0  0  0  0  0  0  0
   15.5586  -22.6031    0.0000 N   0  0  0  0  0  0  0  0  0  0  0  0
   16.2657  -22.1917    0.0000 C   0  0  0  0  0  0  0  0  0  0  0  0
   16.2599  -21.3703    0.0000 C   0  0  0  0  0  0  0  0  0  0  0  0
   15.5509  -20.9682    0.0000 C   0  0  0  0  0  0  0  0  0  0  0  0
   14.8110  -16.4809    0.0000 C   0  0  0  0  0  0  0  0  0  0  0  0
   14.8038  -15.6637    0.0000 N   0  0  0  0  0  0  0  0  0  0  0  0
  1  2  2  0
  2  3  1  0
  3  6  2  0
  5  4  2  0
  4  1  1  0
  5  6  1  0
  6  7  1  0
  7  8  2  0
  8  9  1  0
  9 10  2  0
 10  5  1  0
 10 11  1  0
 11 12  1  0
 12 13  2  0
 13 14  1  0
 14 15  2  0
 15 16  1  0
 16 17  2  0
 17 12  1  0
 18 19  2  0
 19 20  1  0
 20 21  2  0
 21 22  1  0
 22 23  2  0
 23 18  1  0
  8 18  1  0
 24 25  3  0
 16 24  1  0
M  END
>  <Classification>  (336) 
1

>  <pchembl>  (336) 
6.97

>  <InChI_steorem>  (336) 
InChI=1S/C20H13N5/c21-12-14-5-3-7-16(11-14)23-20-17-8-1-2-9-18(17)24-19(25-20)15-6-4-10-22-13-15/h1-11,13H,(H,23,24,25)

>  <source>  (336) 
ChEMBL25

>  <source_id>  (336) 
25

>  <optional_reference>  (336) 
10.1021/acs.jmedchem.7b00441

>  <optional_origin>  (336) 
None

>  <target>  (336) 
BCRP

$$$$

     RDKit          2D

 25 28  0  0  0  0  0  0  0  0999 V2000
   30.1150  -12.3982    0.0000 C   0  0  0  0  0  0  0  0  0  0  0  0
   30.1138  -13.2177    0.0000 C   0  0  0  0  0  0  0  0  0  0  0  0
   30.8219  -13.6267    0.0000 C   0  0  0  0  0  0  0  0  0  0  0  0
   30.8201  -11.9893    0.0000 C   0  0  0  0  0  0  0  0  0  0  0  0
   31.5287  -12.3946    0.0000 C   0  0  0  0  0  0  0  0  0  0  0  0
   31.5295  -13.2136    0.0000 C   0  0  0  0  0  0  0  0  0  0  0  0
   32.2380  -13.6206    0.0000 N   0  0  0  0  0  0  0  0  0  0  0  0
   32.9463  -13.2098    0.0000 C   0  0  0  0  0  0  0  0  0  0  0  0
   32.9415  -12.3877    0.0000 N   0  0  0  0  0  0  0  0  0  0  0  0
   32.2324  -11.9843    0.0000 C   0  0  0  0  0  0  0  0  0  0  0  0
   32.2281  -11.1671    0.0000 N   0  0  0  0  0  0  0  0  0  0  0  0
   32.9336  -10.7548    0.0000 C   0  0  0  0  0  0  0  0  0  0  0  0
   33.6389  -11.1630    0.0000 C   0  0  0  0  0  0  0  0  0  0  0  0
   34.3440  -10.7514    0.0000 C   0  0  0  0  0  0  0  0  0  0  0  0
   34.3401   -9.9333    0.0000 C   0  0  0  0  0  0  0  0  0  0  0  0
   33.6252   -9.5287    0.0000 C   0  0  0  0  0  0  0  0  0  0  0  0
   32.9231   -9.9427    0.0000 C   0  0  0  0  0  0  0  0  0  0  0  0
   33.6520  -13.6116    0.0000 C   0  0  0  0  0  0  0  0  0  0  0  0
   33.6538  -14.4299    0.0000 C   0  0  0  0  0  0  0  0  0  0  0  0
   34.3623  -14.8356    0.0000 C   0  0  0  0  0  0  0  0  0  0  0  0
   35.0694  -14.4242    0.0000 N   0  0  0  0  0  0  0  0  0  0  0  0
   35.0636  -13.6028    0.0000 C   0  0  0  0  0  0  0  0  0  0  0  0
   34.3545  -13.2008    0.0000 C   0  0  0  0  0  0  0  0  0  0  0  0
   33.6180   -8.7115    0.0000 O   0  0  0  0  0  0  0  0  0  0  0  0
   34.3221   -8.2967    0.0000 C   0  0  0  0  0  0  0  0  0  0  0  0
  1  2  2  0
  2  3  1  0
  3  6  2  0
  5  4  2  0
  4  1  1  0
  5  6  1  0
  6  7  1  0
  7  8  2  0
  8  9  1  0
  9 10  2  0
 10  5  1  0
 10 11  1  0
 11 12  1  0
 12 13  2  0
 13 14  1  0
 14 15  2  0
 15 16  1  0
 16 17  2  0
 17 12  1  0
 18 19  2  0
 19 20  1  0
 20 21  2  0
 21 22  1  0
 22 23  2  0
 23 18  1  0
  8 18  1  0
 16 24  1  0
 24 25  1  0
M  END
>  <Classification>  (337) 
1

>  <pchembl>  (337) 
6.25

>  <InChI_steorem>  (337) 
InChI=1S/C20H16N4O/c1-25-16-6-4-5-15(13-16)22-20-17-7-2-3-8-18(17)23-19(24-20)14-9-11-21-12-10-14/h2-13H,1H3,(H,22,23,24)

>  <source>  (337) 
ChEMBL25

>  <source_id>  (337) 
25

>  <optional_reference>  (337) 
10.1021/acs.jmedchem.7b00441

>  <optional_origin>  (337) 
None

>  <target>  (337) 
BCRP

$$$$

     RDKit          2D

 33 36  0  0  0  0  0  0  0  0999 V2000
   13.1250  -11.2007    0.0000 C   0  0  0  0  0  0  0  0  0  0  0  0
   12.4145  -11.6038    0.0000 C   0  0  0  0  0  0  0  0  0  0  0  0
   11.7110  -11.1898    0.0000 C   0  0  0  0  0  0  0  0  0  0  0  0
   11.0005  -11.5929    0.0000 C   0  0  0  0  0  0  0  0  0  0  0  0
   10.9936  -12.4100    0.0000 C   0  0  0  0  0  0  0  0  0  0  0  0
   11.6971  -12.8241    0.0000 C   0  0  0  0  0  0  0  0  0  0  0  0
   12.4076  -12.4210    0.0000 C   0  0  0  0  0  0  0  0  0  0  0  0
   13.8326  -11.6148    0.0000 O   0  0  0  0  0  0  0  0  0  0  0  0
   13.1360  -10.3836    0.0000 N   0  0  0  0  0  0  0  0  0  0  0  0
   12.4284   -9.9695    0.0000 C   0  0  0  0  0  0  0  0  0  0  0  0
   12.4354   -9.1524    0.0000 C   0  0  0  0  0  0  0  0  0  0  0  0
   11.7319   -8.7383    0.0000 C   0  0  0  0  0  0  0  0  0  0  0  0
   11.0214   -9.1415    0.0000 C   0  0  0  0  0  0  0  0  0  0  0  0
   11.0144   -9.9586    0.0000 C   0  0  0  0  0  0  0  0  0  0  0  0
   11.7180  -10.3726    0.0000 C   0  0  0  0  0  0  0  0  0  0  0  0
   13.8927   -9.0897    0.0000 N   0  0  0  0  0  0  0  0  0  0  0  0
   14.4446   -8.4865    0.0000 N   0  0  0  0  0  0  0  0  0  0  0  0
   14.0415   -7.7760    0.0000 N   0  0  0  0  0  0  0  0  0  0  0  0
   13.2409   -7.9401    0.0000 N   0  0  0  0  0  0  0  0  0  0  0  0
   13.1500   -8.7493    0.0000 C   0  0  0  0  0  0  0  0  0  0  0  0
   15.2579   -8.5774    0.0000 C   0  0  0  0  0  0  0  0  0  0  0  0
   15.5822   -9.3292    0.0000 C   0  0  0  0  0  0  0  0  0  0  0  0
   16.3955   -9.4201    0.0000 C   0  0  0  0  0  0  0  0  0  0  0  0
   16.8805   -8.7634    0.0000 C   0  0  0  0  0  0  0  0  0  0  0  0
   16.5562   -8.0157    0.0000 C   0  0  0  0  0  0  0  0  0  0  0  0
   15.7429   -7.9207    0.0000 C   0  0  0  0  0  0  0  0  0  0  0  0
   16.7198  -10.1718    0.0000 O   0  0  0  0  0  0  0  0  0  0  0  0
   17.5331  -10.2627    0.0000 C   0  0  0  0  0  0  0  0  0  0  0  0
   10.2762  -13.6261    0.0000 C   0  0  0  0  0  0  0  0  0  0  0  0
    9.5616  -14.0292    0.0000 C   0  0  0  0  0  0  0  0  0  0  0  0
   10.9797  -14.0443    0.0000 O   0  0  0  0  0  0  0  0  0  0  0  0
   10.2831  -12.8090    0.0000 N   0  0  0  0  0  0  0  0  0  0  0  0
    8.8581  -13.6152    0.0000 Br  0  0  0  0  0  0  0  0  0  0  0  0
  1  2  1  0
  2  3  2  0
  3  4  1  0
  4  5  2  0
  5  6  1  0
  6  7  2  0
  2  7  1  0
  1  8  2  0
  1  9  1  0
 10 11  1  0
 11 12  2  0
 12 13  1  0
 13 14  2  0
 14 15  1  0
 10 15  2  0
 16 17  1  0
 17 18  1  0
 18 19  2  0
 19 20  1  0
 16 20  2  0
 21 22  2  0
 22 23  1  0
 23 24  2  0
 24 25  1  0
 25 26  2  0
 21 26  1  0
 27 28  1  0
 23 27  1  0
 17 21  1  0
 11 20  1  0
  9 10  1  0
 29 30  1  0
 29 31  2  0
 29 32  1  0
 30 33  1  0
  5 32  1  0
M  END
>  <Classification>  (338) 
1

>  <pchembl>  (338) 
6.55

>  <InChI_steorem>  (338) 
InChI=1S/C23H19BrN6O3/c1-33-18-6-4-5-17(13-18)30-28-22(27-29-30)19-7-2-3-8-20(19)26-23(32)15-9-11-16(12-10-15)25-21(31)14-24/h2-13H,14H2,1H3,(H,25,31)(H,26,32)

>  <source>  (338) 
ChEMBL25

>  <source_id>  (338) 
25

>  <optional_reference>  (338) 
10.1016/j.bmcl.2017.09.009

>  <optional_origin>  (338) 
None

>  <target>  (338) 
BCRP

$$$$

     RDKit          2D

 26 29  0  0  0  0  0  0  0  0999 V2000
   12.8879   -6.9966    0.0000 C   0  0  0  0  0  0  0  0  0  0  0  0
   12.1788   -7.4052    0.0000 N   0  0  0  0  0  0  0  0  0  0  0  0
   11.4697   -6.9966    0.0000 C   0  0  0  0  0  0  0  0  0  0  0  0
   11.4697   -6.1794    0.0000 C   0  0  0  0  0  0  0  0  0  0  0  0
   12.1788   -5.7708    0.0000 C   0  0  0  0  0  0  0  0  0  0  0  0
   12.8879   -6.1794    0.0000 N   0  0  0  0  0  0  0  0  0  0  0  0
   10.7606   -5.7708    0.0000 C   0  0  0  0  0  0  0  0  0  0  0  0
   10.0557   -6.1794    0.0000 C   0  0  0  0  0  0  0  0  0  0  0  0
   10.0557   -6.9966    0.0000 C   0  0  0  0  0  0  0  0  0  0  0  0
   10.7606   -7.4052    0.0000 N   0  0  0  0  0  0  0  0  0  0  0  0
   12.1788   -4.9536    0.0000 N   0  0  0  0  0  0  0  0  0  0  0  0
   13.5929   -7.4052    0.0000 C   0  0  0  0  0  0  0  0  0  0  0  0
   13.5929   -8.2224    0.0000 C   0  0  0  0  0  0  0  0  0  0  0  0
   14.3020   -8.6309    0.0000 C   0  0  0  0  0  0  0  0  0  0  0  0
   15.0069   -8.2224    0.0000 C   0  0  0  0  0  0  0  0  0  0  0  0
   15.0069   -7.4052    0.0000 C   0  0  0  0  0  0  0  0  0  0  0  0
   14.3020   -6.9966    0.0000 C   0  0  0  0  0  0  0  0  0  0  0  0
   14.3020   -9.4481    0.0000 O   0  0  0  0  0  0  0  0  0  0  0  0
   15.0069   -9.8567    0.0000 C   0  0  0  0  0  0  0  0  0  0  0  0
   12.8879   -4.5450    0.0000 C   0  0  0  0  0  0  0  0  0  0  0  0
   13.5929   -4.9536    0.0000 C   0  0  0  0  0  0  0  0  0  0  0  0
   14.3020   -4.5450    0.0000 C   0  0  0  0  0  0  0  0  0  0  0  0
   14.3020   -3.7278    0.0000 C   0  0  0  0  0  0  0  0  0  0  0  0
   13.5929   -3.3192    0.0000 C   0  0  0  0  0  0  0  0  0  0  0  0
   12.8879   -3.7278    0.0000 C   0  0  0  0  0  0  0  0  0  0  0  0
   15.0069   -4.9536    0.0000 Br  0  0  0  0  0  0  0  0  0  0  0  0
  1  2  2  0
  2  3  1  0
  3  4  2  0
  4  5  1  0
  5  6  2  0
  1  6  1  0
  7  8  2  0
  8  9  1  0
  9 10  2  0
  3 10  1  0
  4  7  1  0
  5 11  1  0
 12 13  2  0
 13 14  1  0
 14 15  2  0
 15 16  1  0
 16 17  2  0
 12 17  1  0
 18 19  1  0
 14 18  1  0
  1 12  1  0
 20 21  2  0
 21 22  1  0
 22 23  2  0
 23 24  1  0
 24 25  2  0
 20 25  1  0
 22 26  1  0
 11 20  1  0
M  END
>  <Classification>  (339) 
1

>  <pchembl>  (339) 
5.82

>  <InChI_steorem>  (339) 
InChI=1S/C20H15BrN4O/c1-26-16-8-2-5-13(11-16)18-24-19-17(9-4-10-22-19)20(25-18)23-15-7-3-6-14(21)12-15/h2-12H,1H3,(H,22,23,24,25)

>  <source>  (339) 
ChEMBL25

>  <source_id>  (339) 
25

>  <optional_reference>  (339) 
10.1021/acs.jmedchem.7b01012

>  <optional_origin>  (339) 
None

>  <target>  (339) 
BCRP

$$$$

     RDKit          2D

 26 29  0  0  0  0  0  0  0  0999 V2000
    7.5854   -8.1081    0.0000 C   0  0  0  0  0  0  0  0  0  0  0  0
    6.8763   -8.5167    0.0000 N   0  0  0  0  0  0  0  0  0  0  0  0
    6.1713   -8.1081    0.0000 C   0  0  0  0  0  0  0  0  0  0  0  0
    6.1713   -7.2909    0.0000 C   0  0  0  0  0  0  0  0  0  0  0  0
    6.8763   -6.8823    0.0000 C   0  0  0  0  0  0  0  0  0  0  0  0
    7.5854   -7.2909    0.0000 N   0  0  0  0  0  0  0  0  0  0  0  0
    5.4622   -6.8823    0.0000 C   0  0  0  0  0  0  0  0  0  0  0  0
    4.7532   -7.2909    0.0000 C   0  0  0  0  0  0  0  0  0  0  0  0
    4.7532   -8.1081    0.0000 C   0  0  0  0  0  0  0  0  0  0  0  0
    5.4622   -8.5167    0.0000 N   0  0  0  0  0  0  0  0  0  0  0  0
    6.8763   -6.0651    0.0000 N   0  0  0  0  0  0  0  0  0  0  0  0
    8.2945   -8.5167    0.0000 C   0  0  0  0  0  0  0  0  0  0  0  0
    8.2945   -9.3339    0.0000 C   0  0  0  0  0  0  0  0  0  0  0  0
    8.9994   -9.7425    0.0000 C   0  0  0  0  0  0  0  0  0  0  0  0
    9.7085   -9.3339    0.0000 C   0  0  0  0  0  0  0  0  0  0  0  0
    9.7085   -8.5167    0.0000 C   0  0  0  0  0  0  0  0  0  0  0  0
    8.9994   -8.1081    0.0000 C   0  0  0  0  0  0  0  0  0  0  0  0
    8.9994  -10.5597    0.0000 O   0  0  0  0  0  0  0  0  0  0  0  0
    9.7085  -10.9683    0.0000 C   0  0  0  0  0  0  0  0  0  0  0  0
    7.5854   -5.6565    0.0000 C   0  0  0  0  0  0  0  0  0  0  0  0
    8.2945   -6.0651    0.0000 C   0  0  0  0  0  0  0  0  0  0  0  0
    8.9994   -5.6565    0.0000 C   0  0  0  0  0  0  0  0  0  0  0  0
    8.9994   -4.8394    0.0000 C   0  0  0  0  0  0  0  0  0  0  0  0
    8.2945   -4.4308    0.0000 C   0  0  0  0  0  0  0  0  0  0  0  0
    7.5854   -4.8394    0.0000 C   0  0  0  0  0  0  0  0  0  0  0  0
    9.7085   -4.4308    0.0000 F   0  0  0  0  0  0  0  0  0  0  0  0
  1  2  2  0
  2  3  1  0
  3  4  2  0
  4  5  1  0
  5  6  2  0
  1  6  1  0
  7  8  2  0
  8  9  1  0
  9 10  2  0
  3 10  1  0
  4  7  1  0
  5 11  1  0
 12 13  2  0
 13 14  1  0
 14 15  2  0
 15 16  1  0
 16 17  2  0
 12 17  1  0
 18 19  1  0
 14 18  1  0
  1 12  1  0
 20 21  2  0
 21 22  1  0
 22 23  2  0
 23 24  1  0
 24 25  2  0
 20 25  1  0
 23 26  1  0
 11 20  1  0
M  END
>  <Classification>  (340) 
1

>  <pchembl>  (340) 
6.37

>  <InChI_steorem>  (340) 
InChI=1S/C20H15FN4O/c1-26-16-5-2-4-13(12-16)18-24-19-17(6-3-11-22-19)20(25-18)23-15-9-7-14(21)8-10-15/h2-12H,1H3,(H,22,23,24,25)

>  <source>  (340) 
ChEMBL25

>  <source_id>  (340) 
25

>  <optional_reference>  (340) 
10.1021/acs.jmedchem.7b01012

>  <optional_origin>  (340) 
None

>  <target>  (340) 
BCRP

$$$$

     RDKit          2D

 34 37  0  0  0  0  0  0  0  0999 V2000
   13.9805  -18.4262    0.0000 C   0  0  0  0  0  0  0  0  0  0  0  0
   13.9845  -19.2434    0.0000 C   0  0  0  0  0  0  0  0  0  0  0  0
   13.2715  -18.0206    0.0000 O   0  0  0  0  0  0  0  0  0  0  0  0
   14.6855  -18.0106    0.0000 N   0  0  0  0  0  0  0  0  0  0  0  0
   14.6774  -17.1934    0.0000 C   0  0  0  0  0  0  0  0  0  0  0  0
   15.3824  -16.7819    0.0000 C   0  0  0  0  0  0  0  0  0  0  0  0
   15.3784  -15.9648    0.0000 C   0  0  0  0  0  0  0  0  0  0  0  0
   14.6694  -15.5591    0.0000 C   0  0  0  0  0  0  0  0  0  0  0  0
   13.9644  -15.9747    0.0000 C   0  0  0  0  0  0  0  0  0  0  0  0
   13.9684  -16.7919    0.0000 C   0  0  0  0  0  0  0  0  0  0  0  0
   14.6613  -14.7419    0.0000 N   0  0  0  0  0  0  0  0  0  0  0  0
   15.3663  -14.3305    0.0000 C   0  0  0  0  0  0  0  0  0  0  0  0
   16.0794  -14.7320    0.0000 O   0  0  0  0  0  0  0  0  0  0  0  0
   15.3622  -13.5133    0.0000 N   0  0  0  0  0  0  0  0  0  0  0  0
   14.6532  -13.1076    0.0000 C   0  0  0  0  0  0  0  0  0  0  0  0
   14.6492  -12.2905    0.0000 C   0  0  0  0  0  0  0  0  0  0  0  0
   13.9361  -11.8889    0.0000 C   0  0  0  0  0  0  0  0  0  0  0  0
   13.2311  -12.3004    0.0000 C   0  0  0  0  0  0  0  0  0  0  0  0
   13.2392  -13.1176    0.0000 C   0  0  0  0  0  0  0  0  0  0  0  0
   13.9482  -13.5232    0.0000 C   0  0  0  0  0  0  0  0  0  0  0  0
   16.1007  -12.2059    0.0000 N   0  0  0  0  0  0  0  0  0  0  0  0
   16.6425  -11.5940    0.0000 N   0  0  0  0  0  0  0  0  0  0  0  0
   16.2310  -10.8890    0.0000 N   0  0  0  0  0  0  0  0  0  0  0  0
   15.4343  -11.0636    0.0000 N   0  0  0  0  0  0  0  0  0  0  0  0
   15.3501  -11.8790    0.0000 C   0  0  0  0  0  0  0  0  0  0  0  0
   17.4578  -11.6741    0.0000 C   0  0  0  0  0  0  0  0  0  0  0  0
   17.7955  -12.4180    0.0000 C   0  0  0  0  0  0  0  0  0  0  0  0
   18.6067  -12.4981    0.0000 C   0  0  0  0  0  0  0  0  0  0  0  0
   19.0844  -11.8342    0.0000 C   0  0  0  0  0  0  0  0  0  0  0  0
   18.7467  -11.0902    0.0000 C   0  0  0  0  0  0  0  0  0  0  0  0
   17.9314  -11.0102    0.0000 C   0  0  0  0  0  0  0  0  0  0  0  0
   18.9444  -13.2421    0.0000 O   0  0  0  0  0  0  0  0  0  0  0  0
   19.7598  -13.3221    0.0000 C   0  0  0  0  0  0  0  0  0  0  0  0
   14.6935  -19.6449    0.0000 Br  0  0  0  0  0  0  0  0  0  0  0  0
  1  2  1  0
  1  3  2  0
  1  4  1  0
  5  6  2  0
  6  7  1  0
  7  8  2  0
  8  9  1  0
  9 10  2  0
  5 10  1  0
 11 12  1  0
 12 13  2  0
 12 14  1  0
 15 16  1  0
 16 17  2  0
 17 18  1  0
 18 19  2  0
 19 20  1  0
 15 20  2  0
 21 22  1  0
 22 23  1  0
 23 24  2  0
 24 25  1  0
 21 25  2  0
 26 27  2  0
 27 28  1  0
 28 29  2  0
 29 30  1  0
 30 31  2  0
 26 31  1  0
 32 33  1  0
 28 32  1  0
 22 26  1  0
 16 25  1  0
 14 15  1  0
  8 11  1  0
  4  5  1  0
  2 34  1  0
M  END
>  <Classification>  (341) 
1

>  <pchembl>  (341) 
6.33

>  <InChI_steorem>  (341) 
InChI=1S/C23H20BrN7O3/c1-34-18-6-4-5-17(13-18)31-29-22(28-30-31)19-7-2-3-8-20(19)27-23(33)26-16-11-9-15(10-12-16)25-21(32)14-24/h2-13H,14H2,1H3,(H,25,32)(H2,26,27,33)

>  <source>  (341) 
ChEMBL25

>  <source_id>  (341) 
25

>  <optional_reference>  (341) 
10.1016/j.bmcl.2017.09.009

>  <optional_origin>  (341) 
None

>  <target>  (341) 
BCRP

$$$$

     RDKit          2D

 30 32  0  0  0  0  0  0  0  0999 V2000
   12.3247  -12.9635    0.0000 C   0  0  0  0  0  0  0  0  0  0  0  0
   11.6084  -13.3593    0.0000 C   0  0  0  0  0  0  0  0  0  0  0  0
   11.5937  -14.1805    0.0000 C   0  0  0  0  0  0  0  0  0  0  0  0
   10.8815  -14.5764    0.0000 C   0  0  0  0  0  0  0  0  0  0  0  0
   10.1798  -14.1551    0.0000 C   0  0  0  0  0  0  0  0  0  0  0  0
   10.1946  -13.3339    0.0000 C   0  0  0  0  0  0  0  0  0  0  0  0
   10.9109  -12.9381    0.0000 C   0  0  0  0  0  0  0  0  0  0  0  0
   13.0264  -13.3847    0.0000 O   0  0  0  0  0  0  0  0  0  0  0  0
   12.3394  -12.1464    0.0000 N   0  0  0  0  0  0  0  0  0  0  0  0
   13.0557  -11.7506    0.0000 C   0  0  0  0  0  0  0  0  0  0  0  0
   13.0703  -10.9336    0.0000 C   0  0  0  0  0  0  0  0  0  0  0  0
   13.7866  -10.5378    0.0000 C   0  0  0  0  0  0  0  0  0  0  0  0
   14.4841  -10.9589    0.0000 C   0  0  0  0  0  0  0  0  0  0  0  0
   14.4695  -11.7760    0.0000 C   0  0  0  0  0  0  0  0  0  0  0  0
   13.7573  -12.1719    0.0000 C   0  0  0  0  0  0  0  0  0  0  0  0
   15.2005  -10.5631    0.0000 C   0  0  0  0  0  0  0  0  0  0  0  0
   15.2151   -9.7461    0.0000 C   0  0  0  0  0  0  0  0  0  0  0  0
   15.9314   -9.3502    0.0000 C   0  0  0  0  0  0  0  0  0  0  0  0
   12.2953  -14.6017    0.0000 N   0  0  0  0  0  0  0  0  0  0  0  0
   12.2807  -15.4188    0.0000 C   0  0  0  0  0  0  0  0  0  0  0  0
   11.5644  -15.8146    0.0000 O   0  0  0  0  0  0  0  0  0  0  0  0
   12.9823  -15.8401    0.0000 N   0  0  0  0  0  0  0  0  0  0  0  0
   12.9676  -16.6571    0.0000 C   0  0  0  0  0  0  0  0  0  0  0  0
   13.6693  -17.0784    0.0000 C   0  0  0  0  0  0  0  0  0  0  0  0
   13.6546  -17.8954    0.0000 C   0  0  0  0  0  0  0  0  0  0  0  0
   12.9383  -18.2912    0.0000 C   0  0  0  0  0  0  0  0  0  0  0  0
   12.2367  -17.8700    0.0000 C   0  0  0  0  0  0  0  0  0  0  0  0
   12.2513  -17.0529    0.0000 C   0  0  0  0  0  0  0  0  0  0  0  0
   12.9237  -19.1083    0.0000 O   0  0  0  0  0  0  0  0  0  0  0  0
   13.6253  -19.5295    0.0000 C   0  0  0  0  0  0  0  0  0  0  0  0
  1  2  1  0
  2  3  1  0
  3  4  2  0
  4  5  1  0
  5  6  2  0
  6  7  1  0
  2  7  2  0
  1  8  2  0
  1  9  1  0
 10 11  2  0
 11 12  1  0
 12 13  2  0
 13 14  1  0
 14 15  2  0
 10 15  1  0
 16 17  1  0
 17 18  1  0
 13 16  1  0
  9 10  1  0
 19 20  1  0
 20 21  2  0
 20 22  1  0
 23 24  2  0
 24 25  1  0
 25 26  2  0
 26 27  1  0
 27 28  2  0
 23 28  1  0
 29 30  1  0
 26 29  1  0
 22 23  1  0
  3 19  1  0
M  END
>  <Classification>  (342) 
1

>  <pchembl>  (342) 
6.01

>  <InChI_steorem>  (342) 
InChI=1S/C24H25N3O3/c1-3-6-17-9-11-18(12-10-17)25-23(28)21-7-4-5-8-22(21)27-24(29)26-19-13-15-20(30-2)16-14-19/h4-5,7-16H,3,6H2,1-2H3,(H,25,28)(H2,26,27,29)

>  <source>  (342) 
ChEMBL25

>  <source_id>  (342) 
25

>  <optional_reference>  (342) 
10.1016/j.bmcl.2017.09.009

>  <optional_origin>  (342) 
None

>  <target>  (342) 
BCRP

$$$$

     RDKit          2D

 27 30  0  0  0  0  0  0  0  0999 V2000
   11.0115   -3.8594    0.0000 C   0  0  0  0  0  0  0  0  0  0  0  0
   11.7206   -4.2680    0.0000 C   0  0  0  0  0  0  0  0  0  0  0  0
   11.0115   -3.0422    0.0000 O   0  0  0  0  0  0  0  0  0  0  0  0
   10.3024   -4.2680    0.0000 N   0  0  0  0  0  0  0  0  0  0  0  0
   10.3024   -5.0852    0.0000 C   0  0  0  0  0  0  0  0  0  0  0  0
    9.5975   -5.4938    0.0000 C   0  0  0  0  0  0  0  0  0  0  0  0
    9.5975   -6.3110    0.0000 C   0  0  0  0  0  0  0  0  0  0  0  0
   10.3024   -6.7196    0.0000 C   0  0  0  0  0  0  0  0  0  0  0  0
   11.0115   -6.3110    0.0000 C   0  0  0  0  0  0  0  0  0  0  0  0
   11.0115   -5.4938    0.0000 C   0  0  0  0  0  0  0  0  0  0  0  0
    8.8884   -6.7196    0.0000 N   0  0  0  0  0  0  0  0  0  0  0  0
    9.5975   -8.7626    0.0000 C   0  0  0  0  0  0  0  0  0  0  0  0
    8.8884   -9.1712    0.0000 N   0  0  0  0  0  0  0  0  0  0  0  0
    8.1834   -8.7626    0.0000 C   0  0  0  0  0  0  0  0  0  0  0  0
    8.1834   -7.9454    0.0000 C   0  0  0  0  0  0  0  0  0  0  0  0
    8.8884   -7.5368    0.0000 C   0  0  0  0  0  0  0  0  0  0  0  0
    9.5975   -7.9454    0.0000 N   0  0  0  0  0  0  0  0  0  0  0  0
    7.4743   -7.5368    0.0000 C   0  0  0  0  0  0  0  0  0  0  0  0
    6.7652   -7.9454    0.0000 C   0  0  0  0  0  0  0  0  0  0  0  0
    6.7652   -8.7626    0.0000 C   0  0  0  0  0  0  0  0  0  0  0  0
    7.4743   -9.1712    0.0000 N   0  0  0  0  0  0  0  0  0  0  0  0
   10.3024   -9.1712    0.0000 C   0  0  0  0  0  0  0  0  0  0  0  0
   10.3024   -9.9884    0.0000 C   0  0  0  0  0  0  0  0  0  0  0  0
   11.0115  -10.3970    0.0000 C   0  0  0  0  0  0  0  0  0  0  0  0
   11.7206   -9.9884    0.0000 C   0  0  0  0  0  0  0  0  0  0  0  0
   11.7206   -9.1712    0.0000 C   0  0  0  0  0  0  0  0  0  0  0  0
   11.0115   -8.7626    0.0000 C   0  0  0  0  0  0  0  0  0  0  0  0
  1  2  1  0
  1  3  2  0
  1  4  1  0
  5  6  2  0
  6  7  1  0
  7  8  2  0
  8  9  1  0
  9 10  2  0
  5 10  1  0
 12 13  2  0
 13 14  1  0
 14 15  2  0
 15 16  1  0
 16 17  2  0
 12 17  1  0
 18 19  2  0
 19 20  1  0
 20 21  2  0
 14 21  1  0
 15 18  1  0
 22 23  2  0
 23 24  1  0
 24 25  2  0
 25 26  1  0
 26 27  2  0
 22 27  1  0
 12 22  1  0
 11 16  1  0
  7 11  1  0
  4  5  1  0
M  END
>  <Classification>  (343) 
1

>  <pchembl>  (343) 
5.28

>  <InChI_steorem>  (343) 
InChI=1S/C21H17N5O/c1-14(27)23-16-9-5-10-17(13-16)24-21-18-11-6-12-22-20(18)25-19(26-21)15-7-3-2-4-8-15/h2-13H,1H3,(H,23,27)(H,22,24,25,26)

>  <source>  (343) 
ChEMBL25

>  <source_id>  (343) 
25

>  <optional_reference>  (343) 
10.1021/acs.jmedchem.7b01012

>  <optional_origin>  (343) 
None

>  <target>  (343) 
BCRP

$$$$

     RDKit          2D

 27 30  0  0  0  0  0  0  0  0999 V2000
    8.1379   -7.9912    0.0000 C   0  0  0  0  0  0  0  0  0  0  0  0
    7.4288   -8.3998    0.0000 N   0  0  0  0  0  0  0  0  0  0  0  0
    6.7197   -7.9912    0.0000 C   0  0  0  0  0  0  0  0  0  0  0  0
    6.7197   -7.1740    0.0000 C   0  0  0  0  0  0  0  0  0  0  0  0
    7.4288   -6.7654    0.0000 C   0  0  0  0  0  0  0  0  0  0  0  0
    8.1379   -7.1740    0.0000 N   0  0  0  0  0  0  0  0  0  0  0  0
    6.0147   -6.7654    0.0000 C   0  0  0  0  0  0  0  0  0  0  0  0
    5.3056   -7.1740    0.0000 C   0  0  0  0  0  0  0  0  0  0  0  0
    5.3056   -7.9912    0.0000 C   0  0  0  0  0  0  0  0  0  0  0  0
    6.0147   -8.3998    0.0000 N   0  0  0  0  0  0  0  0  0  0  0  0
    7.4288   -5.9483    0.0000 N   0  0  0  0  0  0  0  0  0  0  0  0
    8.1379   -5.5397    0.0000 C   0  0  0  0  0  0  0  0  0  0  0  0
    8.8470   -5.9483    0.0000 C   0  0  0  0  0  0  0  0  0  0  0  0
    9.5519   -5.5397    0.0000 C   0  0  0  0  0  0  0  0  0  0  0  0
    9.5519   -4.7225    0.0000 C   0  0  0  0  0  0  0  0  0  0  0  0
    8.8470   -4.3139    0.0000 C   0  0  0  0  0  0  0  0  0  0  0  0
    8.1379   -4.7225    0.0000 C   0  0  0  0  0  0  0  0  0  0  0  0
   10.2610   -5.9483    0.0000 S   0  0  0  0  0  0  0  0  0  0  0  0
   10.9701   -5.5397    0.0000 C   0  0  0  0  0  0  0  0  0  0  0  0
    8.8470   -8.3998    0.0000 C   0  0  0  0  0  0  0  0  0  0  0  0
    8.8470   -9.2170    0.0000 C   0  0  0  0  0  0  0  0  0  0  0  0
    9.5519   -9.6256    0.0000 C   0  0  0  0  0  0  0  0  0  0  0  0
   10.2610   -9.2170    0.0000 C   0  0  0  0  0  0  0  0  0  0  0  0
   10.2610   -8.3998    0.0000 C   0  0  0  0  0  0  0  0  0  0  0  0
    9.5519   -7.9912    0.0000 C   0  0  0  0  0  0  0  0  0  0  0  0
    9.5519  -10.4428    0.0000 O   0  0  0  0  0  0  0  0  0  0  0  0
   10.2610  -10.8514    0.0000 C   0  0  0  0  0  0  0  0  0  0  0  0
  1  2  2  0
  2  3  1  0
  3  4  2  0
  4  5  1  0
  5  6  2  0
  1  6  1  0
  7  8  2  0
  8  9  1  0
  9 10  2  0
  3 10  1  0
  4  7  1  0
  5 11  1  0
 12 13  2  0
 13 14  1  0
 14 15  2  0
 15 16  1  0
 16 17  2  0
 12 17  1  0
 18 19  1  0
 14 18  1  0
 11 12  1  0
 20 21  2  0
 21 22  1  0
 22 23  2  0
 23 24  1  0
 24 25  2  0
 20 25  1  0
 26 27  1  0
 22 26  1  0
  1 20  1  0
M  END
>  <Classification>  (344) 
1

>  <pchembl>  (344) 
6.04

>  <InChI_steorem>  (344) 
InChI=1S/C21H18N4OS/c1-26-16-8-3-6-14(12-16)19-24-20-18(10-5-11-22-20)21(25-19)23-15-7-4-9-17(13-15)27-2/h3-13H,1-2H3,(H,22,23,24,25)

>  <source>  (344) 
ChEMBL25

>  <source_id>  (344) 
25

>  <optional_reference>  (344) 
10.1021/acs.jmedchem.7b01012

>  <optional_origin>  (344) 
None

>  <target>  (344) 
BCRP

$$$$

     RDKit          2D

 26 29  0  0  0  0  0  0  0  0999 V2000
   16.3912   -9.9177    0.0000 C   0  0  0  0  0  0  0  0  0  0  0  0
   15.6821  -10.3263    0.0000 N   0  0  0  0  0  0  0  0  0  0  0  0
   14.9771   -9.9177    0.0000 C   0  0  0  0  0  0  0  0  0  0  0  0
   14.9771   -9.1005    0.0000 C   0  0  0  0  0  0  0  0  0  0  0  0
   15.6821   -8.6919    0.0000 C   0  0  0  0  0  0  0  0  0  0  0  0
   16.3912   -9.1005    0.0000 N   0  0  0  0  0  0  0  0  0  0  0  0
   14.2680   -8.6919    0.0000 C   0  0  0  0  0  0  0  0  0  0  0  0
   13.5589   -9.1005    0.0000 C   0  0  0  0  0  0  0  0  0  0  0  0
   13.5589   -9.9177    0.0000 C   0  0  0  0  0  0  0  0  0  0  0  0
   14.2680  -10.3263    0.0000 N   0  0  0  0  0  0  0  0  0  0  0  0
   15.6821   -7.8706    0.0000 N   0  0  0  0  0  0  0  0  0  0  0  0
   17.0961  -10.3263    0.0000 C   0  0  0  0  0  0  0  0  0  0  0  0
   17.0961  -11.1435    0.0000 C   0  0  0  0  0  0  0  0  0  0  0  0
   17.8052  -11.5521    0.0000 C   0  0  0  0  0  0  0  0  0  0  0  0
   18.5143  -11.1435    0.0000 C   0  0  0  0  0  0  0  0  0  0  0  0
   18.5143  -10.3263    0.0000 C   0  0  0  0  0  0  0  0  0  0  0  0
   17.8052   -9.9177    0.0000 C   0  0  0  0  0  0  0  0  0  0  0  0
   16.3912   -7.4620    0.0000 C   0  0  0  0  0  0  0  0  0  0  0  0
   17.0961   -7.8706    0.0000 C   0  0  0  0  0  0  0  0  0  0  0  0
   17.8052   -7.4620    0.0000 C   0  0  0  0  0  0  0  0  0  0  0  0
   17.8052   -6.6448    0.0000 C   0  0  0  0  0  0  0  0  0  0  0  0
   17.0961   -6.2404    0.0000 C   0  0  0  0  0  0  0  0  0  0  0  0
   16.3912   -6.6448    0.0000 C   0  0  0  0  0  0  0  0  0  0  0  0
   18.5143   -7.8706    0.0000 N   0  0  0  0  0  0  0  0  0  0  0  0
   18.5143   -8.6919    0.0000 O   0  0  0  0  0  0  0  0  0  0  0  0
   19.2234   -7.4620    0.0000 O   0  0  0  0  0  0  0  0  0  0  0  0
  1  2  2  0
  2  3  1  0
  3  4  2  0
  4  5  1  0
  5  6  2  0
  1  6  1  0
  7  8  2  0
  8  9  1  0
  9 10  2  0
  3 10  1  0
  4  7  1  0
  5 11  1  0
 12 13  2  0
 13 14  1  0
 14 15  2  0
 15 16  1  0
 16 17  2  0
 12 17  1  0
  1 12  1  0
 18 19  2  0
 19 20  1  0
 20 21  2  0
 21 22  1  0
 22 23  2  0
 18 23  1  0
 24 25  2  0
 24 26  1  0
 20 24  1  0
 11 18  1  0
M  CHG  2  24   1  26  -1
M  END
>  <Classification>  (345) 
1

>  <pchembl>  (345) 
6.29

>  <InChI_steorem>  (345) 
InChI=1S/C19H13N5O2/c25-24(26)15-9-4-8-14(12-15)21-19-16-10-5-11-20-18(16)22-17(23-19)13-6-2-1-3-7-13/h1-12H,(H,20,21,22,23)

>  <source>  (345) 
ChEMBL25

>  <source_id>  (345) 
25

>  <optional_reference>  (345) 
10.1021/acs.jmedchem.7b01012

>  <optional_origin>  (345) 
None

>  <target>  (345) 
BCRP

$$$$

     RDKit          2D

 27 30  0  0  0  0  0  0  0  0999 V2000
   11.6786   -4.3047    0.0000 C   0  0  0  0  0  0  0  0  0  0  0  0
   11.6568   -5.1215    0.0000 C   0  0  0  0  0  0  0  0  0  0  0  0
   10.9412   -5.5142    0.0000 C   0  0  0  0  0  0  0  0  0  0  0  0
   10.9194   -6.3310    0.0000 C   0  0  0  0  0  0  0  0  0  0  0  0
   11.6133   -6.7552    0.0000 C   0  0  0  0  0  0  0  0  0  0  0  0
   12.3329   -6.3668    0.0000 C   0  0  0  0  0  0  0  0  0  0  0  0
   12.3547   -5.5500    0.0000 C   0  0  0  0  0  0  0  0  0  0  0  0
   11.7004   -3.4879    0.0000 N   0  0  0  0  0  0  0  0  0  0  0  0
   10.1998   -6.7194    0.0000 N   0  0  0  0  0  0  0  0  0  0  0  0
   10.8540   -8.7815    0.0000 C   0  0  0  0  0  0  0  0  0  0  0  0
   10.1344   -9.1698    0.0000 N   0  0  0  0  0  0  0  0  0  0  0  0
    9.4365   -8.7414    0.0000 C   0  0  0  0  0  0  0  0  0  0  0  0
    9.4583   -7.9246    0.0000 C   0  0  0  0  0  0  0  0  0  0  0  0
   10.1780   -7.5362    0.0000 C   0  0  0  0  0  0  0  0  0  0  0  0
   10.8758   -7.9647    0.0000 N   0  0  0  0  0  0  0  0  0  0  0  0
    8.7603   -7.5002    0.0000 C   0  0  0  0  0  0  0  0  0  0  0  0
    8.0448   -7.8888    0.0000 C   0  0  0  0  0  0  0  0  0  0  0  0
    8.0230   -8.7056    0.0000 C   0  0  0  0  0  0  0  0  0  0  0  0
    8.7209   -9.1341    0.0000 N   0  0  0  0  0  0  0  0  0  0  0  0
   11.5479   -9.2056    0.0000 C   0  0  0  0  0  0  0  0  0  0  0  0
   11.5261  -10.0224    0.0000 C   0  0  0  0  0  0  0  0  0  0  0  0
   12.2239  -10.4509    0.0000 C   0  0  0  0  0  0  0  0  0  0  0  0
   12.9435  -10.0625    0.0000 C   0  0  0  0  0  0  0  0  0  0  0  0
   12.9653   -9.2457    0.0000 C   0  0  0  0  0  0  0  0  0  0  0  0
   12.2675   -8.8173    0.0000 C   0  0  0  0  0  0  0  0  0  0  0  0
   12.2021  -11.2677    0.0000 O   0  0  0  0  0  0  0  0  0  0  0  0
   12.8999  -11.6962    0.0000 C   0  0  0  0  0  0  0  0  0  0  0  0
  1  2  1  0
  2  3  2  0
  3  4  1  0
  4  5  2  0
  5  6  1  0
  6  7  2  0
  2  7  1  0
  1  8  3  0
 10 11  2  0
 11 12  1  0
 12 13  2  0
 13 14  1  0
 14 15  2  0
 10 15  1  0
 16 17  2  0
 17 18  1  0
 18 19  2  0
 12 19  1  0
 13 16  1  0
 20 21  2  0
 21 22  1  0
 22 23  2  0
 23 24  1  0
 24 25  2  0
 20 25  1  0
 26 27  1  0
 22 26  1  0
 10 20  1  0
  9 14  1  0
  4  9  1  0
M  END
>  <Classification>  (346) 
1

>  <pchembl>  (346) 
6.46

>  <InChI_steorem>  (346) 
InChI=1S/C21H15N5O/c1-27-17-8-3-6-15(12-17)19-25-20-18(9-4-10-23-20)21(26-19)24-16-7-2-5-14(11-16)13-22/h2-12H,1H3,(H,23,24,25,26)

>  <source>  (346) 
ChEMBL25

>  <source_id>  (346) 
25

>  <optional_reference>  (346) 
10.1021/acs.jmedchem.7b01012

>  <optional_origin>  (346) 
None

>  <target>  (346) 
BCRP

$$$$

     RDKit          2D

 29 32  0  0  0  0  0  0  0  0999 V2000
    8.9850   -7.1410    0.0000 C   0  0  0  0  0  0  0  0  0  0  0  0
    8.2760   -7.5496    0.0000 N   0  0  0  0  0  0  0  0  0  0  0  0
    7.5710   -7.1410    0.0000 C   0  0  0  0  0  0  0  0  0  0  0  0
    7.5710   -6.3238    0.0000 C   0  0  0  0  0  0  0  0  0  0  0  0
    8.2760   -5.9152    0.0000 C   0  0  0  0  0  0  0  0  0  0  0  0
    8.9850   -6.3238    0.0000 N   0  0  0  0  0  0  0  0  0  0  0  0
    6.8619   -5.9152    0.0000 C   0  0  0  0  0  0  0  0  0  0  0  0
    6.1569   -6.3238    0.0000 C   0  0  0  0  0  0  0  0  0  0  0  0
    6.1569   -7.1410    0.0000 C   0  0  0  0  0  0  0  0  0  0  0  0
    6.8619   -7.5496    0.0000 N   0  0  0  0  0  0  0  0  0  0  0  0
    8.2760   -5.0980    0.0000 N   0  0  0  0  0  0  0  0  0  0  0  0
    8.9850   -4.6894    0.0000 C   0  0  0  0  0  0  0  0  0  0  0  0
    9.6941   -5.0980    0.0000 C   0  0  0  0  0  0  0  0  0  0  0  0
   10.4032   -4.6894    0.0000 C   0  0  0  0  0  0  0  0  0  0  0  0
   10.4032   -3.8723    0.0000 C   0  0  0  0  0  0  0  0  0  0  0  0
    9.6941   -3.4637    0.0000 C   0  0  0  0  0  0  0  0  0  0  0  0
    8.9850   -3.8723    0.0000 C   0  0  0  0  0  0  0  0  0  0  0  0
   11.1082   -5.0980    0.0000 C   0  0  0  0  0  0  0  0  0  0  0  0
    9.6941   -7.5496    0.0000 C   0  0  0  0  0  0  0  0  0  0  0  0
    9.6941   -8.3668    0.0000 C   0  0  0  0  0  0  0  0  0  0  0  0
   10.4032   -8.7754    0.0000 C   0  0  0  0  0  0  0  0  0  0  0  0
   11.1082   -8.3668    0.0000 C   0  0  0  0  0  0  0  0  0  0  0  0
   11.1082   -7.5496    0.0000 C   0  0  0  0  0  0  0  0  0  0  0  0
   10.4032   -7.1410    0.0000 C   0  0  0  0  0  0  0  0  0  0  0  0
   10.4032   -9.5926    0.0000 O   0  0  0  0  0  0  0  0  0  0  0  0
   11.1082  -10.0012    0.0000 C   0  0  0  0  0  0  0  0  0  0  0  0
   11.1068   -5.9152    0.0000 F   0  0  0  0  0  0  0  0  0  0  0  0
   11.8166   -4.6906    0.0000 F   0  0  0  0  0  0  0  0  0  0  0  0
   11.8121   -5.5057    0.0000 F   0  0  0  0  0  0  0  0  0  0  0  0
  1  2  2  0
  2  3  1  0
  3  4  2  0
  4  5  1  0
  5  6  2  0
  1  6  1  0
  7  8  2  0
  8  9  1  0
  9 10  2  0
  3 10  1  0
  4  7  1  0
  5 11  1  0
 12 13  2  0
 13 14  1  0
 14 15  2  0
 15 16  1  0
 16 17  2  0
 12 17  1  0
 14 18  1  0
 11 12  1  0
 19 20  2  0
 20 21  1  0
 21 22  2  0
 22 23  1  0
 23 24  2  0
 19 24  1  0
 25 26  1  0
 21 25  1  0
  1 19  1  0
 18 27  1  0
 18 28  1  0
 18 29  1  0
M  END
>  <Classification>  (347) 
1

>  <pchembl>  (347) 
6.27

>  <InChI_steorem>  (347) 
InChI=1S/C21H15F3N4O/c1-29-16-8-2-5-13(11-16)18-27-19-17(9-4-10-25-19)20(28-18)26-15-7-3-6-14(12-15)21(22,23)24/h2-12H,1H3,(H,25,26,27,28)

>  <source>  (347) 
ChEMBL25

>  <source_id>  (347) 
25

>  <optional_reference>  (347) 
10.1021/acs.jmedchem.7b01012

>  <optional_origin>  (347) 
None

>  <target>  (347) 
BCRP

$$$$

     RDKit          2D

 29 32  0  0  0  0  0  0  0  0999 V2000
   17.5496  -14.3706    0.0000 C   0  0  0  0  0  0  0  0  0  0  0  0
   16.8374  -14.7715    0.0000 C   0  0  0  0  0  0  0  0  0  0  0  0
   16.1336  -14.3540    0.0000 C   0  0  0  0  0  0  0  0  0  0  0  0
   15.4214  -14.7548    0.0000 C   0  0  0  0  0  0  0  0  0  0  0  0
   15.4132  -15.5732    0.0000 C   0  0  0  0  0  0  0  0  0  0  0  0
   16.1150  -15.9871    0.0000 C   0  0  0  0  0  0  0  0  0  0  0  0
   16.8272  -15.5862    0.0000 C   0  0  0  0  0  0  0  0  0  0  0  0
   18.2514  -14.7845    0.0000 O   0  0  0  0  0  0  0  0  0  0  0  0
   17.5578  -13.5523    0.0000 N   0  0  0  0  0  0  0  0  0  0  0  0
   14.7011  -15.9740    0.0000 N   0  0  0  0  0  0  0  0  0  0  0  0
   16.8560  -13.1384    0.0000 C   0  0  0  0  0  0  0  0  0  0  0  0
   16.8642  -12.3200    0.0000 C   0  0  0  0  0  0  0  0  0  0  0  0
   16.1603  -11.9025    0.0000 C   0  0  0  0  0  0  0  0  0  0  0  0
   15.4482  -12.3034    0.0000 C   0  0  0  0  0  0  0  0  0  0  0  0
   15.4399  -13.1217    0.0000 C   0  0  0  0  0  0  0  0  0  0  0  0
   16.1438  -13.5392    0.0000 C   0  0  0  0  0  0  0  0  0  0  0  0
   18.3181  -12.2581    0.0000 N   0  0  0  0  0  0  0  0  0  0  0  0
   18.8725  -11.6585    0.0000 N   0  0  0  0  0  0  0  0  0  0  0  0
   18.4716  -10.9464    0.0000 N   0  0  0  0  0  0  0  0  0  0  0  0
   17.6694  -11.1057    0.0000 N   0  0  0  0  0  0  0  0  0  0  0  0
   17.5763  -11.9192    0.0000 C   0  0  0  0  0  0  0  0  0  0  0  0
   19.6860  -11.7516    0.0000 C   0  0  0  0  0  0  0  0  0  0  0  0
   20.0087  -12.5046    0.0000 C   0  0  0  0  0  0  0  0  0  0  0  0
   20.8202  -12.5941    0.0000 C   0  0  0  0  0  0  0  0  0  0  0  0
   21.3094  -11.9397    0.0000 C   0  0  0  0  0  0  0  0  0  0  0  0
   20.9851  -11.1923    0.0000 C   0  0  0  0  0  0  0  0  0  0  0  0
   20.1732  -11.0936    0.0000 C   0  0  0  0  0  0  0  0  0  0  0  0
   21.1465  -13.3451    0.0000 O   0  0  0  0  0  0  0  0  0  0  0  0
   21.9564  -13.4402    0.0000 C   0  0  0  0  0  0  0  0  0  0  0  0
  1  2  1  0
  2  3  2  0
  3  4  1  0
  4  5  2  0
  5  6  1  0
  6  7  2  0
  2  7  1  0
  1  8  2  0
  1  9  1  0
  5 10  1  0
 11 12  1  0
 12 13  2  0
 13 14  1  0
 14 15  2  0
 15 16  1  0
 11 16  2  0
 17 18  1  0
 18 19  1  0
 19 20  2  0
 20 21  1  0
 17 21  2  0
 22 23  2  0
 23 24  1  0
 24 25  2  0
 25 26  1  0
 26 27  2  0
 22 27  1  0
 28 29  1  0
 24 28  1  0
 18 22  1  0
 12 21  1  0
  9 11  1  0
M  END
>  <Classification>  (348) 
1

>  <pchembl>  (348) 
6.52

>  <InChI_steorem>  (348) 
InChI=1S/C21H18N6O2/c1-29-17-6-4-5-16(13-17)27-25-20(24-26-27)18-7-2-3-8-19(18)23-21(28)14-9-11-15(22)12-10-14/h2-13H,22H2,1H3,(H,23,28)

>  <source>  (348) 
ChEMBL25

>  <source_id>  (348) 
25

>  <optional_reference>  (348) 
10.1016/j.bmcl.2017.09.009

>  <optional_origin>  (348) 
None

>  <target>  (348) 
BCRP

$$$$

     RDKit          2D

 31 33  0  0  0  0  0  0  0  0999 V2000
   14.1682   -9.0599    0.0000 C   0  0  0  0  0  0  0  0  0  0  0  0
   13.4715   -9.4824    0.0000 C   0  0  0  0  0  0  0  0  0  0  0  0
   13.4879  -10.2995    0.0000 C   0  0  0  0  0  0  0  0  0  0  0  0
   12.7871  -10.7221    0.0000 C   0  0  0  0  0  0  0  0  0  0  0  0
   12.0700  -10.3278    0.0000 C   0  0  0  0  0  0  0  0  0  0  0  0
   12.0536   -9.5108    0.0000 C   0  0  0  0  0  0  0  0  0  0  0  0
   12.7544   -9.0881    0.0000 C   0  0  0  0  0  0  0  0  0  0  0  0
   14.8853   -9.4542    0.0000 O   0  0  0  0  0  0  0  0  0  0  0  0
   14.1519   -8.2428    0.0000 N   0  0  0  0  0  0  0  0  0  0  0  0
   14.8527   -7.8202    0.0000 C   0  0  0  0  0  0  0  0  0  0  0  0
   14.8364   -7.0031    0.0000 C   0  0  0  0  0  0  0  0  0  0  0  0
   15.5372   -6.5805    0.0000 C   0  0  0  0  0  0  0  0  0  0  0  0
   16.2543   -6.9748    0.0000 C   0  0  0  0  0  0  0  0  0  0  0  0
   16.2706   -7.7919    0.0000 C   0  0  0  0  0  0  0  0  0  0  0  0
   15.5698   -8.2145    0.0000 C   0  0  0  0  0  0  0  0  0  0  0  0
   16.9509   -6.5522    0.0000 C   0  0  0  0  0  0  0  0  0  0  0  0
   16.9346   -5.7352    0.0000 C   0  0  0  0  0  0  0  0  0  0  0  0
   17.6354   -5.3125    0.0000 C   0  0  0  0  0  0  0  0  0  0  0  0
   14.2008  -10.6939    0.0000 N   0  0  0  0  0  0  0  0  0  0  0  0
   14.2171  -11.5109    0.0000 C   0  0  0  0  0  0  0  0  0  0  0  0
   13.5205  -11.9335    0.0000 O   0  0  0  0  0  0  0  0  0  0  0  0
   14.9343  -11.9053    0.0000 N   0  0  0  0  0  0  0  0  0  0  0  0
   14.9506  -12.7223    0.0000 C   0  0  0  0  0  0  0  0  0  0  0  0
   15.6677  -13.1167    0.0000 C   0  0  0  0  0  0  0  0  0  0  0  0
   15.6840  -13.9337    0.0000 C   0  0  0  0  0  0  0  0  0  0  0  0
   14.9832  -14.3564    0.0000 C   0  0  0  0  0  0  0  0  0  0  0  0
   14.2661  -13.9620    0.0000 C   0  0  0  0  0  0  0  0  0  0  0  0
   14.2498  -13.1450    0.0000 C   0  0  0  0  0  0  0  0  0  0  0  0
   16.4011  -14.3281    0.0000 N   0  0  0  0  0  0  0  0  0  0  0  0
   17.0978  -13.9055    0.0000 O   0  0  0  0  0  0  0  0  0  0  0  0
   16.4174  -15.1451    0.0000 O   0  0  0  0  0  0  0  0  0  0  0  0
  1  2  1  0
  2  3  1  0
  3  4  2  0
  4  5  1  0
  5  6  2  0
  6  7  1  0
  2  7  2  0
  1  8  2  0
  1  9  1  0
 10 11  2  0
 11 12  1  0
 12 13  2  0
 13 14  1  0
 14 15  2  0
 10 15  1  0
 16 17  1  0
 17 18  1  0
 13 16  1  0
  9 10  1  0
 19 20  1  0
 20 21  2  0
 20 22  1  0
 23 24  2  0
 24 25  1  0
 25 26  2  0
 26 27  1  0
 27 28  2  0
 23 28  1  0
 29 30  2  0
 29 31  1  0
 25 29  1  0
 22 23  1  0
  3 19  1  0
M  CHG  2  29   1  31  -1
M  END
>  <Classification>  (349) 
1

>  <pchembl>  (349) 
6.46

>  <InChI_steorem>  (349) 
InChI=1S/C23H22N4O4/c1-2-6-16-11-13-17(14-12-16)24-22(28)20-9-3-4-10-21(20)26-23(29)25-18-7-5-8-19(15-18)27(30)31/h3-5,7-15H,2,6H2,1H3,(H,24,28)(H2,25,26,29)

>  <source>  (349) 
ChEMBL25

>  <source_id>  (349) 
25

>  <optional_reference>  (349) 
10.1016/j.bmcl.2017.09.009

>  <optional_origin>  (349) 
None

>  <target>  (349) 
BCRP

$$$$

     RDKit          2D

 31 34  0  0  0  0  0  0  0  0999 V2000
   14.0918  -12.2631    0.0000 C   0  0  0  0  0  0  0  0  0  0  0  0
   13.3837  -12.6753    0.0000 C   0  0  0  0  0  0  0  0  0  0  0  0
   12.6715  -12.2608    0.0000 C   0  0  0  0  0  0  0  0  0  0  0  0
   11.9594  -12.6730    0.0000 C   0  0  0  0  0  0  0  0  0  0  0  0
   11.9594  -13.4955    0.0000 C   0  0  0  0  0  0  0  0  0  0  0  0
   12.6696  -13.9022    0.0000 C   0  0  0  0  0  0  0  0  0  0  0  0
   13.3817  -13.4942    0.0000 C   0  0  0  0  0  0  0  0  0  0  0  0
   14.8019  -12.6740    0.0000 O   0  0  0  0  0  0  0  0  0  0  0  0
   14.0917  -11.4406    0.0000 N   0  0  0  0  0  0  0  0  0  0  0  0
   11.2473  -13.9035    0.0000 C   0  0  0  0  0  0  0  0  0  0  0  0
   11.2453  -14.7225    0.0000 C   0  0  0  0  0  0  0  0  0  0  0  0
   10.5331  -15.1346    0.0000 C   0  0  0  0  0  0  0  0  0  0  0  0
   13.3836  -11.0302    0.0000 C   0  0  0  0  0  0  0  0  0  0  0  0
   13.3856  -10.2113    0.0000 C   0  0  0  0  0  0  0  0  0  0  0  0
   12.6734   -9.7968    0.0000 C   0  0  0  0  0  0  0  0  0  0  0  0
   11.9613  -10.2090    0.0000 C   0  0  0  0  0  0  0  0  0  0  0  0
   11.9613  -11.0315    0.0000 C   0  0  0  0  0  0  0  0  0  0  0  0
   12.6715  -11.4383    0.0000 C   0  0  0  0  0  0  0  0  0  0  0  0
   14.8429  -10.1346    0.0000 N   0  0  0  0  0  0  0  0  0  0  0  0
   15.3953   -9.5253    0.0000 N   0  0  0  0  0  0  0  0  0  0  0  0
   14.9873   -8.8131    0.0000 N   0  0  0  0  0  0  0  0  0  0  0  0
   14.1826   -8.9806    0.0000 N   0  0  0  0  0  0  0  0  0  0  0  0
   14.0937   -9.7991    0.0000 C   0  0  0  0  0  0  0  0  0  0  0  0
   16.2103   -9.6122    0.0000 C   0  0  0  0  0  0  0  0  0  0  0  0
   16.5422  -10.3604    0.0000 C   0  0  0  0  0  0  0  0  0  0  0  0
   17.3571  -10.4473    0.0000 C   0  0  0  0  0  0  0  0  0  0  0  0
   17.8438   -9.7838    0.0000 C   0  0  0  0  0  0  0  0  0  0  0  0
   17.5135   -9.0300    0.0000 C   0  0  0  0  0  0  0  0  0  0  0  0
   16.6949   -8.9452    0.0000 C   0  0  0  0  0  0  0  0  0  0  0  0
   17.6952  -11.1991    0.0000 O   0  0  0  0  0  0  0  0  0  0  0  0
   18.5137  -11.2839    0.0000 C   0  0  0  0  0  0  0  0  0  0  0  0
  1  2  1  0
  2  3  2  0
  3  4  1  0
  4  5  2  0
  5  6  1  0
  6  7  2  0
  2  7  1  0
  1  8  2  0
  1  9  1  0
 10 11  1  0
 11 12  1  0
  5 10  1  0
 13 14  1  0
 14 15  2  0
 15 16  1  0
 16 17  2  0
 17 18  1  0
 13 18  2  0
 19 20  1  0
 20 21  1  0
 21 22  2  0
 22 23  1  0
 19 23  2  0
 24 25  2  0
 25 26  1  0
 26 27  2  0
 27 28  1  0
 28 29  2  0
 24 29  1  0
 30 31  1  0
 26 30  1  0
 20 24  1  0
 14 23  1  0
  9 13  1  0
M  END
>  <Classification>  (350) 
1

>  <pchembl>  (350) 
6.88

>  <InChI_steorem>  (350) 
InChI=1S/C24H23N5O2/c1-3-7-17-12-14-18(15-13-17)24(30)25-22-11-5-4-10-21(22)23-26-28-29(27-23)19-8-6-9-20(16-19)31-2/h4-6,8-16H,3,7H2,1-2H3,(H,25,30)

>  <source>  (350) 
ChEMBL25

>  <source_id>  (350) 
25

>  <optional_reference>  (350) 
10.1016/j.bmcl.2017.09.009

>  <optional_origin>  (350) 
None

>  <target>  (350) 
BCRP

$$$$

     RDKit          2D

 22 24  0  0  0  0  0  0  0  0999 V2000
   34.6860  -13.5089    0.0000 C   0  0  0  0  0  0  0  0  0  0  0  0
   34.6868  -14.3279    0.0000 C   0  0  0  0  0  0  0  0  0  0  0  0
   35.3953  -14.7350    0.0000 N   0  0  0  0  0  0  0  0  0  0  0  0
   36.1036  -14.3242    0.0000 C   0  0  0  0  0  0  0  0  0  0  0  0
   36.0989  -13.5020    0.0000 N   0  0  0  0  0  0  0  0  0  0  0  0
   35.3897  -13.0987    0.0000 C   0  0  0  0  0  0  0  0  0  0  0  0
   35.3854  -12.2815    0.0000 N   0  0  0  0  0  0  0  0  0  0  0  0
   36.0909  -11.8692    0.0000 C   0  0  0  0  0  0  0  0  0  0  0  0
   36.7962  -12.2774    0.0000 C   0  0  0  0  0  0  0  0  0  0  0  0
   37.5013  -11.8657    0.0000 C   0  0  0  0  0  0  0  0  0  0  0  0
   37.4974  -11.0477    0.0000 C   0  0  0  0  0  0  0  0  0  0  0  0
   36.7825  -10.6430    0.0000 C   0  0  0  0  0  0  0  0  0  0  0  0
   36.0804  -11.0570    0.0000 C   0  0  0  0  0  0  0  0  0  0  0  0
   36.8093  -14.7259    0.0000 C   0  0  0  0  0  0  0  0  0  0  0  0
   36.8112  -15.5442    0.0000 C   0  0  0  0  0  0  0  0  0  0  0  0
   37.5196  -15.9500    0.0000 C   0  0  0  0  0  0  0  0  0  0  0  0
   38.2267  -15.5386    0.0000 C   0  0  0  0  0  0  0  0  0  0  0  0
   38.2209  -14.7172    0.0000 C   0  0  0  0  0  0  0  0  0  0  0  0
   37.5119  -14.3151    0.0000 C   0  0  0  0  0  0  0  0  0  0  0  0
   33.9797  -14.7376    0.0000 C   0  0  0  0  0  0  0  0  0  0  0  0
   36.7720   -9.8278    0.0000 C   0  0  0  0  0  0  0  0  0  0  0  0
   36.7648   -9.0106    0.0000 N   0  0  0  0  0  0  0  0  0  0  0  0
  1  2  2  0
  2  3  1  0
  3  4  2  0
  4  5  1  0
  5  6  2  0
  6  1  1  0
  6  7  1  0
  7  8  1  0
  8  9  2  0
  9 10  1  0
 10 11  2  0
 11 12  1  0
 12 13  2  0
 13  8  1  0
 14 15  2  0
 15 16  1  0
 16 17  2  0
 17 18  1  0
 18 19  2  0
 19 14  1  0
  4 14  1  0
  2 20  1  0
 21 22  3  0
 12 21  1  0
M  END
>  <Classification>  (351) 
1

>  <pchembl>  (351) 
6.91

>  <InChI_steorem>  (351) 
InChI=1S/C18H14N4/c1-13-10-17(21-16-9-5-6-14(11-16)12-19)22-18(20-13)15-7-3-2-4-8-15/h2-11H,1H3,(H,20,21,22)

>  <source>  (351) 
ChEMBL25

>  <source_id>  (351) 
25

>  <optional_reference>  (351) 
10.1021/acs.jmedchem.7b00441

>  <optional_origin>  (351) 
None

>  <target>  (351) 
BCRP

$$$$

     RDKit          2D

 26 29  0  0  0  0  0  0  0  0999 V2000
   20.4077  -21.4781    0.0000 C   0  0  0  0  0  0  0  0  0  0  0  0
   20.4066  -22.2976    0.0000 C   0  0  0  0  0  0  0  0  0  0  0  0
   21.1146  -22.7066    0.0000 C   0  0  0  0  0  0  0  0  0  0  0  0
   21.1128  -21.0692    0.0000 C   0  0  0  0  0  0  0  0  0  0  0  0
   21.8215  -21.4745    0.0000 C   0  0  0  0  0  0  0  0  0  0  0  0
   21.8222  -22.2935    0.0000 C   0  0  0  0  0  0  0  0  0  0  0  0
   22.5308  -22.7005    0.0000 N   0  0  0  0  0  0  0  0  0  0  0  0
   23.2390  -22.2897    0.0000 C   0  0  0  0  0  0  0  0  0  0  0  0
   23.2343  -21.4676    0.0000 N   0  0  0  0  0  0  0  0  0  0  0  0
   22.5252  -21.0642    0.0000 C   0  0  0  0  0  0  0  0  0  0  0  0
   22.5208  -20.2470    0.0000 N   0  0  0  0  0  0  0  0  0  0  0  0
   23.2264  -19.8347    0.0000 C   0  0  0  0  0  0  0  0  0  0  0  0
   23.9317  -20.2429    0.0000 C   0  0  0  0  0  0  0  0  0  0  0  0
   24.6367  -19.8313    0.0000 C   0  0  0  0  0  0  0  0  0  0  0  0
   24.6328  -19.0132    0.0000 C   0  0  0  0  0  0  0  0  0  0  0  0
   23.9180  -18.6086    0.0000 C   0  0  0  0  0  0  0  0  0  0  0  0
   23.2159  -19.0226    0.0000 C   0  0  0  0  0  0  0  0  0  0  0  0
   23.9448  -22.6915    0.0000 C   0  0  0  0  0  0  0  0  0  0  0  0
   23.9466  -23.5098    0.0000 C   0  0  0  0  0  0  0  0  0  0  0  0
   24.6551  -23.9155    0.0000 N   0  0  0  0  0  0  0  0  0  0  0  0
   25.3621  -23.5041    0.0000 C   0  0  0  0  0  0  0  0  0  0  0  0
   25.3563  -22.6827    0.0000 C   0  0  0  0  0  0  0  0  0  0  0  0
   24.6473  -22.2807    0.0000 C   0  0  0  0  0  0  0  0  0  0  0  0
   23.9108  -17.7914    0.0000 N   0  0  0  0  0  0  0  0  0  0  0  0
   24.6148  -17.3766    0.0000 C   0  0  0  0  0  0  0  0  0  0  0  0
   23.1995  -17.3891    0.0000 C   0  0  0  0  0  0  0  0  0  0  0  0
  1  2  2  0
  2  3  1  0
  3  6  2  0
  5  4  2  0
  4  1  1  0
  5  6  1  0
  6  7  1  0
  7  8  2  0
  8  9  1  0
  9 10  2  0
 10  5  1  0
 10 11  1  0
 11 12  1  0
 12 13  2  0
 13 14  1  0
 14 15  2  0
 15 16  1  0
 16 17  2  0
 17 12  1  0
 18 19  2  0
 19 20  1  0
 20 21  2  0
 21 22  1  0
 22 23  2  0
 23 18  1  0
  8 18  1  0
 16 24  1  0
 24 25  1  0
 24 26  1  0
M  END
>  <Classification>  (352) 
1

>  <pchembl>  (352) 
5.92

>  <InChI_steorem>  (352) 
InChI=1S/C21H19N5/c1-26(2)17-9-5-8-16(13-17)23-21-18-10-3-4-11-19(18)24-20(25-21)15-7-6-12-22-14-15/h3-14H,1-2H3,(H,23,24,25)

>  <source>  (352) 
ChEMBL25

>  <source_id>  (352) 
25

>  <optional_reference>  (352) 
10.1021/acs.jmedchem.7b00441

>  <optional_origin>  (352) 
None

>  <target>  (352) 
BCRP

$$$$

     RDKit          2D

 24 27  0  0  0  0  0  0  0  0999 V2000
   20.9979   -4.4078    0.0000 C   0  0  0  0  0  0  0  0  0  0  0  0
   20.9968   -5.2274    0.0000 C   0  0  0  0  0  0  0  0  0  0  0  0
   21.7048   -5.6363    0.0000 C   0  0  0  0  0  0  0  0  0  0  0  0
   21.7030   -3.9990    0.0000 C   0  0  0  0  0  0  0  0  0  0  0  0
   22.4117   -4.4042    0.0000 C   0  0  0  0  0  0  0  0  0  0  0  0
   22.4124   -5.2233    0.0000 C   0  0  0  0  0  0  0  0  0  0  0  0
   23.1209   -5.6303    0.0000 N   0  0  0  0  0  0  0  0  0  0  0  0
   23.8292   -5.2195    0.0000 C   0  0  0  0  0  0  0  0  0  0  0  0
   23.8245   -4.3974    0.0000 N   0  0  0  0  0  0  0  0  0  0  0  0
   23.1154   -3.9940    0.0000 C   0  0  0  0  0  0  0  0  0  0  0  0
   23.1110   -3.1768    0.0000 N   0  0  0  0  0  0  0  0  0  0  0  0
   23.8166   -2.7645    0.0000 C   0  0  0  0  0  0  0  0  0  0  0  0
   24.5219   -3.1727    0.0000 C   0  0  0  0  0  0  0  0  0  0  0  0
   25.2269   -2.7610    0.0000 C   0  0  0  0  0  0  0  0  0  0  0  0
   25.2230   -1.9430    0.0000 C   0  0  0  0  0  0  0  0  0  0  0  0
   24.5082   -1.5383    0.0000 C   0  0  0  0  0  0  0  0  0  0  0  0
   23.8060   -1.9523    0.0000 C   0  0  0  0  0  0  0  0  0  0  0  0
   24.5349   -5.6213    0.0000 C   0  0  0  0  0  0  0  0  0  0  0  0
   24.5368   -6.4396    0.0000 C   0  0  0  0  0  0  0  0  0  0  0  0
   25.2452   -6.8453    0.0000 N   0  0  0  0  0  0  0  0  0  0  0  0
   25.9523   -6.4339    0.0000 C   0  0  0  0  0  0  0  0  0  0  0  0
   25.9465   -5.6125    0.0000 C   0  0  0  0  0  0  0  0  0  0  0  0
   25.2375   -5.2105    0.0000 C   0  0  0  0  0  0  0  0  0  0  0  0
   24.5010   -0.7212    0.0000 F   0  0  0  0  0  0  0  0  0  0  0  0
  1  2  2  0
  2  3  1  0
  3  6  2  0
  5  4  2  0
  4  1  1  0
  5  6  1  0
  6  7  1  0
  7  8  2  0
  8  9  1  0
  9 10  2  0
 10  5  1  0
 10 11  1  0
 11 12  1  0
 12 13  2  0
 13 14  1  0
 14 15  2  0
 15 16  1  0
 16 17  2  0
 17 12  1  0
 18 19  2  0
 19 20  1  0
 20 21  2  0
 21 22  1  0
 22 23  2  0
 23 18  1  0
  8 18  1  0
 16 24  1  0
M  END
>  <Classification>  (353) 
1

>  <pchembl>  (353) 
6.81

>  <InChI_steorem>  (353) 
InChI=1S/C19H13FN4/c20-14-6-3-7-15(11-14)22-19-16-8-1-2-9-17(16)23-18(24-19)13-5-4-10-21-12-13/h1-12H,(H,22,23,24)

>  <source>  (353) 
ChEMBL25

>  <source_id>  (353) 
25

>  <optional_reference>  (353) 
10.1021/acs.jmedchem.7b00441

>  <optional_origin>  (353) 
None

>  <target>  (353) 
BCRP

$$$$

     RDKit          2D

 25 28  0  0  0  0  0  0  0  0999 V2000
   20.3087  -20.4421    0.0000 C   0  0  0  0  0  0  0  0  0  0  0  0
   20.3075  -21.2617    0.0000 C   0  0  0  0  0  0  0  0  0  0  0  0
   21.0156  -21.6706    0.0000 C   0  0  0  0  0  0  0  0  0  0  0  0
   21.0138  -20.0333    0.0000 C   0  0  0  0  0  0  0  0  0  0  0  0
   21.7224  -20.4385    0.0000 C   0  0  0  0  0  0  0  0  0  0  0  0
   21.7232  -21.2575    0.0000 C   0  0  0  0  0  0  0  0  0  0  0  0
   22.4317  -21.6646    0.0000 N   0  0  0  0  0  0  0  0  0  0  0  0
   23.1400  -21.2538    0.0000 C   0  0  0  0  0  0  0  0  0  0  0  0
   23.1352  -20.4317    0.0000 N   0  0  0  0  0  0  0  0  0  0  0  0
   22.4261  -20.0283    0.0000 C   0  0  0  0  0  0  0  0  0  0  0  0
   22.4218  -19.2111    0.0000 N   0  0  0  0  0  0  0  0  0  0  0  0
   23.1273  -18.7988    0.0000 C   0  0  0  0  0  0  0  0  0  0  0  0
   23.8326  -19.2070    0.0000 C   0  0  0  0  0  0  0  0  0  0  0  0
   24.5377  -18.7953    0.0000 C   0  0  0  0  0  0  0  0  0  0  0  0
   24.5338  -17.9773    0.0000 C   0  0  0  0  0  0  0  0  0  0  0  0
   23.8189  -17.5726    0.0000 C   0  0  0  0  0  0  0  0  0  0  0  0
   23.1168  -17.9866    0.0000 C   0  0  0  0  0  0  0  0  0  0  0  0
   23.8457  -21.6556    0.0000 C   0  0  0  0  0  0  0  0  0  0  0  0
   23.8475  -22.4738    0.0000 N   0  0  0  0  0  0  0  0  0  0  0  0
   24.5560  -22.8796    0.0000 C   0  0  0  0  0  0  0  0  0  0  0  0
   25.2631  -22.4682    0.0000 C   0  0  0  0  0  0  0  0  0  0  0  0
   25.2573  -21.6468    0.0000 C   0  0  0  0  0  0  0  0  0  0  0  0
   24.5482  -21.2447    0.0000 C   0  0  0  0  0  0  0  0  0  0  0  0
   23.8117  -16.7555    0.0000 O   0  0  0  0  0  0  0  0  0  0  0  0
   24.5158  -16.3406    0.0000 C   0  0  0  0  0  0  0  0  0  0  0  0
  1  2  2  0
  2  3  1  0
  3  6  2  0
  5  4  2  0
  4  1  1  0
  5  6  1  0
  6  7  1  0
  7  8  2  0
  8  9  1  0
  9 10  2  0
 10  5  1  0
 10 11  1  0
 11 12  1  0
 12 13  2  0
 13 14  1  0
 14 15  2  0
 15 16  1  0
 16 17  2  0
 17 12  1  0
 18 19  2  0
 19 20  1  0
 20 21  2  0
 21 22  1  0
 22 23  2  0
 23 18  1  0
  8 18  1  0
 16 24  1  0
 24 25  1  0
M  END
>  <Classification>  (354) 
1

>  <pchembl>  (354) 
5.79

>  <InChI_steorem>  (354) 
InChI=1S/C20H16N4O/c1-25-15-8-6-7-14(13-15)22-19-16-9-2-3-10-17(16)23-20(24-19)18-11-4-5-12-21-18/h2-13H,1H3,(H,22,23,24)

>  <source>  (354) 
ChEMBL25

>  <source_id>  (354) 
25

>  <optional_reference>  (354) 
10.1021/acs.jmedchem.7b00441

>  <optional_origin>  (354) 
None

>  <target>  (354) 
BCRP

$$$$

     RDKit          2D

 26 29  0  0  0  0  0  0  0  0999 V2000
    2.1035  -12.3816    0.0000 C   0  0  0  0  0  0  0  0  0  0  0  0
    2.1023  -13.2012    0.0000 C   0  0  0  0  0  0  0  0  0  0  0  0
    2.8104  -13.6101    0.0000 C   0  0  0  0  0  0  0  0  0  0  0  0
    2.8086  -11.9728    0.0000 C   0  0  0  0  0  0  0  0  0  0  0  0
    3.5172  -12.3780    0.0000 C   0  0  0  0  0  0  0  0  0  0  0  0
    3.5180  -13.1971    0.0000 C   0  0  0  0  0  0  0  0  0  0  0  0
    4.2265  -13.6041    0.0000 N   0  0  0  0  0  0  0  0  0  0  0  0
    4.9348  -13.1933    0.0000 C   0  0  0  0  0  0  0  0  0  0  0  0
    4.9300  -12.3712    0.0000 N   0  0  0  0  0  0  0  0  0  0  0  0
    4.2209  -11.9678    0.0000 C   0  0  0  0  0  0  0  0  0  0  0  0
    4.2166  -11.1506    0.0000 N   0  0  0  0  0  0  0  0  0  0  0  0
    4.9221  -10.7383    0.0000 C   0  0  0  0  0  0  0  0  0  0  0  0
    5.6274  -11.1465    0.0000 C   0  0  0  0  0  0  0  0  0  0  0  0
    6.3325  -10.7349    0.0000 C   0  0  0  0  0  0  0  0  0  0  0  0
    6.3286   -9.9168    0.0000 C   0  0  0  0  0  0  0  0  0  0  0  0
    5.6137   -9.5121    0.0000 C   0  0  0  0  0  0  0  0  0  0  0  0
    4.9116   -9.9261    0.0000 C   0  0  0  0  0  0  0  0  0  0  0  0
    5.6405  -13.5951    0.0000 C   0  0  0  0  0  0  0  0  0  0  0  0
    5.6423  -14.4134    0.0000 C   0  0  0  0  0  0  0  0  0  0  0  0
    6.3508  -14.8191    0.0000 N   0  0  0  0  0  0  0  0  0  0  0  0
    7.0579  -14.4077    0.0000 C   0  0  0  0  0  0  0  0  0  0  0  0
    7.0521  -13.5863    0.0000 C   0  0  0  0  0  0  0  0  0  0  0  0
    6.3430  -13.1843    0.0000 C   0  0  0  0  0  0  0  0  0  0  0  0
    5.6065   -8.6911    0.0000 N   0  0  0  0  0  0  0  0  0  0  0  0
    4.8952   -8.2888    0.0000 O   0  0  0  0  0  0  0  0  0  0  0  0
    6.3105   -8.2763    0.0000 O   0  0  0  0  0  0  0  0  0  0  0  0
  1  2  2  0
  2  3  1  0
  3  6  2  0
  5  4  2  0
  4  1  1  0
  5  6  1  0
  6  7  1  0
  7  8  2  0
  8  9  1  0
  9 10  2  0
 10  5  1  0
 10 11  1  0
 11 12  1  0
 12 13  2  0
 13 14  1  0
 14 15  2  0
 15 16  1  0
 16 17  2  0
 17 12  1  0
 18 19  2  0
 19 20  1  0
 20 21  2  0
 21 22  1  0
 22 23  2  0
 23 18  1  0
  8 18  1  0
 24 25  2  0
 24 26  1  0
 16 24  1  0
M  CHG  2  24   1  26  -1
M  END
>  <Classification>  (355) 
1

>  <pchembl>  (355) 
6.98

>  <InChI_steorem>  (355) 
InChI=1S/C19H13N5O2/c25-24(26)15-7-3-6-14(11-15)21-19-16-8-1-2-9-17(16)22-18(23-19)13-5-4-10-20-12-13/h1-12H,(H,21,22,23)

>  <source>  (355) 
ChEMBL25

>  <source_id>  (355) 
25

>  <optional_reference>  (355) 
10.1021/acs.jmedchem.7b00441

>  <optional_origin>  (355) 
None

>  <target>  (355) 
BCRP

$$$$

     RDKit          2D

 33 36  0  0  0  0  0  0  0  0999 V2000
   10.2848  -18.4331    0.0000 C   0  0  0  0  0  0  0  0  0  0  0  0
   10.2990  -19.2501    0.0000 C   0  0  0  0  0  0  0  0  0  0  0  0
    9.5708  -18.0321    0.0000 O   0  0  0  0  0  0  0  0  0  0  0  0
   10.9888  -18.0129    0.0000 N   0  0  0  0  0  0  0  0  0  0  0  0
   10.9746  -17.1958    0.0000 C   0  0  0  0  0  0  0  0  0  0  0  0
   11.6786  -16.7756    0.0000 C   0  0  0  0  0  0  0  0  0  0  0  0
   11.6644  -15.9585    0.0000 C   0  0  0  0  0  0  0  0  0  0  0  0
   10.9504  -15.5617    0.0000 C   0  0  0  0  0  0  0  0  0  0  0  0
   10.2506  -15.9819    0.0000 C   0  0  0  0  0  0  0  0  0  0  0  0
   10.2606  -16.7990    0.0000 C   0  0  0  0  0  0  0  0  0  0  0  0
   10.9404  -14.7446    0.0000 N   0  0  0  0  0  0  0  0  0  0  0  0
   11.6402  -14.3244    0.0000 C   0  0  0  0  0  0  0  0  0  0  0  0
   12.3542  -14.7253    0.0000 O   0  0  0  0  0  0  0  0  0  0  0  0
   11.6302  -13.5073    0.0000 N   0  0  0  0  0  0  0  0  0  0  0  0
   10.9162  -13.1105    0.0000 C   0  0  0  0  0  0  0  0  0  0  0  0
   10.9021  -12.2935    0.0000 C   0  0  0  0  0  0  0  0  0  0  0  0
   10.1881  -11.8966    0.0000 C   0  0  0  0  0  0  0  0  0  0  0  0
    9.4882  -12.3127    0.0000 C   0  0  0  0  0  0  0  0  0  0  0  0
    9.4983  -13.1298    0.0000 C   0  0  0  0  0  0  0  0  0  0  0  0
   10.2123  -13.5307    0.0000 C   0  0  0  0  0  0  0  0  0  0  0  0
   12.3565  -12.1950    0.0000 N   0  0  0  0  0  0  0  0  0  0  0  0
   12.8948  -11.5805    0.0000 N   0  0  0  0  0  0  0  0  0  0  0  0
   12.4745  -10.8807    0.0000 N   0  0  0  0  0  0  0  0  0  0  0  0
   11.6760  -11.0610    0.0000 N   0  0  0  0  0  0  0  0  0  0  0  0
   11.6019  -11.8732    0.0000 C   0  0  0  0  0  0  0  0  0  0  0  0
   13.7070  -11.6546    0.0000 C   0  0  0  0  0  0  0  0  0  0  0  0
   14.0498  -12.3943    0.0000 C   0  0  0  0  0  0  0  0  0  0  0  0
   14.8661  -12.4684    0.0000 C   0  0  0  0  0  0  0  0  0  0  0  0
   15.3355  -11.8027    0.0000 C   0  0  0  0  0  0  0  0  0  0  0  0
   14.9927  -11.0589    0.0000 C   0  0  0  0  0  0  0  0  0  0  0  0
   14.1805  -10.9848    0.0000 C   0  0  0  0  0  0  0  0  0  0  0  0
   15.2089  -13.2123    0.0000 O   0  0  0  0  0  0  0  0  0  0  0  0
   16.0210  -13.2822    0.0000 C   0  0  0  0  0  0  0  0  0  0  0  0
  1  2  1  0
  1  3  2  0
  1  4  1  0
  5  6  2  0
  6  7  1  0
  7  8  2  0
  8  9  1  0
  9 10  2  0
  5 10  1  0
 11 12  1  0
 12 13  2  0
 12 14  1  0
 15 16  1  0
 16 17  2  0
 17 18  1  0
 18 19  2  0
 19 20  1  0
 15 20  2  0
 21 22  1  0
 22 23  1  0
 23 24  2  0
 24 25  1  0
 21 25  2  0
 26 27  2  0
 27 28  1  0
 28 29  2  0
 29 30  1  0
 30 31  2  0
 26 31  1  0
 32 33  1  0
 28 32  1  0
 22 26  1  0
 16 25  1  0
 14 15  1  0
  8 11  1  0
  4  5  1  0
M  END
>  <Classification>  (356) 
1

>  <pchembl>  (356) 
6.49

>  <InChI_steorem>  (356) 
InChI=1S/C23H21N7O3/c1-15(31)24-16-10-12-17(13-11-16)25-23(32)26-21-9-4-3-8-20(21)22-27-29-30(28-22)18-6-5-7-19(14-18)33-2/h3-14H,1-2H3,(H,24,31)(H2,25,26,32)

>  <source>  (356) 
ChEMBL25

>  <source_id>  (356) 
25

>  <optional_reference>  (356) 
10.1016/j.bmcl.2017.09.009

>  <optional_origin>  (356) 
None

>  <target>  (356) 
BCRP

$$$$

     RDKit          2D

 29 32  0  0  0  0  0  0  0  0999 V2000
   12.4632   -3.3609    0.0000 C   0  0  0  0  0  0  0  0  0  0  0  0
   13.1694   -3.7743    0.0000 C   0  0  0  0  0  0  0  0  0  0  0  0
   12.4687   -2.5437    0.0000 O   0  0  0  0  0  0  0  0  0  0  0  0
   11.7513   -3.7646    0.0000 N   0  0  0  0  0  0  0  0  0  0  0  0
   11.7457   -4.5818    0.0000 C   0  0  0  0  0  0  0  0  0  0  0  0
   11.0380   -4.9856    0.0000 C   0  0  0  0  0  0  0  0  0  0  0  0
   11.0324   -5.8027    0.0000 C   0  0  0  0  0  0  0  0  0  0  0  0
   11.7345   -6.2161    0.0000 C   0  0  0  0  0  0  0  0  0  0  0  0
   12.4464   -5.8124    0.0000 C   0  0  0  0  0  0  0  0  0  0  0  0
   12.4520   -4.9952    0.0000 C   0  0  0  0  0  0  0  0  0  0  0  0
   10.3205   -6.2065    0.0000 N   0  0  0  0  0  0  0  0  0  0  0  0
   11.0156   -8.2584    0.0000 C   0  0  0  0  0  0  0  0  0  0  0  0
   10.3037   -8.6621    0.0000 N   0  0  0  0  0  0  0  0  0  0  0  0
    9.6016   -8.2487    0.0000 C   0  0  0  0  0  0  0  0  0  0  0  0
    9.6072   -7.4274    0.0000 C   0  0  0  0  0  0  0  0  0  0  0  0
   10.3149   -7.0236    0.0000 C   0  0  0  0  0  0  0  0  0  0  0  0
   11.0212   -7.4371    0.0000 N   0  0  0  0  0  0  0  0  0  0  0  0
    8.9009   -7.0140    0.0000 C   0  0  0  0  0  0  0  0  0  0  0  0
    8.1891   -7.4177    0.0000 C   0  0  0  0  0  0  0  0  0  0  0  0
    8.1834   -8.2390    0.0000 C   0  0  0  0  0  0  0  0  0  0  0  0
    8.8897   -8.6524    0.0000 N   0  0  0  0  0  0  0  0  0  0  0  0
   11.7178   -8.6718    0.0000 C   0  0  0  0  0  0  0  0  0  0  0  0
   11.7122   -9.4889    0.0000 C   0  0  0  0  0  0  0  0  0  0  0  0
   12.4185   -9.9024    0.0000 C   0  0  0  0  0  0  0  0  0  0  0  0
   13.1303   -9.4986    0.0000 C   0  0  0  0  0  0  0  0  0  0  0  0
   13.1359   -8.6815    0.0000 C   0  0  0  0  0  0  0  0  0  0  0  0
   12.4296   -8.2680    0.0000 C   0  0  0  0  0  0  0  0  0  0  0  0
   12.4129  -10.7196    0.0000 O   0  0  0  0  0  0  0  0  0  0  0  0
   13.1191  -11.1330    0.0000 C   0  0  0  0  0  0  0  0  0  0  0  0
  1  2  1  0
  1  3  2  0
  1  4  1  0
  5  6  2  0
  6  7  1  0
  7  8  2  0
  8  9  1  0
  9 10  2  0
  5 10  1  0
 12 13  2  0
 13 14  1  0
 14 15  2  0
 15 16  1  0
 16 17  2  0
 12 17  1  0
 18 19  2  0
 19 20  1  0
 20 21  2  0
 14 21  1  0
 15 18  1  0
 22 23  2  0
 23 24  1  0
 24 25  2  0
 25 26  1  0
 26 27  2  0
 22 27  1  0
 28 29  1  0
 24 28  1  0
 12 22  1  0
 11 16  1  0
  7 11  1  0
  4  5  1  0
M  END
>  <Classification>  (357) 
1

>  <pchembl>  (357) 
5.19

>  <InChI_steorem>  (357) 
InChI=1S/C22H19N5O2/c1-14(28)24-16-7-4-8-17(13-16)25-22-19-10-5-11-23-21(19)26-20(27-22)15-6-3-9-18(12-15)29-2/h3-13H,1-2H3,(H,24,28)(H,23,25,26,27)

>  <source>  (357) 
ChEMBL25

>  <source_id>  (357) 
25

>  <optional_reference>  (357) 
10.1021/acs.jmedchem.7b01012

>  <optional_origin>  (357) 
None

>  <target>  (357) 
BCRP

$$$$

     RDKit          2D

 30 33  0  0  0  0  0  0  0  0999 V2000
   12.4257  -13.0503    0.0000 C   0  0  0  0  0  0  0  0  0  0  0  0
   12.4245  -13.8698    0.0000 C   0  0  0  0  0  0  0  0  0  0  0  0
   13.1326  -14.2788    0.0000 C   0  0  0  0  0  0  0  0  0  0  0  0
   13.1308  -12.6414    0.0000 C   0  0  0  0  0  0  0  0  0  0  0  0
   13.8394  -13.0467    0.0000 C   0  0  0  0  0  0  0  0  0  0  0  0
   13.8402  -13.8657    0.0000 C   0  0  0  0  0  0  0  0  0  0  0  0
   14.5487  -14.2727    0.0000 N   0  0  0  0  0  0  0  0  0  0  0  0
   15.2570  -13.8619    0.0000 C   0  0  0  0  0  0  0  0  0  0  0  0
   15.2522  -13.0398    0.0000 N   0  0  0  0  0  0  0  0  0  0  0  0
   14.5431  -12.6364    0.0000 C   0  0  0  0  0  0  0  0  0  0  0  0
   14.5388  -11.8192    0.0000 N   0  0  0  0  0  0  0  0  0  0  0  0
   15.2443  -11.4069    0.0000 C   0  0  0  0  0  0  0  0  0  0  0  0
   15.9496  -11.8151    0.0000 C   0  0  0  0  0  0  0  0  0  0  0  0
   16.6546  -11.4035    0.0000 C   0  0  0  0  0  0  0  0  0  0  0  0
   16.6508  -10.5854    0.0000 C   0  0  0  0  0  0  0  0  0  0  0  0
   15.9359  -10.1808    0.0000 C   0  0  0  0  0  0  0  0  0  0  0  0
   15.2338  -10.5948    0.0000 C   0  0  0  0  0  0  0  0  0  0  0  0
   15.9627  -14.2637    0.0000 C   0  0  0  0  0  0  0  0  0  0  0  0
   15.9645  -15.0820    0.0000 C   0  0  0  0  0  0  0  0  0  0  0  0
   16.6730  -15.4877    0.0000 C   0  0  0  0  0  0  0  0  0  0  0  0
   17.3801  -15.0763    0.0000 N   0  0  0  0  0  0  0  0  0  0  0  0
   17.3743  -14.2549    0.0000 C   0  0  0  0  0  0  0  0  0  0  0  0
   16.6652  -13.8529    0.0000 C   0  0  0  0  0  0  0  0  0  0  0  0
   15.9287   -9.3636    0.0000 C   0  0  0  0  0  0  0  0  0  0  0  0
   16.6328   -8.9488    0.0000 O   0  0  0  0  0  0  0  0  0  0  0  0
   15.2174   -8.9613    0.0000 O   0  0  0  0  0  0  0  0  0  0  0  0
   17.3441   -9.3511    0.0000 C   0  0  0  0  0  0  0  0  0  0  0  0
   18.0481   -8.9363    0.0000 C   0  0  0  0  0  0  0  0  0  0  0  0
   17.3513  -10.1683    0.0000 C   0  0  0  0  0  0  0  0  0  0  0  0
   18.0484   -9.7568    0.0000 C   0  0  0  0  0  0  0  0  0  0  0  0
  1  2  2  0
  2  3  1  0
  3  6  2  0
  5  4  2  0
  4  1  1  0
  5  6  1  0
  6  7  1  0
  7  8  2  0
  8  9  1  0
  9 10  2  0
 10  5  1  0
 10 11  1  0
 11 12  1  0
 12 13  2  0
 13 14  1  0
 14 15  2  0
 15 16  1  0
 16 17  2  0
 17 12  1  0
 18 19  2  0
 19 20  1  0
 20 21  2  0
 21 22  1  0
 22 23  2  0
 23 18  1  0
  8 18  1  0
 16 24  1  0
 24 25  1  0
 24 26  2  0
 25 27  1  0
 27 28  1  0
 27 29  1  0
 27 30  1  0
M  END
>  <Classification>  (358) 
1

>  <pchembl>  (358) 
6.52

>  <InChI_steorem>  (358) 
InChI=1S/C24H22N4O2/c1-24(2,3)30-23(29)17-7-6-8-18(15-17)26-22-19-9-4-5-10-20(19)27-21(28-22)16-11-13-25-14-12-16/h4-15H,1-3H3,(H,26,27,28)

>  <source>  (358) 
ChEMBL25

>  <source_id>  (358) 
25

>  <optional_reference>  (358) 
10.1021/acs.jmedchem.7b00441

>  <optional_origin>  (358) 
None

>  <target>  (358) 
BCRP

$$$$

     RDKit          2D

 32 35  0  0  0  0  0  0  0  0999 V2000
   13.8021   -9.6252    0.0000 N   0  0  0  0  0  0  0  0  0  0  0  0
   13.7728  -10.4472    0.0000 C   0  0  0  0  0  0  0  0  0  0  0  0
   14.4679  -10.8790    0.0000 O   0  0  0  0  0  0  0  0  0  0  0  0
   13.0464  -10.8295    0.0000 N   0  0  0  0  0  0  0  0  0  0  0  0
   13.0152  -11.6478    0.0000 C   0  0  0  0  0  0  0  0  0  0  0  0
   12.2888  -12.0343    0.0000 C   0  0  0  0  0  0  0  0  0  0  0  0
   12.2595  -12.8563    0.0000 C   0  0  0  0  0  0  0  0  0  0  0  0
   12.9546  -13.2882    0.0000 C   0  0  0  0  0  0  0  0  0  0  0  0
   13.6809  -12.9058    0.0000 C   0  0  0  0  0  0  0  0  0  0  0  0
   13.7122  -12.0875    0.0000 C   0  0  0  0  0  0  0  0  0  0  0  0
   11.5331  -13.2387    0.0000 N   0  0  0  0  0  0  0  0  0  0  0  0
   10.8361  -12.8032    0.0000 O   0  0  0  0  0  0  0  0  0  0  0  0
   11.5019  -14.0570    0.0000 O   0  0  0  0  0  0  0  0  0  0  0  0
   13.1051   -9.1855    0.0000 C   0  0  0  0  0  0  0  0  0  0  0  0
   13.1345   -8.3635    0.0000 C   0  0  0  0  0  0  0  0  0  0  0  0
   12.4394   -7.9317    0.0000 C   0  0  0  0  0  0  0  0  0  0  0  0
   11.7171   -8.3140    0.0000 C   0  0  0  0  0  0  0  0  0  0  0  0
   11.6859   -9.1324    0.0000 C   0  0  0  0  0  0  0  0  0  0  0  0
   12.3788   -9.5720    0.0000 C   0  0  0  0  0  0  0  0  0  0  0  0
   14.5996   -8.3427    0.0000 N   0  0  0  0  0  0  0  0  0  0  0  0
   15.1678   -7.7559    0.0000 N   0  0  0  0  0  0  0  0  0  0  0  0
   14.7814   -7.0296    0.0000 N   0  0  0  0  0  0  0  0  0  0  0  0
   13.9767   -7.1699    0.0000 N   0  0  0  0  0  0  0  0  0  0  0  0
   13.8608   -7.9812    0.0000 C   0  0  0  0  0  0  0  0  0  0  0  0
   15.9847   -7.8736    0.0000 C   0  0  0  0  0  0  0  0  0  0  0  0
   16.2897   -8.6332    0.0000 C   0  0  0  0  0  0  0  0  0  0  0  0
   17.1010   -8.7492    0.0000 C   0  0  0  0  0  0  0  0  0  0  0  0
   17.6110   -8.1035    0.0000 C   0  0  0  0  0  0  0  0  0  0  0  0
   17.3000   -7.3402    0.0000 C   0  0  0  0  0  0  0  0  0  0  0  0
   16.4887   -7.2243    0.0000 C   0  0  0  0  0  0  0  0  0  0  0  0
   17.4120   -9.5125    0.0000 O   0  0  0  0  0  0  0  0  0  0  0  0
   18.2233   -9.6284    0.0000 C   0  0  0  0  0  0  0  0  0  0  0  0
  1  2  1  0
  2  3  2  0
  2  4  1  0
  5  6  2  0
  6  7  1  0
  7  8  2  0
  8  9  1  0
  9 10  2  0
  5 10  1  0
 11 12  2  0
 11 13  1  0
  7 11  1  0
  4  5  1  0
 14 15  1  0
 15 16  2  0
 16 17  1  0
 17 18  2  0
 18 19  1  0
 14 19  2  0
 20 21  1  0
 21 22  1  0
 22 23  2  0
 23 24  1  0
 20 24  2  0
 25 26  2  0
 26 27  1  0
 27 28  2  0
 28 29  1  0
 29 30  2  0
 25 30  1  0
 31 32  1  0
 27 31  1  0
 21 25  1  0
 15 24  1  0
  1 14  1  0
M  CHG  2  11   1  13  -1
M  END
>  <Classification>  (359) 
1

>  <pchembl>  (359) 
6.12

>  <InChI_steorem>  (359) 
InChI=1S/C21H17N7O4/c1-32-17-9-5-7-15(13-17)27-25-20(24-26-27)18-10-2-3-11-19(18)23-21(29)22-14-6-4-8-16(12-14)28(30)31/h2-13H,1H3,(H2,22,23,29)

>  <source>  (359) 
ChEMBL25

>  <source_id>  (359) 
25

>  <optional_reference>  (359) 
10.1016/j.bmcl.2017.09.009

>  <optional_origin>  (359) 
None

>  <target>  (359) 
BCRP

$$$$

     RDKit          2D

 27 30  0  0  0  0  0  0  0  0999 V2000
    1.9054  -11.8492    0.0000 C   0  0  0  0  0  0  0  0  0  0  0  0
    1.9042  -12.6688    0.0000 C   0  0  0  0  0  0  0  0  0  0  0  0
    2.6123  -13.0777    0.0000 C   0  0  0  0  0  0  0  0  0  0  0  0
    2.6105  -11.4404    0.0000 C   0  0  0  0  0  0  0  0  0  0  0  0
    3.3191  -11.8456    0.0000 C   0  0  0  0  0  0  0  0  0  0  0  0
    3.3198  -12.6647    0.0000 C   0  0  0  0  0  0  0  0  0  0  0  0
    4.0284  -13.0717    0.0000 N   0  0  0  0  0  0  0  0  0  0  0  0
    4.7366  -12.6609    0.0000 C   0  0  0  0  0  0  0  0  0  0  0  0
    4.7319  -11.8388    0.0000 N   0  0  0  0  0  0  0  0  0  0  0  0
    4.0228  -11.4354    0.0000 C   0  0  0  0  0  0  0  0  0  0  0  0
    4.0185  -10.6182    0.0000 N   0  0  0  0  0  0  0  0  0  0  0  0
    4.7240  -10.2059    0.0000 C   0  0  0  0  0  0  0  0  0  0  0  0
    5.4293  -10.6141    0.0000 C   0  0  0  0  0  0  0  0  0  0  0  0
    6.1343  -10.2024    0.0000 C   0  0  0  0  0  0  0  0  0  0  0  0
    6.1304   -9.3844    0.0000 C   0  0  0  0  0  0  0  0  0  0  0  0
    5.4156   -8.9797    0.0000 C   0  0  0  0  0  0  0  0  0  0  0  0
    4.7135   -9.3937    0.0000 C   0  0  0  0  0  0  0  0  0  0  0  0
    5.4424  -13.0627    0.0000 C   0  0  0  0  0  0  0  0  0  0  0  0
    5.4442  -13.8810    0.0000 C   0  0  0  0  0  0  0  0  0  0  0  0
    6.1527  -14.2867    0.0000 N   0  0  0  0  0  0  0  0  0  0  0  0
    6.8598  -13.8753    0.0000 C   0  0  0  0  0  0  0  0  0  0  0  0
    6.8540  -13.0539    0.0000 C   0  0  0  0  0  0  0  0  0  0  0  0
    6.1449  -12.6519    0.0000 C   0  0  0  0  0  0  0  0  0  0  0  0
    5.4084   -8.1626    0.0000 O   0  0  0  0  0  0  0  0  0  0  0  0
    6.1125   -7.7477    0.0000 C   0  0  0  0  0  0  0  0  0  0  0  0
    6.8354   -8.9711    0.0000 O   0  0  0  0  0  0  0  0  0  0  0  0
    7.5458   -9.3750    0.0000 C   0  0  0  0  0  0  0  0  0  0  0  0
  1  2  2  0
  2  3  1  0
  3  6  2  0
  5  4  2  0
  4  1  1  0
  5  6  1  0
  6  7  1  0
  7  8  2  0
  8  9  1  0
  9 10  2  0
 10  5  1  0
 10 11  1  0
 11 12  1  0
 12 13  2  0
 13 14  1  0
 14 15  2  0
 15 16  1  0
 16 17  2  0
 17 12  1  0
 18 19  2  0
 19 20  1  0
 20 21  2  0
 21 22  1  0
 22 23  2  0
 23 18  1  0
  8 18  1  0
 16 24  1  0
 24 25  1  0
 15 26  1  0
 26 27  1  0
M  END
>  <Classification>  (360) 
1

>  <pchembl>  (360) 
6.12

>  <InChI_steorem>  (360) 
InChI=1S/C21H18N4O2/c1-26-18-10-9-15(12-19(18)27-2)23-21-16-7-3-4-8-17(16)24-20(25-21)14-6-5-11-22-13-14/h3-13H,1-2H3,(H,23,24,25)

>  <source>  (360) 
ChEMBL25

>  <source_id>  (360) 
25

>  <optional_reference>  (360) 
10.1021/acs.jmedchem.7b00441

>  <optional_origin>  (360) 
None

>  <target>  (360) 
BCRP

$$$$

     RDKit          2D

 26 29  0  0  0  0  0  0  0  0999 V2000
   12.0300   -5.3193    0.0000 C   0  0  0  0  0  0  0  0  0  0  0  0
   11.3251   -4.9107    0.0000 C   0  0  0  0  0  0  0  0  0  0  0  0
   10.6160   -5.3193    0.0000 C   0  0  0  0  0  0  0  0  0  0  0  0
   10.6160   -6.1365    0.0000 C   0  0  0  0  0  0  0  0  0  0  0  0
   11.3251   -6.5451    0.0000 C   0  0  0  0  0  0  0  0  0  0  0  0
   12.0300   -6.1365    0.0000 C   0  0  0  0  0  0  0  0  0  0  0  0
   12.7391   -4.9107    0.0000 O   0  0  0  0  0  0  0  0  0  0  0  0
    9.9069   -6.5451    0.0000 N   0  0  0  0  0  0  0  0  0  0  0  0
   10.6160   -8.5881    0.0000 C   0  0  0  0  0  0  0  0  0  0  0  0
    9.9069   -8.9967    0.0000 N   0  0  0  0  0  0  0  0  0  0  0  0
    9.1978   -8.5881    0.0000 C   0  0  0  0  0  0  0  0  0  0  0  0
    9.1978   -7.7709    0.0000 C   0  0  0  0  0  0  0  0  0  0  0  0
    9.9069   -7.3623    0.0000 C   0  0  0  0  0  0  0  0  0  0  0  0
   10.6160   -7.7709    0.0000 N   0  0  0  0  0  0  0  0  0  0  0  0
    8.4929   -7.3623    0.0000 C   0  0  0  0  0  0  0  0  0  0  0  0
    7.7838   -7.7709    0.0000 C   0  0  0  0  0  0  0  0  0  0  0  0
    7.7838   -8.5881    0.0000 C   0  0  0  0  0  0  0  0  0  0  0  0
    8.4929   -8.9967    0.0000 N   0  0  0  0  0  0  0  0  0  0  0  0
   11.3251   -8.9967    0.0000 C   0  0  0  0  0  0  0  0  0  0  0  0
   11.3251   -9.8139    0.0000 C   0  0  0  0  0  0  0  0  0  0  0  0
   12.0300  -10.2225    0.0000 C   0  0  0  0  0  0  0  0  0  0  0  0
   12.7391   -9.8139    0.0000 C   0  0  0  0  0  0  0  0  0  0  0  0
   12.7391   -8.9967    0.0000 C   0  0  0  0  0  0  0  0  0  0  0  0
   12.0300   -8.5881    0.0000 C   0  0  0  0  0  0  0  0  0  0  0  0
   12.0300  -11.0397    0.0000 O   0  0  0  0  0  0  0  0  0  0  0  0
   12.7391  -11.4483    0.0000 C   0  0  0  0  0  0  0  0  0  0  0  0
  1  2  2  0
  2  3  1  0
  3  4  2  0
  4  5  1  0
  5  6  2  0
  1  6  1  0
  1  7  1  0
  9 10  2  0
 10 11  1  0
 11 12  2  0
 12 13  1  0
 13 14  2  0
  9 14  1  0
 15 16  2  0
 16 17  1  0
 17 18  2  0
 11 18  1  0
 12 15  1  0
 19 20  2  0
 20 21  1  0
 21 22  2  0
 22 23  1  0
 23 24  2  0
 19 24  1  0
 25 26  1  0
 21 25  1  0
  9 19  1  0
  8 13  1  0
  4  8  1  0
M  END
>  <Classification>  (361) 
1

>  <pchembl>  (361) 
5.89

>  <InChI_steorem>  (361) 
InChI=1S/C20H16N4O2/c1-26-16-5-2-4-13(12-16)18-23-19-17(6-3-11-21-19)20(24-18)22-14-7-9-15(25)10-8-14/h2-12,25H,1H3,(H,21,22,23,24)

>  <source>  (361) 
ChEMBL25

>  <source_id>  (361) 
25

>  <optional_reference>  (361) 
10.1021/acs.jmedchem.7b01012

>  <optional_origin>  (361) 
None

>  <target>  (361) 
BCRP

$$$$

     RDKit          2D

 32 35  0  0  0  0  0  0  0  0999 V2000
   11.5323  -13.8814    0.0000 N   0  0  0  0  0  0  0  0  0  0  0  0
   12.2302  -13.4580    0.0000 C   0  0  0  0  0  0  0  0  0  0  0  0
   12.9460  -13.8557    0.0000 O   0  0  0  0  0  0  0  0  0  0  0  0
   12.2164  -12.6410    0.0000 N   0  0  0  0  0  0  0  0  0  0  0  0
   11.5006  -12.2475    0.0000 C   0  0  0  0  0  0  0  0  0  0  0  0
   11.4869  -11.4305    0.0000 C   0  0  0  0  0  0  0  0  0  0  0  0
   10.7752  -11.0328    0.0000 C   0  0  0  0  0  0  0  0  0  0  0  0
   10.0732  -11.4562    0.0000 C   0  0  0  0  0  0  0  0  0  0  0  0
   10.0869  -12.2732    0.0000 C   0  0  0  0  0  0  0  0  0  0  0  0
   10.8027  -12.6668    0.0000 C   0  0  0  0  0  0  0  0  0  0  0  0
   12.9408  -11.3253    0.0000 N   0  0  0  0  0  0  0  0  0  0  0  0
   13.4763  -10.7084    0.0000 N   0  0  0  0  0  0  0  0  0  0  0  0
   13.0570  -10.0105    0.0000 N   0  0  0  0  0  0  0  0  0  0  0  0
   12.2593  -10.1945    0.0000 N   0  0  0  0  0  0  0  0  0  0  0  0
   12.1889  -11.0070    0.0000 C   0  0  0  0  0  0  0  0  0  0  0  0
   14.2888  -10.7829    0.0000 C   0  0  0  0  0  0  0  0  0  0  0  0
   14.6391  -11.5210    0.0000 C   0  0  0  0  0  0  0  0  0  0  0  0
   15.4517  -11.5914    0.0000 C   0  0  0  0  0  0  0  0  0  0  0  0
   15.9180  -10.9236    0.0000 C   0  0  0  0  0  0  0  0  0  0  0  0
   15.5759  -10.1813    0.0000 C   0  0  0  0  0  0  0  0  0  0  0  0
   14.7593  -10.1110    0.0000 C   0  0  0  0  0  0  0  0  0  0  0  0
   15.7978  -12.3337    0.0000 O   0  0  0  0  0  0  0  0  0  0  0  0
   16.6104  -12.4040    0.0000 C   0  0  0  0  0  0  0  0  0  0  0  0
   11.5461  -14.6984    0.0000 C   0  0  0  0  0  0  0  0  0  0  0  0
   10.8440  -15.1178    0.0000 C   0  0  0  0  0  0  0  0  0  0  0  0
   10.8619  -15.9348    0.0000 C   0  0  0  0  0  0  0  0  0  0  0  0
   11.5736  -16.3324    0.0000 C   0  0  0  0  0  0  0  0  0  0  0  0
   12.2756  -15.9090    0.0000 C   0  0  0  0  0  0  0  0  0  0  0  0
   12.2619  -15.0920    0.0000 C   0  0  0  0  0  0  0  0  0  0  0  0
   11.5915  -17.1494    0.0000 N   0  0  0  0  0  0  0  0  0  0  0  0
   10.8895  -17.5687    0.0000 N   0  0  0  0  0  0  0  0  0  0  0  0
   10.1874  -17.9922    0.0000 N   0  0  0  0  0  0  0  0  0  0  0  0
  1  2  1  0
  2  3  2  0
  2  4  1  0
  5  6  1  0
  6  7  2  0
  7  8  1  0
  8  9  2  0
  9 10  1  0
  5 10  2  0
 11 12  1  0
 12 13  1  0
 13 14  2  0
 14 15  1  0
 11 15  2  0
 16 17  2  0
 17 18  1  0
 18 19  2  0
 19 20  1  0
 20 21  2  0
 16 21  1  0
 22 23  1  0
 18 22  1  0
 12 16  1  0
  6 15  1  0
  4  5  1  0
 24 25  2  0
 25 26  1  0
 26 27  2  0
 27 28  1  0
 28 29  2  0
 24 29  1  0
 30 31  2  0
 31 32  2  0
 27 30  1  0
  1 24  1  0
M  CHG  2  31   1  32  -1
M  END
>  <Classification>  (362) 
1

>  <pchembl>  (362) 
6.16

>  <InChI_steorem>  (362) 
InChI=1S/C21H17N9O2/c1-32-17-6-4-5-16(13-17)30-27-20(26-29-30)18-7-2-3-8-19(18)24-21(31)23-14-9-11-15(12-10-14)25-28-22/h2-13H,1H3,(H2,23,24,31)

>  <source>  (362) 
ChEMBL25

>  <source_id>  (362) 
25

>  <optional_reference>  (362) 
10.1016/j.bmcl.2017.09.009

>  <optional_origin>  (362) 
None

>  <target>  (362) 
BCRP

$$$$

     RDKit          2D

 29 31  0  0  0  0  0  0  0  0999 V2000
   22.4568   -9.1609    0.0000 C   0  0  0  0  0  0  0  0  0  0  0  0
   21.7520   -9.5727    0.0000 C   0  0  0  0  0  0  0  0  0  0  0  0
   21.7563  -10.3898    0.0000 C   0  0  0  0  0  0  0  0  0  0  0  0
   21.0515  -10.8016    0.0000 C   0  0  0  0  0  0  0  0  0  0  0  0
   20.3423  -10.4004    0.0000 C   0  0  0  0  0  0  0  0  0  0  0  0
   20.3380   -9.5832    0.0000 C   0  0  0  0  0  0  0  0  0  0  0  0
   21.0387   -9.1673    0.0000 C   0  0  0  0  0  0  0  0  0  0  0  0
   23.1660   -9.5622    0.0000 O   0  0  0  0  0  0  0  0  0  0  0  0
   22.4484   -8.3437    0.0000 N   0  0  0  0  0  0  0  0  0  0  0  0
   23.1573   -7.9278    0.0000 C   0  0  0  0  0  0  0  0  0  0  0  0
   23.1489   -7.1107    0.0000 C   0  0  0  0  0  0  0  0  0  0  0  0
   23.8537   -6.6989    0.0000 C   0  0  0  0  0  0  0  0  0  0  0  0
   24.5670   -7.1002    0.0000 C   0  0  0  0  0  0  0  0  0  0  0  0
   24.5713   -7.9173    0.0000 C   0  0  0  0  0  0  0  0  0  0  0  0
   23.8665   -8.3332    0.0000 C   0  0  0  0  0  0  0  0  0  0  0  0
   25.2677   -6.6884    0.0000 C   0  0  0  0  0  0  0  0  0  0  0  0
   25.2634   -5.8712    0.0000 C   0  0  0  0  0  0  0  0  0  0  0  0
   25.9682   -5.4595    0.0000 C   0  0  0  0  0  0  0  0  0  0  0  0
   22.4655  -10.7952    0.0000 N   0  0  0  0  0  0  0  0  0  0  0  0
   22.4739  -11.6124    0.0000 C   0  0  0  0  0  0  0  0  0  0  0  0
   21.7691  -12.0242    0.0000 O   0  0  0  0  0  0  0  0  0  0  0  0
   23.1831  -12.0137    0.0000 N   0  0  0  0  0  0  0  0  0  0  0  0
   23.1874  -12.8308    0.0000 C   0  0  0  0  0  0  0  0  0  0  0  0
   23.9007  -13.2362    0.0000 C   0  0  0  0  0  0  0  0  0  0  0  0
   23.9050  -14.0534    0.0000 C   0  0  0  0  0  0  0  0  0  0  0  0
   23.2002  -14.4651    0.0000 C   0  0  0  0  0  0  0  0  0  0  0  0
   22.4910  -14.0639    0.0000 C   0  0  0  0  0  0  0  0  0  0  0  0
   22.4826  -13.2467    0.0000 C   0  0  0  0  0  0  0  0  0  0  0  0
   23.2045  -15.2823    0.0000 Br  0  0  0  0  0  0  0  0  0  0  0  0
  1  2  1  0
  2  3  1  0
  3  4  2  0
  4  5  1  0
  5  6  2  0
  6  7  1  0
  2  7  2  0
  1  8  2  0
  1  9  1  0
 10 11  2  0
 11 12  1  0
 12 13  2  0
 13 14  1  0
 14 15  2  0
 10 15  1  0
 16 17  1  0
 17 18  1  0
 13 16  1  0
  9 10  1  0
 19 20  1  0
 20 21  2  0
 20 22  1  0
 23 24  2  0
 24 25  1  0
 25 26  2  0
 26 27  1  0
 27 28  2  0
 23 28  1  0
 26 29  1  0
 22 23  1  0
  3 19  1  0
M  END
>  <Classification>  (363) 
1

>  <pchembl>  (363) 
6.02

>  <InChI_steorem>  (363) 
InChI=1S/C23H22BrN3O2/c1-2-5-16-8-12-18(13-9-16)25-22(28)20-6-3-4-7-21(20)27-23(29)26-19-14-10-17(24)11-15-19/h3-4,6-15H,2,5H2,1H3,(H,25,28)(H2,26,27,29)

>  <source>  (363) 
ChEMBL25

>  <source_id>  (363) 
25

>  <optional_reference>  (363) 
10.1016/j.bmcl.2017.09.009

>  <optional_origin>  (363) 
None

>  <target>  (363) 
BCRP

$$$$

     RDKit          2D

 31 34  0  0  0  0  0  0  0  0999 V2000
   17.6658  -16.2195    0.0000 C   0  0  0  0  0  0  0  0  0  0  0  0
   16.9670  -16.6432    0.0000 C   0  0  0  0  0  0  0  0  0  0  0  0
   16.2500  -16.2486    0.0000 C   0  0  0  0  0  0  0  0  0  0  0  0
   15.5512  -16.6723    0.0000 C   0  0  0  0  0  0  0  0  0  0  0  0
   15.5694  -17.4904    0.0000 C   0  0  0  0  0  0  0  0  0  0  0  0
   16.2864  -17.8850    0.0000 C   0  0  0  0  0  0  0  0  0  0  0  0
   16.9852  -17.4614    0.0000 C   0  0  0  0  0  0  0  0  0  0  0  0
   18.3828  -16.6141    0.0000 O   0  0  0  0  0  0  0  0  0  0  0  0
   17.6476  -15.4013    0.0000 N   0  0  0  0  0  0  0  0  0  0  0  0
   14.8363  -16.2812    0.0000 N   0  0  0  0  0  0  0  0  0  0  0  0
   14.8181  -15.4630    0.0000 O   0  0  0  0  0  0  0  0  0  0  0  0
   14.1375  -16.7049    0.0000 O   0  0  0  0  0  0  0  0  0  0  0  0
   16.9328  -15.0103    0.0000 C   0  0  0  0  0  0  0  0  0  0  0  0
   16.9146  -14.1921    0.0000 C   0  0  0  0  0  0  0  0  0  0  0  0
   16.1997  -13.8011    0.0000 C   0  0  0  0  0  0  0  0  0  0  0  0
   15.5009  -14.2248    0.0000 C   0  0  0  0  0  0  0  0  0  0  0  0
   15.5169  -15.0394    0.0000 C   0  0  0  0  0  0  0  0  0  0  0  0
   16.2339  -15.4340    0.0000 C   0  0  0  0  0  0  0  0  0  0  0  0
   17.6823  -12.9559    0.0000 N   0  0  0  0  0  0  0  0  0  0  0  0
   18.4768  -12.7673    0.0000 N   0  0  0  0  0  0  0  0  0  0  0  0
   18.9004  -13.4661    0.0000 N   0  0  0  0  0  0  0  0  0  0  0  0
   18.3678  -14.0868    0.0000 N   0  0  0  0  0  0  0  0  0  0  0  0
   17.6134  -13.7685    0.0000 C   0  0  0  0  0  0  0  0  0  0  0  0
   18.7951  -12.0128    0.0000 C   0  0  0  0  0  0  0  0  0  0  0  0
   18.2996  -11.3655    0.0000 C   0  0  0  0  0  0  0  0  0  0  0  0
   18.6178  -10.6111    0.0000 C   0  0  0  0  0  0  0  0  0  0  0  0
   19.4281  -10.5061    0.0000 C   0  0  0  0  0  0  0  0  0  0  0  0
   19.9222  -11.1591    0.0000 C   0  0  0  0  0  0  0  0  0  0  0  0
   19.6039  -11.9135    0.0000 C   0  0  0  0  0  0  0  0  0  0  0  0
   18.1202   -9.9603    0.0000 O   0  0  0  0  0  0  0  0  0  0  0  0
   18.4385   -9.2058    0.0000 C   0  0  0  0  0  0  0  0  0  0  0  0
  1  2  1  0
  2  3  2  0
  3  4  1  0
  4  5  2  0
  5  6  1  0
  6  7  2  0
  2  7  1  0
  1  8  2  0
  1  9  1  0
 10 11  2  0
 10 12  1  0
  4 10  1  0
 13 14  1  0
 14 15  2  0
 15 16  1  0
 16 17  2  0
 17 18  1  0
 13 18  2  0
 19 20  1  0
 20 21  1  0
 21 22  2  0
 22 23  1  0
 19 23  2  0
 24 25  2  0
 25 26  1  0
 26 27  2  0
 27 28  1  0
 28 29  2  0
 24 29  1  0
 30 31  1  0
 26 30  1  0
 20 24  1  0
 14 23  1  0
  9 13  1  0
M  CHG  2  10   1  12  -1
M  END
>  <Classification>  (364) 
1

>  <pchembl>  (364) 
6.06

>  <InChI_steorem>  (364) 
InChI=1S/C21H16N6O4/c1-31-17-9-5-7-15(13-17)26-24-20(23-25-26)18-10-2-3-11-19(18)22-21(28)14-6-4-8-16(12-14)27(29)30/h2-13H,1H3,(H,22,28)

>  <source>  (364) 
ChEMBL25

>  <source_id>  (364) 
25

>  <optional_reference>  (364) 
10.1016/j.bmcl.2017.09.009

>  <optional_origin>  (364) 
None

>  <target>  (364) 
BCRP

$$$$

     RDKit          2D

 24 27  0  0  0  0  0  0  0  0999 V2000
    9.6256   -4.9428    0.0000 C   0  0  0  0  0  0  0  0  0  0  0  0
    8.9206   -5.3514    0.0000 C   0  0  0  0  0  0  0  0  0  0  0  0
    8.9206   -6.1686    0.0000 C   0  0  0  0  0  0  0  0  0  0  0  0
    9.6256   -6.5813    0.0000 C   0  0  0  0  0  0  0  0  0  0  0  0
   10.3347   -6.1686    0.0000 C   0  0  0  0  0  0  0  0  0  0  0  0
   10.3347   -5.3514    0.0000 C   0  0  0  0  0  0  0  0  0  0  0  0
    9.6256   -4.1256    0.0000 O   0  0  0  0  0  0  0  0  0  0  0  0
    8.2115   -6.5813    0.0000 N   0  0  0  0  0  0  0  0  0  0  0  0
    8.9206   -8.6243    0.0000 C   0  0  0  0  0  0  0  0  0  0  0  0
    8.2115   -9.0329    0.0000 N   0  0  0  0  0  0  0  0  0  0  0  0
    7.5066   -8.6243    0.0000 C   0  0  0  0  0  0  0  0  0  0  0  0
    7.5066   -7.8071    0.0000 C   0  0  0  0  0  0  0  0  0  0  0  0
    8.2115   -7.3985    0.0000 C   0  0  0  0  0  0  0  0  0  0  0  0
    8.9206   -7.8071    0.0000 N   0  0  0  0  0  0  0  0  0  0  0  0
    6.7975   -7.3985    0.0000 C   0  0  0  0  0  0  0  0  0  0  0  0
    6.0884   -7.8071    0.0000 C   0  0  0  0  0  0  0  0  0  0  0  0
    6.0884   -8.6243    0.0000 C   0  0  0  0  0  0  0  0  0  0  0  0
    6.7975   -9.0329    0.0000 N   0  0  0  0  0  0  0  0  0  0  0  0
    9.6256   -9.0329    0.0000 C   0  0  0  0  0  0  0  0  0  0  0  0
    9.6256   -9.8501    0.0000 C   0  0  0  0  0  0  0  0  0  0  0  0
   10.3347  -10.2587    0.0000 C   0  0  0  0  0  0  0  0  0  0  0  0
   11.0438   -9.8501    0.0000 C   0  0  0  0  0  0  0  0  0  0  0  0
   11.0438   -9.0329    0.0000 C   0  0  0  0  0  0  0  0  0  0  0  0
   10.3347   -8.6243    0.0000 C   0  0  0  0  0  0  0  0  0  0  0  0
  1  2  2  0
  2  3  1  0
  3  4  2  0
  4  5  1  0
  5  6  2  0
  1  6  1  0
  1  7  1  0
  9 10  2  0
 10 11  1  0
 11 12  2  0
 12 13  1  0
 13 14  2  0
  9 14  1  0
 15 16  2  0
 16 17  1  0
 17 18  2  0
 11 18  1  0
 12 15  1  0
 19 20  2  0
 20 21  1  0
 21 22  2  0
 22 23  1  0
 23 24  2  0
 19 24  1  0
  9 19  1  0
  8 13  1  0
  3  8  1  0
M  END
>  <Classification>  (365) 
1

>  <pchembl>  (365) 
5.91

>  <InChI_steorem>  (365) 
InChI=1S/C19H14N4O/c24-15-9-4-8-14(12-15)21-19-16-10-5-11-20-18(16)22-17(23-19)13-6-2-1-3-7-13/h1-12,24H,(H,20,21,22,23)

>  <source>  (365) 
ChEMBL25

>  <source_id>  (365) 
25

>  <optional_reference>  (365) 
10.1021/acs.jmedchem.7b01012

>  <optional_origin>  (365) 
None

>  <target>  (365) 
BCRP

$$$$

     RDKit          2D

 26 28  0  0  0  0  0  0  0  0999 V2000
   -3.9703   -2.0330    0.0000 C   0  0  0  0  0  0  0  0  0  0  0  0
   -4.6848   -1.6205    0.0000 C   0  0  0  0  0  0  0  0  0  0  0  0
   -5.3993   -2.0330    0.0000 C   0  0  0  0  0  0  0  0  0  0  0  0
   -5.3993   -2.8580    0.0000 C   0  0  0  0  0  0  0  0  0  0  0  0
   -4.6848   -3.2705    0.0000 C   0  0  0  0  0  0  0  0  0  0  0  0
   -3.9703   -2.8580    0.0000 C   0  0  0  0  0  0  0  0  0  0  0  0
   -3.2558   -1.6205    0.0000 O   0  0  0  0  0  0  0  0  0  0  0  0
   -2.5414   -2.0330    0.0000 C   0  0  0  0  0  0  0  0  0  0  0  0
   -2.5414   -2.8580    0.0000 C   0  0  0  0  0  0  0  0  0  0  0  0
   -3.2559   -3.2705    0.0000 C   0  0  0  0  0  0  0  0  0  0  0  0
   -1.8269   -1.6205    0.0000 C   0  0  0  0  0  0  0  0  0  0  0  0
   -1.1124   -2.0330    0.0000 C   0  0  0  0  0  0  0  0  0  0  0  0
   -0.3979   -1.6205    0.0000 C   0  0  0  0  0  0  0  0  0  0  0  0
   -0.3979   -0.7955    0.0000 C   0  0  0  0  0  0  0  0  0  0  0  0
   -1.1124   -0.3830    0.0000 C   0  0  0  0  0  0  0  0  0  0  0  0
   -1.8269   -0.7955    0.0000 C   0  0  0  0  0  0  0  0  0  0  0  0
   -2.5414   -0.3830    0.0000 O   0  0  0  0  0  0  0  0  0  0  0  0
    0.3165   -0.3830    0.0000 O   0  0  0  0  0  0  0  0  0  0  0  0
   -1.8269   -3.2705    0.0000 O   0  0  0  0  0  0  0  0  0  0  0  0
   -3.2559   -4.0955    0.0000 O   0  0  0  0  0  0  0  0  0  0  0  0
   -4.6848   -4.0955    0.0000 O   0  0  0  0  0  0  0  0  0  0  0  0
   -6.1138   -1.6205    0.0000 O   0  0  0  0  0  0  0  0  0  0  0  0
   -3.2558   -0.7955    0.0000 C   0  0  0  0  0  0  0  0  0  0  0  0
    1.0310   -0.7955    0.0000 C   0  0  0  0  0  0  0  0  0  0  0  0
   -6.8282   -2.0330    0.0000 C   0  0  0  0  0  0  0  0  0  0  0  0
   -1.8269   -4.0955    0.0000 C   0  0  0  0  0  0  0  0  0  0  0  0
  1  2  2  0
  2  3  1  0
  3  4  2  0
  4  5  1  0
  5  6  2  0
 10  6  1  0
  6  1  1  0
  1  7  1  0
  7  8  1  0
  8  9  2  0
  9 10  1  0
  8 11  1  0
 11 12  2  0
 16 11  1  0
 12 13  1  0
 13 14  2  0
 14 15  1  0
 15 16  2  0
 16 17  1  0
 14 18  1  0
  9 19  1  0
 10 20  2  0
  5 21  1  0
  3 22  1  0
 17 23  1  0
 18 24  1  0
 22 25  1  0
 19 26  1  0
M  END
>  <Classification>  (366) 
1

>  <pchembl>  (366) 
5.41

>  <InChI_steorem>  (366) 
InChI=1S/C19H18O7/c1-22-10-5-6-12(14(8-10)24-3)18-19(25-4)17(21)16-13(20)7-11(23-2)9-15(16)26-18/h5-9,20H,1-4H3

>  <source>  (366) 
ChEMBL25

>  <source_id>  (366) 
25

>  <optional_reference>  (366) 
10.1016/j.ejmech.2013.06.035

>  <optional_origin>  (366) 
None

>  <target>  (366) 
BCRP

$$$$

     RDKit          2D

 39 42  0  0  0  0  0  0  0  0999 V2000
    3.7345  -22.0982    0.0000 O   0  0  0  0  0  0  0  0  0  0  0  0
    4.4490  -21.6857    0.0000 C   0  0  0  0  0  0  0  0  0  0  0  0
    5.1635  -22.0982    0.0000 C   0  0  0  0  0  0  0  0  0  0  0  0
    5.8779  -21.6857    0.0000 C   0  0  0  0  0  0  0  0  0  0  0  0
    5.8779  -20.8607    0.0000 C   0  0  0  0  0  0  0  0  0  0  0  0
    5.1634  -20.4482    0.0000 C   0  0  0  0  0  0  0  0  0  0  0  0
    4.4490  -20.8607    0.0000 C   0  0  0  0  0  0  0  0  0  0  0  0
    6.5924  -20.4482    0.0000 C   0  0  0  0  0  0  0  0  0  0  0  0
    6.5924  -19.6232    0.0000 C   0  0  0  0  0  0  0  0  0  0  0  0
    7.3069  -20.8607    0.0000 C   0  0  0  0  0  0  0  0  0  0  0  0
    8.0213  -20.4482    0.0000 C   0  0  0  0  0  0  0  0  0  0  0  0
    7.3069  -21.6857    0.0000 C   0  0  0  0  0  0  0  0  0  0  0  0
    6.5924  -22.0982    0.0000 C   0  0  0  0  0  0  0  0  0  0  0  0
    7.3069  -19.2107    0.0000 C   0  0  0  0  0  0  0  0  0  0  0  0
    7.3069  -18.3857    0.0000 C   0  0  0  0  0  0  0  0  0  0  0  0
    6.5924  -17.9732    0.0000 C   0  0  0  0  0  0  0  0  0  0  0  0
    5.8779  -18.3857    0.0000 C   0  0  0  0  0  0  0  0  0  0  0  0
    5.8779  -19.2107    0.0000 C   0  0  0  0  0  0  0  0  0  0  0  0
    8.7358  -20.8607    0.0000 C   0  0  0  0  0  0  0  0  0  0  0  0
    9.4503  -20.4482    0.0000 C   0  0  0  0  0  0  0  0  0  0  0  0
    9.4503  -19.6232    0.0000 C   0  0  0  0  0  0  0  0  0  0  0  0
    8.7358  -19.2107    0.0000 C   0  0  0  0  0  0  0  0  0  0  0  0
    8.0213  -19.6232    0.0000 C   0  0  0  0  0  0  0  0  0  0  0  0
    6.5924  -17.1482    0.0000 O   0  0  0  0  0  0  0  0  0  0  0  0
    7.3069  -16.7357    0.0000 C   0  0  0  0  0  0  0  0  0  0  0  0
    8.0213  -17.1482    0.0000 C   0  0  0  0  0  0  0  0  0  0  0  0
    8.7358  -16.7357    0.0000 N   0  0  0  0  0  0  0  0  0  0  0  0
    9.4503  -17.1482    0.0000 C   0  0  0  0  0  0  0  0  0  0  0  0
    8.7358  -15.9107    0.0000 C   0  0  0  0  0  0  0  0  0  0  0  0
    3.0200  -21.6857    0.0000 C   0  0  0  0  0  0  0  0  0  0  0  0
    2.3056  -22.0982    0.0000 C   0  0  0  0  0  0  0  0  0  0  0  0
    1.5911  -21.6857    0.0000 C   0  0  0  0  0  0  0  0  0  0  0  0
    0.8766  -22.0982    0.0000 C   0  0  0  0  0  0  0  0  0  0  0  0
    0.8766  -22.9232    0.0000 C   0  0  0  0  0  0  0  0  0  0  0  0
    1.5911  -23.3357    0.0000 C   0  0  0  0  0  0  0  0  0  0  0  0
    2.3056  -22.9232    0.0000 C   0  0  0  0  0  0  0  0  0  0  0  0
    0.1622  -23.3357    0.0000 N   0  0  0  0  0  0  0  0  0  0  0  0
    0.1622  -24.1607    0.0000 O   0  0  0  0  0  0  0  0  0  0  0  0
   -0.5523  -22.9232    0.0000 O   0  0  0  0  0  0  0  0  0  0  0  0
  1  2  1  0
  2  3  2  0
  2  7  1  0
  3  4  1  0
  4  5  2  0
  5  6  1  0
  6  7  2  0
  5  8  1  0
  8  9  1  0
  8 10  2  3
 10 11  1  0
 10 12  1  0
 12 13  1  0
  9 14  2  0
  9 18  1  0
 14 15  1  0
 15 16  2  0
 16 17  1  0
 17 18  2  0
 11 19  2  0
 11 23  1  0
 19 20  1  0
 20 21  2  0
 21 22  1  0
 22 23  2  0
 16 24  1  0
 24 25  1  0
 25 26  1  0
 26 27  1  0
 27 28  1  0
 27 29  1  0
  1 30  1  0
 30 31  1  0
 31 32  2  0
 31 36  1  0
 32 33  1  0
 33 34  2  0
 34 35  1  0
 35 36  2  0
 34 37  1  0
 37 38  2  0
 37 39  1  0
M  CHG  2  37   1  39  -1
M  END
>  <Classification>  (367) 
1

>  <pchembl>  (367) 
5.82

>  <InChI_steorem>  (367) 
InChI=1S/C33H34N2O4/c1-4-32(26-8-6-5-7-9-26)33(27-12-18-30(19-13-27)38-23-22-34(2)3)28-14-20-31(21-15-28)39-24-25-10-16-29(17-11-25)35(36)37/h5-21H,4,22-24H2,1-3H3

>  <source>  (367) 
ChEMBL25

>  <source_id>  (367) 
25

>  <optional_reference>  (367) 
None

>  <optional_origin>  (367) 
None

>  <target>  (367) 
BCRP

$$$$

     RDKit          2D

 57 62  0  0  0  0  0  0  0  0999 V2000
    0.1064  -10.6349    0.0000 C   0  0  0  0  0  0  0  0  0  0  0  0
    0.8138  -10.2104    0.0000 C   0  0  0  0  0  0  0  0  0  0  0  0
    0.7991   -9.3843    0.0000 C   0  0  0  0  0  0  0  0  0  0  0  0
    1.5065   -8.9598    0.0000 C   0  0  0  0  0  0  0  0  0  0  0  0
    2.2286   -9.3614    0.0000 C   0  0  0  0  0  0  0  0  0  0  0  0
    2.9360   -8.9369    0.0000 C   0  0  0  0  0  0  0  0  0  0  0  0
    2.2411  -10.1839    0.0000 C   0  0  0  0  0  0  0  0  0  0  0  0
    1.5337  -10.6084    0.0000 C   0  0  0  0  0  0  0  0  0  0  0  0
   -0.6157  -10.2333    0.0000 O   0  0  0  0  0  0  0  0  0  0  0  0
    0.1189  -11.4574    0.0000 O   0  0  0  0  0  0  0  0  0  0  0  0
    2.9213   -8.1108    0.0000 O   0  0  0  0  0  0  0  0  0  0  0  0
    3.6559   -9.3349    0.0000 N   0  0  0  0  0  0  0  0  0  0  0  0
    0.0792   -8.9863    0.0000 N   0  0  0  0  0  0  0  0  0  0  0  0
    0.0645   -8.1603    0.0000 C   0  0  0  0  0  0  0  0  0  0  0  0
   -0.6575   -7.7587    0.0000 O   0  0  0  0  0  0  0  0  0  0  0  0
    0.7573   -6.9097    0.0000 N   0  0  0  0  0  0  0  0  0  0  0  0
    0.7719   -7.7357    0.0000 C   0  0  0  0  0  0  0  0  0  0  0  0
    1.4940   -8.1373    0.0000 C   0  0  0  0  0  0  0  0  0  0  0  0
    2.2014   -7.7128    0.0000 C   0  0  0  0  0  0  0  0  0  0  0  0
    2.1868   -6.8867    0.0000 C   0  0  0  0  0  0  0  0  0  0  0  0
    2.8942   -6.4622    0.0000 C   0  0  0  0  0  0  0  0  0  0  0  0
    2.8795   -5.6361    0.0000 C   0  0  0  0  0  0  0  0  0  0  0  0
    2.1575   -5.2346    0.0000 C   0  0  0  0  0  0  0  0  0  0  0  0
    1.4500   -5.6591    0.0000 C   0  0  0  0  0  0  0  0  0  0  0  0
    1.4647   -6.4852    0.0000 C   0  0  0  0  0  0  0  0  0  0  0  0
    4.3633   -8.9104    0.0000 C   0  0  0  0  0  0  0  0  0  0  0  0
    4.3508   -8.0879    0.0000 C   0  0  0  0  0  0  0  0  0  0  0  0
    5.0582   -7.6634    0.0000 C   0  0  0  0  0  0  0  0  0  0  0  0
    5.7781   -8.0614    0.0000 C   0  0  0  0  0  0  0  0  0  0  0  0
    5.7927   -8.8874    0.0000 C   0  0  0  0  0  0  0  0  0  0  0  0
    5.0853   -9.3119    0.0000 C   0  0  0  0  0  0  0  0  0  0  0  0
    6.4855   -7.6369    0.0000 C   0  0  0  0  0  0  0  0  0  0  0  0
    7.2075   -8.0384    0.0000 C   0  0  0  0  0  0  0  0  0  0  0  0
    8.6406   -8.0133    0.0000 C   0  0  0  0  0  0  0  0  0  0  0  0
    7.9185   -7.6118    0.0000 N   0  0  0  0  0  0  0  0  0  0  0  0
    7.9039   -6.7857    0.0000 C   0  0  0  0  0  0  0  0  0  0  0  0
    8.6113   -6.3612    0.0000 C   0  0  0  0  0  0  0  0  0  0  0  0
    9.3333   -6.7628    0.0000 C   0  0  0  0  0  0  0  0  0  0  0  0
   10.0407   -6.3382    0.0000 C   0  0  0  0  0  0  0  0  0  0  0  0
   10.7628   -6.7398    0.0000 C   0  0  0  0  0  0  0  0  0  0  0  0
   10.7753   -7.5623    0.0000 C   0  0  0  0  0  0  0  0  0  0  0  0
   10.0679   -7.9868    0.0000 C   0  0  0  0  0  0  0  0  0  0  0  0
    9.3480   -7.5888    0.0000 C   0  0  0  0  0  0  0  0  0  0  0  0
   11.4702   -6.3153    0.0000 O   0  0  0  0  0  0  0  0  0  0  0  0
   12.1901   -6.7133    0.0000 C   0  0  0  0  0  0  0  0  0  0  0  0
   12.8975   -6.2888    0.0000 C   0  0  0  0  0  0  0  0  0  0  0  0
   12.8850   -5.4663    0.0000 O   0  0  0  0  0  0  0  0  0  0  0  0
   13.5924   -5.0418    0.0000 C   0  0  0  0  0  0  0  0  0  0  0  0
   13.5777   -4.2157    0.0000 C   0  0  0  0  0  0  0  0  0  0  0  0
   14.2851   -3.7912    0.0000 O   0  0  0  0  0  0  0  0  0  0  0  0
   14.2705   -2.9651    0.0000 C   0  0  0  0  0  0  0  0  0  0  0  0
   14.9779   -2.5406    0.0000 C   0  0  0  0  0  0  0  0  0  0  0  0
   14.9654   -1.7181    0.0000 O   0  0  0  0  0  0  0  0  0  0  0  0
   15.6728   -1.2936    0.0000 C   0  0  0  0  0  0  0  0  0  0  0  0
   11.4973   -7.9639    0.0000 O   0  0  0  0  0  0  0  0  0  0  0  0
   12.2047   -7.5394    0.0000 C   0  0  0  0  0  0  0  0  0  0  0  0
    0.8409  -11.8590    0.0000 C   0  0  0  0  0  0  0  0  0  0  0  0
  1  2  1  0
  2  3  2  0
  3  4  1  0
  4  5  2  0
  5  6  1  0
  5  7  1  0
  7  8  2  0
  2  8  1  0
  1  9  2  0
  1 10  1  0
  6 11  2  0
  6 12  1  0
 14 15  2  0
 16 17  2  0
 17 18  1  0
 18 19  2  0
 19 20  1  0
 20 21  2  0
 21 22  1  0
 22 23  2  0
 23 24  1  0
 24 25  2  0
 16 25  1  0
 20 25  1  0
 14 17  1  0
 13 14  1  0
  3 13  1  0
 26 27  2  0
 27 28  1  0
 28 29  2  0
 29 30  1  0
 30 31  2  0
 26 31  1  0
 32 33  1  0
 34 35  1  0
 35 36  1  0
 36 37  1  0
 37 38  1  0
 38 39  2  0
 39 40  1  0
 40 41  2  0
 41 42  1  0
 42 43  2  0
 34 43  1  0
 38 43  1  0
 45 46  1  0
 44 45  1  0
 48 49  1  0
 47 48  1  0
 51 52  1  0
 50 51  1  0
 53 54  1  0
 52 53  1  0
 49 50  1  0
 46 47  1  0
 40 44  1  0
 55 56  1  0
 41 55  1  0
 33 35  1  0
 29 32  1  0
 12 26  1  0
 10 57  1  0
M  END
>  <Classification>  (368) 
1

>  <pchembl>  (368) 
6.74

>  <InChI_steorem>  (368) 
InChI=1S/C44H48N4O9/c1-52-20-21-55-22-23-56-24-25-57-41-27-32-17-19-48(29-34(32)28-40(41)53-2)18-16-30-8-12-35(13-9-30)45-42(49)33-10-14-36(44(51)54-3)39(26-33)47-43(50)38-15-11-31-6-4-5-7-37(31)46-38/h4-15,26-28H,16-25,29H2,1-3H3,(H,45,49)(H,47,50)

>  <source>  (368) 
ChEMBL25

>  <source_id>  (368) 
25

>  <optional_reference>  (368) 
10.1016/j.bmcl.2011.04.094

>  <optional_origin>  (368) 
None

>  <target>  (368) 
BCRP

$$$$

     RDKit          2D

 57 62  0  0  0  0  0  0  0  0999 V2000
    0.1064  -10.6349    0.0000 C   0  0  0  0  0  0  0  0  0  0  0  0
    0.8138  -10.2104    0.0000 C   0  0  0  0  0  0  0  0  0  0  0  0
    0.7991   -9.3843    0.0000 C   0  0  0  0  0  0  0  0  0  0  0  0
    1.5065   -8.9598    0.0000 C   0  0  0  0  0  0  0  0  0  0  0  0
    2.2286   -9.3614    0.0000 C   0  0  0  0  0  0  0  0  0  0  0  0
    2.9360   -8.9369    0.0000 C   0  0  0  0  0  0  0  0  0  0  0  0
    2.2411  -10.1839    0.0000 C   0  0  0  0  0  0  0  0  0  0  0  0
    1.5337  -10.6084    0.0000 C   0  0  0  0  0  0  0  0  0  0  0  0
   -0.6157  -10.2333    0.0000 O   0  0  0  0  0  0  0  0  0  0  0  0
    0.1189  -11.4574    0.0000 O   0  0  0  0  0  0  0  0  0  0  0  0
    2.9213   -8.1108    0.0000 O   0  0  0  0  0  0  0  0  0  0  0  0
    3.6559   -9.3349    0.0000 N   0  0  0  0  0  0  0  0  0  0  0  0
    0.0792   -8.9863    0.0000 N   0  0  0  0  0  0  0  0  0  0  0  0
    0.0645   -8.1603    0.0000 C   0  0  0  0  0  0  0  0  0  0  0  0
   -0.6575   -7.7587    0.0000 O   0  0  0  0  0  0  0  0  0  0  0  0
    0.7719   -7.7357    0.0000 C   0  0  0  0  0  0  0  0  0  0  0  0
    1.4940   -8.1373    0.0000 C   0  0  0  0  0  0  0  0  0  0  0  0
    2.2014   -7.7128    0.0000 C   0  0  0  0  0  0  0  0  0  0  0  0
    2.1868   -6.8867    0.0000 C   0  0  0  0  0  0  0  0  0  0  0  0
    2.8795   -5.6361    0.0000 C   0  0  0  0  0  0  0  0  0  0  0  0
    2.1575   -5.2346    0.0000 C   0  0  0  0  0  0  0  0  0  0  0  0
    1.4500   -5.6591    0.0000 C   0  0  0  0  0  0  0  0  0  0  0  0
    1.4647   -6.4852    0.0000 C   0  0  0  0  0  0  0  0  0  0  0  0
    4.3633   -8.9104    0.0000 C   0  0  0  0  0  0  0  0  0  0  0  0
    4.3508   -8.0879    0.0000 C   0  0  0  0  0  0  0  0  0  0  0  0
    5.0582   -7.6634    0.0000 C   0  0  0  0  0  0  0  0  0  0  0  0
    5.7781   -8.0614    0.0000 C   0  0  0  0  0  0  0  0  0  0  0  0
    5.7927   -8.8874    0.0000 C   0  0  0  0  0  0  0  0  0  0  0  0
    5.0853   -9.3119    0.0000 C   0  0  0  0  0  0  0  0  0  0  0  0
    6.4855   -7.6369    0.0000 C   0  0  0  0  0  0  0  0  0  0  0  0
    7.2075   -8.0384    0.0000 C   0  0  0  0  0  0  0  0  0  0  0  0
    8.6406   -8.0133    0.0000 C   0  0  0  0  0  0  0  0  0  0  0  0
    7.9185   -7.6118    0.0000 N   0  0  0  0  0  0  0  0  0  0  0  0
    7.9039   -6.7857    0.0000 C   0  0  0  0  0  0  0  0  0  0  0  0
    8.6113   -6.3612    0.0000 C   0  0  0  0  0  0  0  0  0  0  0  0
    9.3333   -6.7628    0.0000 C   0  0  0  0  0  0  0  0  0  0  0  0
   10.0407   -6.3382    0.0000 C   0  0  0  0  0  0  0  0  0  0  0  0
   10.7628   -6.7398    0.0000 C   0  0  0  0  0  0  0  0  0  0  0  0
   10.7753   -7.5623    0.0000 C   0  0  0  0  0  0  0  0  0  0  0  0
   10.0679   -7.9868    0.0000 C   0  0  0  0  0  0  0  0  0  0  0  0
    9.3480   -7.5888    0.0000 C   0  0  0  0  0  0  0  0  0  0  0  0
   11.4702   -6.3153    0.0000 O   0  0  0  0  0  0  0  0  0  0  0  0
   12.1901   -6.7133    0.0000 C   0  0  0  0  0  0  0  0  0  0  0  0
   12.8975   -6.2888    0.0000 C   0  0  0  0  0  0  0  0  0  0  0  0
   12.8850   -5.4663    0.0000 O   0  0  0  0  0  0  0  0  0  0  0  0
   13.5924   -5.0418    0.0000 C   0  0  0  0  0  0  0  0  0  0  0  0
   13.5777   -4.2157    0.0000 C   0  0  0  0  0  0  0  0  0  0  0  0
   14.2851   -3.7912    0.0000 O   0  0  0  0  0  0  0  0  0  0  0  0
   14.2705   -2.9651    0.0000 C   0  0  0  0  0  0  0  0  0  0  0  0
   14.9779   -2.5406    0.0000 C   0  0  0  0  0  0  0  0  0  0  0  0
   14.9654   -1.7181    0.0000 O   0  0  0  0  0  0  0  0  0  0  0  0
   15.6728   -1.2936    0.0000 C   0  0  0  0  0  0  0  0  0  0  0  0
   11.4973   -7.9639    0.0000 O   0  0  0  0  0  0  0  0  0  0  0  0
   12.2047   -7.5394    0.0000 C   0  0  0  0  0  0  0  0  0  0  0  0
    0.8409  -11.8590    0.0000 C   0  0  0  0  0  0  0  0  0  0  0  0
    0.7573   -6.9097    0.0000 C   0  0  0  0  0  0  0  0  0  0  0  0
    2.8942   -6.4622    0.0000 N   0  0  0  0  0  0  0  0  0  0  0  0
  1  2  1  0
  2  3  2  0
  3  4  1  0
  4  5  2  0
  5  6  1  0
  5  7  1  0
  7  8  2  0
  2  8  1  0
  1  9  2  0
  1 10  1  0
  6 11  2  0
  6 12  1  0
 14 15  2  0
 56 16  1  0
 16 17  2  0
 17 18  1  0
 18 19  2  0
 19 57  1  0
 57 20  2  0
 20 21  1  0
 21 22  2  0
 22 23  1  0
 56 23  2  0
 19 23  1  0
 14 16  1  0
 13 14  1  0
  3 13  1  0
 24 25  2  0
 25 26  1  0
 26 27  2  0
 27 28  1  0
 28 29  2  0
 24 29  1  0
 30 31  1  0
 32 33  1  0
 33 34  1  0
 34 35  1  0
 35 36  1  0
 36 37  2  0
 37 38  1  0
 38 39  2  0
 39 40  1  0
 40 41  2  0
 32 41  1  0
 36 41  1  0
 43 44  1  0
 42 43  1  0
 46 47  1  0
 45 46  1  0
 49 50  1  0
 48 49  1  0
 51 52  1  0
 50 51  1  0
 47 48  1  0
 44 45  1  0
 38 42  1  0
 53 54  1  0
 39 53  1  0
 31 33  1  0
 27 30  1  0
 12 24  1  0
 10 55  1  0
M  END
>  <Classification>  (369) 
1

>  <pchembl>  (369) 
6.41

>  <InChI_steorem>  (369) 
InChI=1S/C44H48N4O9/c1-52-19-20-55-21-22-56-23-24-57-41-27-31-15-18-48(29-35(31)28-40(41)53-2)17-14-30-6-10-36(11-7-30)46-42(49)34-8-12-37(44(51)54-3)39(26-34)47-43(50)33-9-13-38-32(25-33)5-4-16-45-38/h4-13,16,25-28H,14-15,17-24,29H2,1-3H3,(H,46,49)(H,47,50)

>  <source>  (369) 
ChEMBL25

>  <source_id>  (369) 
25

>  <optional_reference>  (369) 
10.1016/j.bmcl.2011.04.094

>  <optional_origin>  (369) 
None

>  <target>  (369) 
BCRP

$$$$

     RDKit          2D

 57 62  0  0  0  0  0  0  0  0999 V2000
   -1.3955  -12.6048    0.0000 C   0  0  0  0  0  0  0  0  0  0  0  0
   -0.6806  -12.1929    0.0000 C   0  0  0  0  0  0  0  0  0  0  0  0
   -0.6806  -11.3690    0.0000 C   0  0  0  0  0  0  0  0  0  0  0  0
    0.0302  -10.9530    0.0000 C   0  0  0  0  0  0  0  0  0  0  0  0
    0.7450  -11.3690    0.0000 C   0  0  0  0  0  0  0  0  0  0  0  0
    1.4599  -10.9530    0.0000 C   0  0  0  0  0  0  0  0  0  0  0  0
    0.7450  -12.1929    0.0000 C   0  0  0  0  0  0  0  0  0  0  0  0
    0.0302  -12.6048    0.0000 C   0  0  0  0  0  0  0  0  0  0  0  0
   -1.3955  -13.4287    0.0000 O   0  0  0  0  0  0  0  0  0  0  0  0
   -2.1104  -12.1929    0.0000 O   0  0  0  0  0  0  0  0  0  0  0  0
    1.4599  -10.1292    0.0000 O   0  0  0  0  0  0  0  0  0  0  0  0
    2.1706  -11.3690    0.0000 N   0  0  0  0  0  0  0  0  0  0  0  0
   -1.3955  -10.9530    0.0000 N   0  0  0  0  0  0  0  0  0  0  0  0
   -1.3955  -10.1292    0.0000 C   0  0  0  0  0  0  0  0  0  0  0  0
   -2.1104   -9.7172    0.0000 O   0  0  0  0  0  0  0  0  0  0  0  0
   -0.6806   -8.8934    0.0000 N   0  0  0  0  0  0  0  0  0  0  0  0
   -0.6806   -9.7172    0.0000 C   0  0  0  0  0  0  0  0  0  0  0  0
    0.0302  -10.1292    0.0000 C   0  0  0  0  0  0  0  0  0  0  0  0
    0.7450   -9.7172    0.0000 C   0  0  0  0  0  0  0  0  0  0  0  0
    0.7450   -8.8934    0.0000 C   0  0  0  0  0  0  0  0  0  0  0  0
    1.4599   -8.4815    0.0000 C   0  0  0  0  0  0  0  0  0  0  0  0
    1.4599   -7.6576    0.0000 C   0  0  0  0  0  0  0  0  0  0  0  0
    0.7450   -7.2457    0.0000 C   0  0  0  0  0  0  0  0  0  0  0  0
    0.0302   -7.6576    0.0000 C   0  0  0  0  0  0  0  0  0  0  0  0
    0.0302   -8.4815    0.0000 C   0  0  0  0  0  0  0  0  0  0  0  0
    2.8855  -10.9530    0.0000 C   0  0  0  0  0  0  0  0  0  0  0  0
    2.8855  -10.1292    0.0000 C   0  0  0  0  0  0  0  0  0  0  0  0
    3.6003   -9.7172    0.0000 C   0  0  0  0  0  0  0  0  0  0  0  0
    4.3110  -10.1292    0.0000 C   0  0  0  0  0  0  0  0  0  0  0  0
    4.3110  -10.9530    0.0000 C   0  0  0  0  0  0  0  0  0  0  0  0
    3.6003  -11.3690    0.0000 C   0  0  0  0  0  0  0  0  0  0  0  0
    5.0259   -9.7172    0.0000 C   0  0  0  0  0  0  0  0  0  0  0  0
    5.7408  -10.1292    0.0000 C   0  0  0  0  0  0  0  0  0  0  0  0
    7.1663  -10.1292    0.0000 C   0  0  0  0  0  0  0  0  0  0  0  0
    6.4514   -9.7172    0.0000 N   0  0  0  0  0  0  0  0  0  0  0  0
    6.4514   -8.8934    0.0000 C   0  0  0  0  0  0  0  0  0  0  0  0
    7.1663   -8.4815    0.0000 C   0  0  0  0  0  0  0  0  0  0  0  0
    7.8770   -8.8934    0.0000 C   0  0  0  0  0  0  0  0  0  0  0  0
    8.5919   -8.4815    0.0000 C   0  0  0  0  0  0  0  0  0  0  0  0
    9.3067   -8.8934    0.0000 C   0  0  0  0  0  0  0  0  0  0  0  0
    9.3067   -9.7172    0.0000 C   0  0  0  0  0  0  0  0  0  0  0  0
    8.5919  -10.1292    0.0000 C   0  0  0  0  0  0  0  0  0  0  0  0
    7.8770   -9.7172    0.0000 C   0  0  0  0  0  0  0  0  0  0  0  0
   10.0216  -10.1292    0.0000 O   0  0  0  0  0  0  0  0  0  0  0  0
   10.7323   -9.7172    0.0000 C   0  0  0  0  0  0  0  0  0  0  0  0
   11.4472  -10.1292    0.0000 C   0  0  0  0  0  0  0  0  0  0  0  0
   12.1620   -9.7172    0.0000 O   0  0  0  0  0  0  0  0  0  0  0  0
   12.8727  -10.1292    0.0000 C   0  0  0  0  0  0  0  0  0  0  0  0
   13.5876   -9.7172    0.0000 C   0  0  0  0  0  0  0  0  0  0  0  0
   14.3025  -10.1292    0.0000 O   0  0  0  0  0  0  0  0  0  0  0  0
   15.0132   -9.7172    0.0000 C   0  0  0  0  0  0  0  0  0  0  0  0
   15.7281  -10.1292    0.0000 C   0  0  0  0  0  0  0  0  0  0  0  0
   16.4430   -9.7172    0.0000 O   0  0  0  0  0  0  0  0  0  0  0  0
   17.1537  -10.1292    0.0000 C   0  0  0  0  0  0  0  0  0  0  0  0
   10.0216   -8.4815    0.0000 O   0  0  0  0  0  0  0  0  0  0  0  0
   10.7323   -8.8934    0.0000 C   0  0  0  0  0  0  0  0  0  0  0  0
   -2.1104  -11.3690    0.0000 C   0  0  0  0  0  0  0  0  0  0  0  0
  1  2  1  0
  2  3  2  0
  3  4  1  0
  4  5  2  0
  5  6  1  0
  5  7  1  0
  7  8  2  0
  2  8  1  0
  1  9  2  0
  1 10  1  0
  6 11  2  0
  6 12  1  0
 14 15  2  0
 16 17  2  0
 17 18  1  0
 18 19  2  0
 19 20  1  0
 20 21  2  0
 21 22  1  0
 22 23  2  0
 23 24  1  0
 24 25  2  0
 16 25  1  0
 20 25  1  0
 14 17  1  0
 13 14  1  0
  3 13  1  0
 26 27  2  0
 27 28  1  0
 28 29  2  0
 29 30  1  0
 30 31  2  0
 26 31  1  0
 32 33  1  0
 34 35  1  0
 35 36  1  0
 36 37  1  0
 37 38  1  0
 38 39  2  0
 39 40  1  0
 40 41  2  0
 41 42  1  0
 42 43  2  0
 34 43  1  0
 38 43  1  0
 45 46  1  0
 44 45  1  0
 48 49  1  0
 47 48  1  0
 51 52  1  0
 50 51  1  0
 53 54  1  0
 52 53  1  0
 49 50  1  0
 46 47  1  0
 41 44  1  0
 55 56  1  0
 40 55  1  0
 33 35  1  0
 29 32  1  0
 12 26  1  0
 10 57  1  0
M  END
>  <Classification>  (370) 
1

>  <pchembl>  (370) 
6.89

>  <InChI_steorem>  (370) 
InChI=1S/C44H48N4O9/c1-52-20-21-55-22-23-56-24-25-57-41-28-34-29-48(19-17-32(34)27-40(41)53-2)18-16-30-8-12-35(13-9-30)45-42(49)33-10-14-36(44(51)54-3)39(26-33)47-43(50)38-15-11-31-6-4-5-7-37(31)46-38/h4-15,26-28H,16-25,29H2,1-3H3,(H,45,49)(H,47,50)

>  <source>  (370) 
ChEMBL25

>  <source_id>  (370) 
25

>  <optional_reference>  (370) 
10.1016/j.bmcl.2011.04.094

>  <optional_origin>  (370) 
None

>  <target>  (370) 
BCRP

$$$$

     RDKit          2D

 57 62  0  0  0  0  0  0  0  0999 V2000
   -1.3955  -12.6048    0.0000 C   0  0  0  0  0  0  0  0  0  0  0  0
   -0.6806  -12.1929    0.0000 C   0  0  0  0  0  0  0  0  0  0  0  0
   -0.6806  -11.3690    0.0000 C   0  0  0  0  0  0  0  0  0  0  0  0
    0.0302  -10.9530    0.0000 C   0  0  0  0  0  0  0  0  0  0  0  0
    0.7450  -11.3690    0.0000 C   0  0  0  0  0  0  0  0  0  0  0  0
    1.4599  -10.9530    0.0000 C   0  0  0  0  0  0  0  0  0  0  0  0
    0.7450  -12.1929    0.0000 C   0  0  0  0  0  0  0  0  0  0  0  0
    0.0302  -12.6048    0.0000 C   0  0  0  0  0  0  0  0  0  0  0  0
   -1.3955  -13.4287    0.0000 O   0  0  0  0  0  0  0  0  0  0  0  0
   -2.1104  -12.1929    0.0000 O   0  0  0  0  0  0  0  0  0  0  0  0
    1.4599  -10.1292    0.0000 O   0  0  0  0  0  0  0  0  0  0  0  0
    2.1706  -11.3690    0.0000 N   0  0  0  0  0  0  0  0  0  0  0  0
   -1.3955  -10.9530    0.0000 N   0  0  0  0  0  0  0  0  0  0  0  0
   -1.3955  -10.1292    0.0000 C   0  0  0  0  0  0  0  0  0  0  0  0
   -2.1104   -9.7172    0.0000 O   0  0  0  0  0  0  0  0  0  0  0  0
   -0.6806   -9.7172    0.0000 C   0  0  0  0  0  0  0  0  0  0  0  0
    0.0302  -10.1292    0.0000 C   0  0  0  0  0  0  0  0  0  0  0  0
    0.7450   -9.7172    0.0000 C   0  0  0  0  0  0  0  0  0  0  0  0
    0.7450   -8.8934    0.0000 C   0  0  0  0  0  0  0  0  0  0  0  0
    1.4599   -7.6576    0.0000 C   0  0  0  0  0  0  0  0  0  0  0  0
    0.7450   -7.2457    0.0000 C   0  0  0  0  0  0  0  0  0  0  0  0
    0.0302   -7.6576    0.0000 C   0  0  0  0  0  0  0  0  0  0  0  0
    0.0302   -8.4815    0.0000 C   0  0  0  0  0  0  0  0  0  0  0  0
    2.8855  -10.9530    0.0000 C   0  0  0  0  0  0  0  0  0  0  0  0
    2.8855  -10.1292    0.0000 C   0  0  0  0  0  0  0  0  0  0  0  0
    3.6003   -9.7172    0.0000 C   0  0  0  0  0  0  0  0  0  0  0  0
    4.3110  -10.1292    0.0000 C   0  0  0  0  0  0  0  0  0  0  0  0
    4.3110  -10.9530    0.0000 C   0  0  0  0  0  0  0  0  0  0  0  0
    3.6003  -11.3690    0.0000 C   0  0  0  0  0  0  0  0  0  0  0  0
    5.0259   -9.7172    0.0000 C   0  0  0  0  0  0  0  0  0  0  0  0
    5.7408  -10.1292    0.0000 C   0  0  0  0  0  0  0  0  0  0  0  0
    7.1663  -10.1292    0.0000 C   0  0  0  0  0  0  0  0  0  0  0  0
    6.4514   -9.7172    0.0000 N   0  0  0  0  0  0  0  0  0  0  0  0
    6.4514   -8.8934    0.0000 C   0  0  0  0  0  0  0  0  0  0  0  0
    7.1663   -8.4815    0.0000 C   0  0  0  0  0  0  0  0  0  0  0  0
    7.8770   -8.8934    0.0000 C   0  0  0  0  0  0  0  0  0  0  0  0
    8.5919   -8.4815    0.0000 C   0  0  0  0  0  0  0  0  0  0  0  0
    9.3067   -8.8934    0.0000 C   0  0  0  0  0  0  0  0  0  0  0  0
    9.3067   -9.7172    0.0000 C   0  0  0  0  0  0  0  0  0  0  0  0
    8.5919  -10.1292    0.0000 C   0  0  0  0  0  0  0  0  0  0  0  0
    7.8770   -9.7172    0.0000 C   0  0  0  0  0  0  0  0  0  0  0  0
   10.0216  -10.1292    0.0000 O   0  0  0  0  0  0  0  0  0  0  0  0
   10.7323   -9.7172    0.0000 C   0  0  0  0  0  0  0  0  0  0  0  0
   11.4472  -10.1292    0.0000 C   0  0  0  0  0  0  0  0  0  0  0  0
   12.1620   -9.7172    0.0000 O   0  0  0  0  0  0  0  0  0  0  0  0
   12.8727  -10.1292    0.0000 C   0  0  0  0  0  0  0  0  0  0  0  0
   13.5876   -9.7172    0.0000 C   0  0  0  0  0  0  0  0  0  0  0  0
   14.3025  -10.1292    0.0000 O   0  0  0  0  0  0  0  0  0  0  0  0
   15.0132   -9.7172    0.0000 C   0  0  0  0  0  0  0  0  0  0  0  0
   15.7281  -10.1292    0.0000 C   0  0  0  0  0  0  0  0  0  0  0  0
   16.4430   -9.7172    0.0000 O   0  0  0  0  0  0  0  0  0  0  0  0
   17.1537  -10.1292    0.0000 C   0  0  0  0  0  0  0  0  0  0  0  0
   10.0216   -8.4815    0.0000 O   0  0  0  0  0  0  0  0  0  0  0  0
   10.7323   -8.8934    0.0000 C   0  0  0  0  0  0  0  0  0  0  0  0
   -2.1104  -11.3690    0.0000 C   0  0  0  0  0  0  0  0  0  0  0  0
    1.4599   -8.4815    0.0000 N   0  0  0  0  0  0  0  0  0  0  0  0
   -0.6806   -8.8934    0.0000 C   0  0  0  0  0  0  0  0  0  0  0  0
  1  2  1  0
  2  3  2  0
  3  4  1  0
  4  5  2  0
  5  6  1  0
  5  7  1  0
  7  8  2  0
  2  8  1  0
  1  9  2  0
  1 10  1  0
  6 11  2  0
  6 12  1  0
 14 15  2  0
 57 16  1  0
 16 17  2  0
 17 18  1  0
 18 19  2  0
 19 56  1  0
 56 20  2  0
 20 21  1  0
 21 22  2  0
 22 23  1  0
 57 23  2  0
 19 23  1  0
 14 16  1  0
 13 14  1  0
  3 13  1  0
 24 25  2  0
 25 26  1  0
 26 27  2  0
 27 28  1  0
 28 29  2  0
 24 29  1  0
 30 31  1  0
 32 33  1  0
 33 34  1  0
 34 35  1  0
 35 36  1  0
 36 37  2  0
 37 38  1  0
 38 39  2  0
 39 40  1  0
 40 41  2  0
 32 41  1  0
 36 41  1  0
 43 44  1  0
 42 43  1  0
 46 47  1  0
 45 46  1  0
 49 50  1  0
 48 49  1  0
 51 52  1  0
 50 51  1  0
 47 48  1  0
 44 45  1  0
 39 42  1  0
 53 54  1  0
 38 53  1  0
 31 33  1  0
 27 30  1  0
 12 24  1  0
 10 55  1  0
M  END
>  <Classification>  (371) 
1

>  <pchembl>  (371) 
6.29

>  <InChI_steorem>  (371) 
InChI=1S/C44H48N4O9/c1-52-19-20-55-21-22-56-23-24-57-41-28-35-29-48(18-15-31(35)27-40(41)53-2)17-14-30-6-10-36(11-7-30)46-42(49)34-8-12-37(44(51)54-3)39(26-34)47-43(50)33-9-13-38-32(25-33)5-4-16-45-38/h4-13,16,25-28H,14-15,17-24,29H2,1-3H3,(H,46,49)(H,47,50)

>  <source>  (371) 
ChEMBL25

>  <source_id>  (371) 
25

>  <optional_reference>  (371) 
10.1016/j.bmcl.2011.04.094

>  <optional_origin>  (371) 
None

>  <target>  (371) 
BCRP

$$$$

     RDKit          2D

 30 33  0  0  0  0  0  0  0  0999 V2000
    1.2990   -0.7500    0.0000 C   0  0  0  0  0  0  0  0  0  0  0  0
    1.2990    0.7500    0.0000 C   0  0  0  0  0  0  0  0  0  0  0  0
    0.0000    1.5000    0.0000 C   0  0  0  0  0  0  0  0  0  0  0  0
   -1.2990    0.7500    0.0000 C   0  0  0  0  0  0  0  0  0  0  0  0
   -1.2990   -0.7500    0.0000 C   0  0  0  0  0  0  0  0  0  0  0  0
    0.0000   -1.5000    0.0000 C   0  0  0  0  0  0  0  0  0  0  0  0
   -2.5987   -1.5004    0.0000 C   0  0  0  0  0  0  0  0  0  0  0  0
   -3.9511   -0.8815    0.0000 N   0  0  0  0  0  0  0  0  0  0  0  0
   -4.9530   -1.9978    0.0000 N   0  0  0  0  0  0  0  0  0  0  0  0
   -4.2010   -3.2957    0.0000 N   0  0  0  0  0  0  0  0  0  0  0  0
   -2.7343   -2.9815    0.0000 N   0  0  0  0  0  0  0  0  0  0  0  0
   -6.4458   -1.8433    0.0000 C   0  0  0  0  0  0  0  0  0  0  0  0
   -7.1563   -0.5279    0.0000 C   0  0  0  0  0  0  0  0  0  0  0  0
   -8.6557   -0.4862    0.0000 C   0  0  0  0  0  0  0  0  0  0  0  0
   -9.4415   -1.7638    0.0000 C   0  0  0  0  0  0  0  0  0  0  0  0
   -8.7279   -3.0832    0.0000 C   0  0  0  0  0  0  0  0  0  0  0  0
   -7.2285   -3.1250    0.0000 C   0  0  0  0  0  0  0  0  0  0  0  0
   -2.5973    1.5031    0.0000 N   0  0  0  0  0  0  0  0  0  0  0  0
   -2.5951    3.0039    0.0000 C   0  0  0  0  0  0  0  0  0  0  0  0
   -3.8933    3.7570    0.0000 C   0  0  0  0  0  0  0  0  0  0  0  0
   -1.5549    3.6021    0.0000 O   0  0  0  0  0  0  0  0  0  0  0  0
   -3.8934    5.2570    0.0000 C   0  0  0  0  0  0  0  0  0  0  0  0
   -5.1924    6.0070    0.0000 C   0  0  0  0  0  0  0  0  0  0  0  0
   -6.4915    5.2571    0.0000 C   0  0  0  0  0  0  0  0  0  0  0  0
   -6.4915    3.7571    0.0000 C   0  0  0  0  0  0  0  0  0  0  0  0
   -5.1925    3.0070    0.0000 C   0  0  0  0  0  0  0  0  0  0  0  0
   -7.7928    6.0048    0.0000 N   0  0  0  0  0  0  0  0  0  0  0  0
   -8.8312    5.4034    0.0000 O   0  0  0  0  0  0  0  0  0  0  0  0
   -7.7948    7.2048    0.0000 O   0  0  0  0  0  0  0  0  0  0  0  0
  -10.6411   -1.7305    0.0000 C   0  0  0  0  0  0  0  0  0  0  0  0
  1  2  2  0
  2  3  1  0
  3  4  2  0
  4  5  1  0
  5  6  2  0
  6  1  1  0
  7  8  2  0
  8  9  1  0
  9 10  1  0
 10 11  2  0
 11  7  1  0
  5  7  1  0
 12 13  2  0
 13 14  1  0
 14 15  2  0
 15 16  1  0
 16 17  2  0
 17 12  1  0
  9 12  1  0
  4 18  1  0
 18 19  1  0
 19 20  1  0
 19 21  2  0
 20 22  2  0
 22 23  1  0
 23 24  2  0
 24 25  1  0
 25 26  2  0
 26 20  1  0
 27 28  2  0
 27 29  1  0
 24 27  1  0
 15 30  1  0
M  CHG  2  27   1  29  -1
M  END
>  <Classification>  (372) 
1

>  <pchembl>  (372) 
7.0

>  <InChI_steorem>  (372) 
InChI=1S/C21H16N6O3/c1-14-6-10-16(11-7-14)26-24-20(23-25-26)18-4-2-3-5-19(18)22-21(28)15-8-12-17(13-9-15)27(29)30/h2-13H,1H3,(H,22,28)

>  <source>  (372) 
ChEMBL25

>  <source_id>  (372) 
25

>  <optional_reference>  (372) 
10.1021/acs.jmedchem.5b00188

>  <optional_origin>  (372) 
None

>  <target>  (372) 
BCRP

$$$$

     RDKit          2D

 30 33  0  0  0  0  0  0  0  0999 V2000
   -6.4915    5.2571    0.0000 C   0  0  0  0  0  0  0  0  0  0  0  0
    1.2990   -0.7500    0.0000 C   0  0  0  0  0  0  0  0  0  0  0  0
    1.2990    0.7500    0.0000 C   0  0  0  0  0  0  0  0  0  0  0  0
    0.0000    1.5000    0.0000 C   0  0  0  0  0  0  0  0  0  0  0  0
   -1.2990    0.7500    0.0000 C   0  0  0  0  0  0  0  0  0  0  0  0
   -1.2990   -0.7500    0.0000 C   0  0  0  0  0  0  0  0  0  0  0  0
    0.0000   -1.5000    0.0000 C   0  0  0  0  0  0  0  0  0  0  0  0
   -2.5987   -1.5004    0.0000 C   0  0  0  0  0  0  0  0  0  0  0  0
   -3.9511   -0.8815    0.0000 N   0  0  0  0  0  0  0  0  0  0  0  0
   -4.9530   -1.9978    0.0000 N   0  0  0  0  0  0  0  0  0  0  0  0
   -4.2010   -3.2957    0.0000 N   0  0  0  0  0  0  0  0  0  0  0  0
   -2.7343   -2.9815    0.0000 N   0  0  0  0  0  0  0  0  0  0  0  0
   -6.4458   -1.8433    0.0000 C   0  0  0  0  0  0  0  0  0  0  0  0
   -7.2285   -3.1250    0.0000 C   0  0  0  0  0  0  0  0  0  0  0  0
   -8.7279   -3.0832    0.0000 C   0  0  0  0  0  0  0  0  0  0  0  0
   -9.4415   -1.7638    0.0000 C   0  0  0  0  0  0  0  0  0  0  0  0
   -8.6557   -0.4862    0.0000 C   0  0  0  0  0  0  0  0  0  0  0  0
   -7.1563   -0.5279    0.0000 C   0  0  0  0  0  0  0  0  0  0  0  0
   -2.5973    1.5031    0.0000 N   0  0  0  0  0  0  0  0  0  0  0  0
   -2.5951    3.0039    0.0000 C   0  0  0  0  0  0  0  0  0  0  0  0
   -3.8933    3.7570    0.0000 C   0  0  0  0  0  0  0  0  0  0  0  0
   -1.5549    3.6021    0.0000 O   0  0  0  0  0  0  0  0  0  0  0  0
   -3.8934    5.2570    0.0000 C   0  0  0  0  0  0  0  0  0  0  0  0
   -5.1924    6.0070    0.0000 C   0  0  0  0  0  0  0  0  0  0  0  0
   -6.4915    3.7571    0.0000 C   0  0  0  0  0  0  0  0  0  0  0  0
   -5.1925    3.0070    0.0000 C   0  0  0  0  0  0  0  0  0  0  0  0
   -7.7928    6.0048    0.0000 O   0  0  0  0  0  0  0  0  0  0  0  0
   -8.8312    5.4034    0.0000 C   0  0  0  0  0  0  0  0  0  0  0  0
   -6.3711    0.7512    0.0000 O   0  0  0  0  0  0  0  0  0  0  0  0
   -6.9422    1.8066    0.0000 C   0  0  0  0  0  0  0  0  0  0  0  0
  2  3  2  0
  3  4  1  0
  4  5  2  0
  5  6  1  0
  6  7  2  0
  7  2  1  0
  8  9  2  0
  9 10  1  0
 10 11  1  0
 11 12  2  0
 12  8  1  0
  6  8  1  0
 13 14  2  0
 14 15  1  0
 15 16  2  0
 16 17  1  0
 17 18  2  0
 18 13  1  0
 10 13  1  0
  5 19  1  0
 19 20  1  0
 20 21  1  0
 20 22  2  0
 21 23  2  0
 23 24  1  0
 24  1  2  0
  1 25  1  0
 25 26  2  0
 26 21  1  0
  1 27  1  0
 27 28  1  0
 18 29  1  0
 29 30  1  0
M  END
>  <Classification>  (373) 
1

>  <pchembl>  (373) 
6.75

>  <InChI_steorem>  (373) 
InChI=1S/C22H19N5O3/c1-29-16-13-11-15(12-14-16)22(28)23-18-8-4-3-7-17(18)21-24-26-27(25-21)19-9-5-6-10-20(19)30-2/h3-14H,1-2H3,(H,23,28)

>  <source>  (373) 
ChEMBL25

>  <source_id>  (373) 
25

>  <optional_reference>  (373) 
10.1021/acs.jmedchem.5b00188

>  <optional_origin>  (373) 
None

>  <target>  (373) 
BCRP

$$$$

     RDKit          2D

 31 34  0  0  0  0  0  0  0  0999 V2000
    1.2990   -0.7500    0.0000 C   0  0  0  0  0  0  0  0  0  0  0  0
    1.2990    0.7500    0.0000 C   0  0  0  0  0  0  0  0  0  0  0  0
    0.0000    1.5000    0.0000 C   0  0  0  0  0  0  0  0  0  0  0  0
   -1.2990    0.7500    0.0000 C   0  0  0  0  0  0  0  0  0  0  0  0
   -1.2990   -0.7500    0.0000 C   0  0  0  0  0  0  0  0  0  0  0  0
    0.0000   -1.5000    0.0000 C   0  0  0  0  0  0  0  0  0  0  0  0
   -2.5987   -1.5004    0.0000 C   0  0  0  0  0  0  0  0  0  0  0  0
   -3.9511   -0.8815    0.0000 N   0  0  0  0  0  0  0  0  0  0  0  0
   -4.9530   -1.9978    0.0000 N   0  0  0  0  0  0  0  0  0  0  0  0
   -4.2010   -3.2957    0.0000 N   0  0  0  0  0  0  0  0  0  0  0  0
   -2.7343   -2.9815    0.0000 N   0  0  0  0  0  0  0  0  0  0  0  0
   -6.4458   -1.8433    0.0000 C   0  0  0  0  0  0  0  0  0  0  0  0
   -7.1563   -0.5279    0.0000 C   0  0  0  0  0  0  0  0  0  0  0  0
   -8.6557   -0.4862    0.0000 C   0  0  0  0  0  0  0  0  0  0  0  0
   -9.4415   -1.7638    0.0000 C   0  0  0  0  0  0  0  0  0  0  0  0
   -8.7279   -3.0832    0.0000 C   0  0  0  0  0  0  0  0  0  0  0  0
   -7.2285   -3.1250    0.0000 C   0  0  0  0  0  0  0  0  0  0  0  0
   -2.5973    1.5031    0.0000 N   0  0  0  0  0  0  0  0  0  0  0  0
   -2.5951    3.0039    0.0000 C   0  0  0  0  0  0  0  0  0  0  0  0
   -3.8933    3.7570    0.0000 C   0  0  0  0  0  0  0  0  0  0  0  0
   -1.5549    3.6021    0.0000 O   0  0  0  0  0  0  0  0  0  0  0  0
   -3.8934    5.2570    0.0000 C   0  0  0  0  0  0  0  0  0  0  0  0
   -5.1924    6.0070    0.0000 C   0  0  0  0  0  0  0  0  0  0  0  0
   -6.4915    5.2571    0.0000 C   0  0  0  0  0  0  0  0  0  0  0  0
   -6.4915    3.7571    0.0000 C   0  0  0  0  0  0  0  0  0  0  0  0
   -5.1925    3.0070    0.0000 C   0  0  0  0  0  0  0  0  0  0  0  0
  -10.9419   -1.7252    0.0000 O   0  0  0  0  0  0  0  0  0  0  0  0
  -11.5691   -2.7482    0.0000 C   0  0  0  0  0  0  0  0  0  0  0  0
   -7.7928    6.0048    0.0000 N   0  0  0  0  0  0  0  0  0  0  0  0
   -8.8312    5.4034    0.0000 O   0  0  0  0  0  0  0  0  0  0  0  0
   -7.7948    7.2048    0.0000 O   0  0  0  0  0  0  0  0  0  0  0  0
  1  2  2  0
  2  3  1  0
  3  4  2  0
  4  5  1  0
  5  6  2  0
  6  1  1  0
  7  8  2  0
  8  9  1  0
  9 10  1  0
 10 11  2  0
 11  7  1  0
  5  7  1  0
 12 13  2  0
 13 14  1  0
 14 15  2  0
 15 16  1  0
 16 17  2  0
 17 12  1  0
  9 12  1  0
  4 18  1  0
 18 19  1  0
 19 20  1  0
 19 21  2  0
 20 22  2  0
 22 23  1  0
 23 24  2  0
 24 25  1  0
 25 26  2  0
 26 20  1  0
 15 27  1  0
 27 28  1  0
 29 30  2  0
 29 31  1  0
 24 29  1  0
M  CHG  2  29   1  31  -1
M  END
>  <Classification>  (374) 
1

>  <pchembl>  (374) 
6.93

>  <InChI_steorem>  (374) 
InChI=1S/C21H16N6O4/c1-31-17-12-10-15(11-13-17)26-24-20(23-25-26)18-4-2-3-5-19(18)22-21(28)14-6-8-16(9-7-14)27(29)30/h2-13H,1H3,(H,22,28)

>  <source>  (374) 
ChEMBL25

>  <source_id>  (374) 
25

>  <optional_reference>  (374) 
10.1021/acs.jmedchem.5b00188

>  <optional_origin>  (374) 
None

>  <target>  (374) 
BCRP

$$$$

     RDKit          2D

 31 34  0  0  0  0  0  0  0  0999 V2000
    1.2990   -0.7500    0.0000 C   0  0  0  0  0  0  0  0  0  0  0  0
    1.2990    0.7500    0.0000 C   0  0  0  0  0  0  0  0  0  0  0  0
    0.0000    1.5000    0.0000 C   0  0  0  0  0  0  0  0  0  0  0  0
   -1.2990    0.7500    0.0000 C   0  0  0  0  0  0  0  0  0  0  0  0
   -1.2990   -0.7500    0.0000 C   0  0  0  0  0  0  0  0  0  0  0  0
    0.0000   -1.5000    0.0000 C   0  0  0  0  0  0  0  0  0  0  0  0
   -2.5987   -1.5004    0.0000 C   0  0  0  0  0  0  0  0  0  0  0  0
   -3.9511   -0.8815    0.0000 N   0  0  0  0  0  0  0  0  0  0  0  0
   -4.9530   -1.9978    0.0000 N   0  0  0  0  0  0  0  0  0  0  0  0
   -4.2010   -3.2957    0.0000 N   0  0  0  0  0  0  0  0  0  0  0  0
   -2.7343   -2.9815    0.0000 N   0  0  0  0  0  0  0  0  0  0  0  0
   -6.4458   -1.8433    0.0000 C   0  0  0  0  0  0  0  0  0  0  0  0
   -7.1563   -0.5279    0.0000 C   0  0  0  0  0  0  0  0  0  0  0  0
   -8.6557   -0.4862    0.0000 C   0  0  0  0  0  0  0  0  0  0  0  0
   -9.4415   -1.7638    0.0000 C   0  0  0  0  0  0  0  0  0  0  0  0
   -8.7279   -3.0832    0.0000 C   0  0  0  0  0  0  0  0  0  0  0  0
   -7.2285   -3.1250    0.0000 C   0  0  0  0  0  0  0  0  0  0  0  0
   -2.5973    1.5031    0.0000 N   0  0  0  0  0  0  0  0  0  0  0  0
   -2.5951    3.0039    0.0000 C   0  0  0  0  0  0  0  0  0  0  0  0
   -3.8933    3.7570    0.0000 C   0  0  0  0  0  0  0  0  0  0  0  0
   -1.5549    3.6021    0.0000 O   0  0  0  0  0  0  0  0  0  0  0  0
   -3.8934    5.2570    0.0000 C   0  0  0  0  0  0  0  0  0  0  0  0
   -5.1924    6.0070    0.0000 C   0  0  0  0  0  0  0  0  0  0  0  0
   -6.4915    5.2571    0.0000 C   0  0  0  0  0  0  0  0  0  0  0  0
   -6.4915    3.7571    0.0000 C   0  0  0  0  0  0  0  0  0  0  0  0
   -5.1925    3.0070    0.0000 C   0  0  0  0  0  0  0  0  0  0  0  0
   -7.7928    6.0048    0.0000 N   0  0  0  0  0  0  0  0  0  0  0  0
   -8.8312    5.4034    0.0000 O   0  0  0  0  0  0  0  0  0  0  0  0
   -7.7948    7.2048    0.0000 O   0  0  0  0  0  0  0  0  0  0  0  0
   -9.5116   -4.3632    0.0000 O   0  0  0  0  0  0  0  0  0  0  0  0
   -8.9392   -5.4179    0.0000 C   0  0  0  0  0  0  0  0  0  0  0  0
  1  2  2  0
  2  3  1  0
  3  4  2  0
  4  5  1  0
  5  6  2  0
  6  1  1  0
  7  8  2  0
  8  9  1  0
  9 10  1  0
 10 11  2  0
 11  7  1  0
  5  7  1  0
 12 13  2  0
 13 14  1  0
 14 15  2  0
 15 16  1  0
 16 17  2  0
 17 12  1  0
  9 12  1  0
  4 18  1  0
 18 19  1  0
 19 20  1  0
 19 21  2  0
 20 22  2  0
 22 23  1  0
 23 24  2  0
 24 25  1  0
 25 26  2  0
 26 20  1  0
 27 28  2  0
 27 29  1  0
 24 27  1  0
 16 30  1  0
 30 31  1  0
M  CHG  2  27   1  29  -1
M  END
>  <Classification>  (375) 
1

>  <pchembl>  (375) 
7.1

>  <InChI_steorem>  (375) 
InChI=1S/C21H16N6O4/c1-31-17-6-4-5-16(13-17)26-24-20(23-25-26)18-7-2-3-8-19(18)22-21(28)14-9-11-15(12-10-14)27(29)30/h2-13H,1H3,(H,22,28)

>  <source>  (375) 
ChEMBL25

>  <source_id>  (375) 
25

>  <optional_reference>  (375) 
10.1021/acs.jmedchem.5b00188

>  <optional_origin>  (375) 
None

>  <target>  (375) 
BCRP

$$$$

     RDKit          2D

 31 34  0  0  0  0  0  0  0  0999 V2000
    1.2990   -0.7500    0.0000 C   0  0  0  0  0  0  0  0  0  0  0  0
    1.2990    0.7500    0.0000 C   0  0  0  0  0  0  0  0  0  0  0  0
    0.0000    1.5000    0.0000 C   0  0  0  0  0  0  0  0  0  0  0  0
   -1.2990    0.7500    0.0000 C   0  0  0  0  0  0  0  0  0  0  0  0
   -1.2990   -0.7500    0.0000 C   0  0  0  0  0  0  0  0  0  0  0  0
    0.0000   -1.5000    0.0000 C   0  0  0  0  0  0  0  0  0  0  0  0
   -2.5987   -1.5004    0.0000 C   0  0  0  0  0  0  0  0  0  0  0  0
   -3.9511   -0.8815    0.0000 N   0  0  0  0  0  0  0  0  0  0  0  0
   -4.9530   -1.9978    0.0000 N   0  0  0  0  0  0  0  0  0  0  0  0
   -4.2010   -3.2957    0.0000 N   0  0  0  0  0  0  0  0  0  0  0  0
   -2.7343   -2.9815    0.0000 N   0  0  0  0  0  0  0  0  0  0  0  0
   -6.4458   -1.8433    0.0000 C   0  0  0  0  0  0  0  0  0  0  0  0
   -7.2285   -3.1250    0.0000 C   0  0  0  0  0  0  0  0  0  0  0  0
   -8.7279   -3.0832    0.0000 C   0  0  0  0  0  0  0  0  0  0  0  0
   -9.4415   -1.7638    0.0000 C   0  0  0  0  0  0  0  0  0  0  0  0
   -8.6557   -0.4862    0.0000 C   0  0  0  0  0  0  0  0  0  0  0  0
   -7.1563   -0.5279    0.0000 C   0  0  0  0  0  0  0  0  0  0  0  0
   -2.5973    1.5031    0.0000 N   0  0  0  0  0  0  0  0  0  0  0  0
   -2.5951    3.0039    0.0000 C   0  0  0  0  0  0  0  0  0  0  0  0
   -3.8933    3.7570    0.0000 C   0  0  0  0  0  0  0  0  0  0  0  0
   -1.5549    3.6021    0.0000 O   0  0  0  0  0  0  0  0  0  0  0  0
   -3.8934    5.2570    0.0000 C   0  0  0  0  0  0  0  0  0  0  0  0
   -5.1924    6.0070    0.0000 C   0  0  0  0  0  0  0  0  0  0  0  0
   -6.4915    5.2571    0.0000 C   0  0  0  0  0  0  0  0  0  0  0  0
   -6.4915    3.7571    0.0000 C   0  0  0  0  0  0  0  0  0  0  0  0
   -5.1925    3.0070    0.0000 C   0  0  0  0  0  0  0  0  0  0  0  0
   -7.7928    6.0048    0.0000 N   0  0  0  0  0  0  0  0  0  0  0  0
   -8.8312    5.4034    0.0000 O   0  0  0  0  0  0  0  0  0  0  0  0
   -7.7948    7.2048    0.0000 O   0  0  0  0  0  0  0  0  0  0  0  0
   -6.3711    0.7512    0.0000 O   0  0  0  0  0  0  0  0  0  0  0  0
   -6.9422    1.8066    0.0000 C   0  0  0  0  0  0  0  0  0  0  0  0
  1  2  2  0
  2  3  1  0
  3  4  2  0
  4  5  1  0
  5  6  2  0
  6  1  1  0
  7  8  2  0
  8  9  1  0
  9 10  1  0
 10 11  2  0
 11  7  1  0
  5  7  1  0
 12 13  2  0
 13 14  1  0
 14 15  2  0
 15 16  1  0
 16 17  2  0
 17 12  1  0
  9 12  1  0
  4 18  1  0
 18 19  1  0
 19 20  1  0
 19 21  2  0
 20 22  2  0
 22 23  1  0
 23 24  2  0
 24 25  1  0
 25 26  2  0
 26 20  1  0
 27 28  2  0
 27 29  1  0
 24 27  1  0
 17 30  1  0
 30 31  1  0
M  CHG  2  27   1  29  -1
M  END
>  <Classification>  (376) 
1

>  <pchembl>  (376) 
6.58

>  <InChI_steorem>  (376) 
InChI=1S/C21H16N6O4/c1-31-19-9-5-4-8-18(19)26-24-20(23-25-26)16-6-2-3-7-17(16)22-21(28)14-10-12-15(13-11-14)27(29)30/h2-13H,1H3,(H,22,28)

>  <source>  (376) 
ChEMBL25

>  <source_id>  (376) 
25

>  <optional_reference>  (376) 
10.1021/acs.jmedchem.5b00188

>  <optional_origin>  (376) 
None

>  <target>  (376) 
BCRP

$$$$

     RDKit          2D

 31 34  0  0  0  0  0  0  0  0999 V2000
   -6.4915    5.2571    0.0000 C   0  0  0  0  0  0  0  0  0  0  0  0
    1.2990   -0.7500    0.0000 C   0  0  0  0  0  0  0  0  0  0  0  0
    1.2990    0.7500    0.0000 C   0  0  0  0  0  0  0  0  0  0  0  0
    0.0000    1.5000    0.0000 C   0  0  0  0  0  0  0  0  0  0  0  0
   -1.2990    0.7500    0.0000 C   0  0  0  0  0  0  0  0  0  0  0  0
   -1.2990   -0.7500    0.0000 C   0  0  0  0  0  0  0  0  0  0  0  0
    0.0000   -1.5000    0.0000 C   0  0  0  0  0  0  0  0  0  0  0  0
   -2.5987   -1.5004    0.0000 C   0  0  0  0  0  0  0  0  0  0  0  0
   -3.9511   -0.8815    0.0000 N   0  0  0  0  0  0  0  0  0  0  0  0
   -4.9530   -1.9978    0.0000 N   0  0  0  0  0  0  0  0  0  0  0  0
   -4.2010   -3.2957    0.0000 N   0  0  0  0  0  0  0  0  0  0  0  0
   -2.7343   -2.9815    0.0000 N   0  0  0  0  0  0  0  0  0  0  0  0
   -6.4458   -1.8433    0.0000 C   0  0  0  0  0  0  0  0  0  0  0  0
   -7.1563   -0.5279    0.0000 C   0  0  0  0  0  0  0  0  0  0  0  0
   -8.6557   -0.4862    0.0000 C   0  0  0  0  0  0  0  0  0  0  0  0
   -9.4415   -1.7638    0.0000 C   0  0  0  0  0  0  0  0  0  0  0  0
   -8.7279   -3.0832    0.0000 C   0  0  0  0  0  0  0  0  0  0  0  0
   -7.2285   -3.1250    0.0000 C   0  0  0  0  0  0  0  0  0  0  0  0
   -2.5973    1.5031    0.0000 N   0  0  0  0  0  0  0  0  0  0  0  0
   -2.5951    3.0039    0.0000 C   0  0  0  0  0  0  0  0  0  0  0  0
   -3.8933    3.7570    0.0000 C   0  0  0  0  0  0  0  0  0  0  0  0
   -1.5549    3.6021    0.0000 O   0  0  0  0  0  0  0  0  0  0  0  0
   -3.8934    5.2570    0.0000 C   0  0  0  0  0  0  0  0  0  0  0  0
   -5.1924    6.0070    0.0000 C   0  0  0  0  0  0  0  0  0  0  0  0
   -6.4915    3.7571    0.0000 C   0  0  0  0  0  0  0  0  0  0  0  0
   -5.1925    3.0070    0.0000 C   0  0  0  0  0  0  0  0  0  0  0  0
   -7.7928    6.0048    0.0000 C   0  0  0  0  0  0  0  0  0  0  0  0
   -9.0915    5.2526    0.0000 C   0  0  0  0  0  0  0  0  0  0  0  0
  -10.1319    5.8505    0.0000 C   0  0  0  0  0  0  0  0  0  0  0  0
  -10.9419   -1.7252    0.0000 O   0  0  0  0  0  0  0  0  0  0  0  0
  -11.5691   -2.7482    0.0000 C   0  0  0  0  0  0  0  0  0  0  0  0
  2  3  2  0
  3  4  1  0
  4  5  2  0
  5  6  1  0
  6  7  2  0
  7  2  1  0
  8  9  2  0
  9 10  1  0
 10 11  1  0
 11 12  2  0
 12  8  1  0
  6  8  1  0
 13 14  2  0
 14 15  1  0
 15 16  2  0
 16 17  1  0
 17 18  2  0
 18 13  1  0
 10 13  1  0
  5 19  1  0
 19 20  1  0
 20 21  1  0
 20 22  2  0
 21 23  2  0
 23 24  1  0
 24  1  2  0
  1 25  1  0
 25 26  2  0
 26 21  1  0
  1 27  1  0
 27 28  1  0
 28 29  1  0
 16 30  1  0
 30 31  1  0
M  END
>  <Classification>  (377) 
1

>  <pchembl>  (377) 
7.1

>  <InChI_steorem>  (377) 
InChI=1S/C24H23N5O2/c1-3-6-17-9-11-18(12-10-17)24(30)25-22-8-5-4-7-21(22)23-26-28-29(27-23)19-13-15-20(31-2)16-14-19/h4-5,7-16H,3,6H2,1-2H3,(H,25,30)

>  <source>  (377) 
ChEMBL25

>  <source_id>  (377) 
25

>  <optional_reference>  (377) 
10.1021/acs.jmedchem.5b00188

>  <optional_origin>  (377) 
None

>  <target>  (377) 
BCRP

$$$$

     RDKit          2D

 31 34  0  0  0  0  0  0  0  0999 V2000
   -6.4915    5.2571    0.0000 C   0  0  0  0  0  0  0  0  0  0  0  0
    1.2990   -0.7500    0.0000 C   0  0  0  0  0  0  0  0  0  0  0  0
    1.2990    0.7500    0.0000 C   0  0  0  0  0  0  0  0  0  0  0  0
    0.0000    1.5000    0.0000 C   0  0  0  0  0  0  0  0  0  0  0  0
   -1.2990    0.7500    0.0000 C   0  0  0  0  0  0  0  0  0  0  0  0
   -1.2990   -0.7500    0.0000 C   0  0  0  0  0  0  0  0  0  0  0  0
    0.0000   -1.5000    0.0000 C   0  0  0  0  0  0  0  0  0  0  0  0
   -2.5987   -1.5004    0.0000 C   0  0  0  0  0  0  0  0  0  0  0  0
   -3.9511   -0.8815    0.0000 N   0  0  0  0  0  0  0  0  0  0  0  0
   -4.9530   -1.9978    0.0000 N   0  0  0  0  0  0  0  0  0  0  0  0
   -4.2010   -3.2957    0.0000 N   0  0  0  0  0  0  0  0  0  0  0  0
   -2.7343   -2.9815    0.0000 N   0  0  0  0  0  0  0  0  0  0  0  0
   -6.4458   -1.8433    0.0000 C   0  0  0  0  0  0  0  0  0  0  0  0
   -7.1563   -0.5279    0.0000 C   0  0  0  0  0  0  0  0  0  0  0  0
   -8.6557   -0.4862    0.0000 C   0  0  0  0  0  0  0  0  0  0  0  0
   -9.4415   -1.7638    0.0000 C   0  0  0  0  0  0  0  0  0  0  0  0
   -8.7279   -3.0832    0.0000 C   0  0  0  0  0  0  0  0  0  0  0  0
   -7.2285   -3.1250    0.0000 C   0  0  0  0  0  0  0  0  0  0  0  0
   -2.5973    1.5031    0.0000 N   0  0  0  0  0  0  0  0  0  0  0  0
   -2.5951    3.0039    0.0000 C   0  0  0  0  0  0  0  0  0  0  0  0
   -3.8933    3.7570    0.0000 C   0  0  0  0  0  0  0  0  0  0  0  0
   -1.5549    3.6021    0.0000 O   0  0  0  0  0  0  0  0  0  0  0  0
   -3.8934    5.2570    0.0000 C   0  0  0  0  0  0  0  0  0  0  0  0
   -5.1924    6.0070    0.0000 C   0  0  0  0  0  0  0  0  0  0  0  0
   -6.4915    3.7571    0.0000 C   0  0  0  0  0  0  0  0  0  0  0  0
   -5.1925    3.0070    0.0000 C   0  0  0  0  0  0  0  0  0  0  0  0
   -7.7928    6.0048    0.0000 O   0  0  0  0  0  0  0  0  0  0  0  0
   -8.8312    5.4034    0.0000 C   0  0  0  0  0  0  0  0  0  0  0  0
  -10.9419   -1.7252    0.0000 C   0  0  0  0  0  0  0  0  0  0  0  0
  -11.7263   -3.0047    0.0000 C   0  0  0  0  0  0  0  0  0  0  0  0
  -12.9259   -2.9738    0.0000 C   0  0  0  0  0  0  0  0  0  0  0  0
  2  3  2  0
  3  4  1  0
  4  5  2  0
  5  6  1  0
  6  7  2  0
  7  2  1  0
  8  9  2  0
  9 10  1  0
 10 11  1  0
 11 12  2  0
 12  8  1  0
  6  8  1  0
 13 14  2  0
 14 15  1  0
 15 16  2  0
 16 17  1  0
 17 18  2  0
 18 13  1  0
 10 13  1  0
  5 19  1  0
 19 20  1  0
 20 21  1  0
 20 22  2  0
 21 23  2  0
 23 24  1  0
 24  1  2  0
  1 25  1  0
 25 26  2  0
 26 21  1  0
  1 27  1  0
 27 28  1  0
 16 29  1  0
 29 30  1  0
 30 31  1  0
M  END
>  <Classification>  (378) 
1

>  <pchembl>  (378) 
7.19

>  <InChI_steorem>  (378) 
InChI=1S/C24H23N5O2/c1-3-6-17-9-13-19(14-10-17)29-27-23(26-28-29)21-7-4-5-8-22(21)25-24(30)18-11-15-20(31-2)16-12-18/h4-5,7-16H,3,6H2,1-2H3,(H,25,30)

>  <source>  (378) 
ChEMBL25

>  <source_id>  (378) 
25

>  <optional_reference>  (378) 
10.1021/acs.jmedchem.5b00188

>  <optional_origin>  (378) 
None

>  <target>  (378) 
BCRP

$$$$

     RDKit          2D

 31 34  0  0  0  0  0  0  0  0999 V2000
   -6.4915    5.2571    0.0000 C   0  0  0  0  0  0  0  0  0  0  0  0
   -7.7912    6.0075    0.0000 C   0  0  0  0  0  0  0  0  0  0  0  0
   -7.7920    7.2075    0.0000 F   0  0  0  0  0  0  0  0  0  0  0  0
   -8.8303    5.4072    0.0000 F   0  0  0  0  0  0  0  0  0  0  0  0
   -8.8307    6.6070    0.0000 F   0  0  0  0  0  0  0  0  0  0  0  0
    1.2990   -0.7500    0.0000 C   0  0  0  0  0  0  0  0  0  0  0  0
    1.2990    0.7500    0.0000 C   0  0  0  0  0  0  0  0  0  0  0  0
    0.0000    1.5000    0.0000 C   0  0  0  0  0  0  0  0  0  0  0  0
   -1.2990    0.7500    0.0000 C   0  0  0  0  0  0  0  0  0  0  0  0
   -1.2990   -0.7500    0.0000 C   0  0  0  0  0  0  0  0  0  0  0  0
    0.0000   -1.5000    0.0000 C   0  0  0  0  0  0  0  0  0  0  0  0
   -2.5987   -1.5004    0.0000 C   0  0  0  0  0  0  0  0  0  0  0  0
   -3.9511   -0.8815    0.0000 N   0  0  0  0  0  0  0  0  0  0  0  0
   -4.9530   -1.9978    0.0000 N   0  0  0  0  0  0  0  0  0  0  0  0
   -4.2010   -3.2957    0.0000 N   0  0  0  0  0  0  0  0  0  0  0  0
   -2.7343   -2.9815    0.0000 N   0  0  0  0  0  0  0  0  0  0  0  0
   -6.4458   -1.8433    0.0000 C   0  0  0  0  0  0  0  0  0  0  0  0
   -7.1563   -0.5279    0.0000 C   0  0  0  0  0  0  0  0  0  0  0  0
   -8.6557   -0.4862    0.0000 C   0  0  0  0  0  0  0  0  0  0  0  0
   -9.4415   -1.7638    0.0000 C   0  0  0  0  0  0  0  0  0  0  0  0
   -8.7279   -3.0832    0.0000 C   0  0  0  0  0  0  0  0  0  0  0  0
   -7.2285   -3.1250    0.0000 C   0  0  0  0  0  0  0  0  0  0  0  0
   -2.5973    1.5031    0.0000 N   0  0  0  0  0  0  0  0  0  0  0  0
   -2.5951    3.0039    0.0000 C   0  0  0  0  0  0  0  0  0  0  0  0
   -3.8933    3.7570    0.0000 C   0  0  0  0  0  0  0  0  0  0  0  0
   -1.5549    3.6021    0.0000 O   0  0  0  0  0  0  0  0  0  0  0  0
   -3.8934    5.2570    0.0000 C   0  0  0  0  0  0  0  0  0  0  0  0
   -5.1924    6.0070    0.0000 C   0  0  0  0  0  0  0  0  0  0  0  0
   -6.4915    3.7571    0.0000 C   0  0  0  0  0  0  0  0  0  0  0  0
   -5.1925    3.0070    0.0000 C   0  0  0  0  0  0  0  0  0  0  0  0
  -10.6411   -1.7305    0.0000 C   0  0  0  0  0  0  0  0  0  0  0  0
  1  2  1  0
  2  3  1  0
  2  4  1  0
  2  5  1  0
  6  7  2  0
  7  8  1  0
  8  9  2  0
  9 10  1  0
 10 11  2  0
 11  6  1  0
 12 13  2  0
 13 14  1  0
 14 15  1  0
 15 16  2  0
 16 12  1  0
 10 12  1  0
 17 18  2  0
 18 19  1  0
 19 20  2  0
 20 21  1  0
 21 22  2  0
 22 17  1  0
 14 17  1  0
  9 23  1  0
 23 24  1  0
 24 25  1  0
 24 26  2  0
 25 27  2  0
 27 28  1  0
 28  1  2  0
  1 29  1  0
 29 30  2  0
 30 25  1  0
 20 31  1  0
M  END
>  <Classification>  (379) 
1

>  <pchembl>  (379) 
6.86

>  <InChI_steorem>  (379) 
InChI=1S/C22H16F3N5O/c1-14-6-12-17(13-7-14)30-28-20(27-29-30)18-4-2-3-5-19(18)26-21(31)15-8-10-16(11-9-15)22(23,24)25/h2-13H,1H3,(H,26,31)

>  <source>  (379) 
ChEMBL25

>  <source_id>  (379) 
25

>  <optional_reference>  (379) 
10.1021/acs.jmedchem.5b00188

>  <optional_origin>  (379) 
None

>  <target>  (379) 
BCRP

$$$$

     RDKit          2D

 32 35  0  0  0  0  0  0  0  0999 V2000
    1.2990   -0.7500    0.0000 C   0  0  0  0  0  0  0  0  0  0  0  0
    1.2990    0.7500    0.0000 C   0  0  0  0  0  0  0  0  0  0  0  0
    0.0000    1.5000    0.0000 C   0  0  0  0  0  0  0  0  0  0  0  0
   -1.2990    0.7500    0.0000 C   0  0  0  0  0  0  0  0  0  0  0  0
   -1.2990   -0.7500    0.0000 C   0  0  0  0  0  0  0  0  0  0  0  0
    0.0000   -1.5000    0.0000 C   0  0  0  0  0  0  0  0  0  0  0  0
   -2.5987   -1.5004    0.0000 C   0  0  0  0  0  0  0  0  0  0  0  0
   -3.9511   -0.8815    0.0000 N   0  0  0  0  0  0  0  0  0  0  0  0
   -4.9530   -1.9978    0.0000 N   0  0  0  0  0  0  0  0  0  0  0  0
   -4.2010   -3.2957    0.0000 N   0  0  0  0  0  0  0  0  0  0  0  0
   -2.7343   -2.9815    0.0000 N   0  0  0  0  0  0  0  0  0  0  0  0
   -6.4458   -1.8433    0.0000 C   0  0  0  0  0  0  0  0  0  0  0  0
   -7.1563   -0.5279    0.0000 C   0  0  0  0  0  0  0  0  0  0  0  0
   -8.6557   -0.4862    0.0000 C   0  0  0  0  0  0  0  0  0  0  0  0
   -9.4415   -1.7638    0.0000 C   0  0  0  0  0  0  0  0  0  0  0  0
   -8.7279   -3.0832    0.0000 C   0  0  0  0  0  0  0  0  0  0  0  0
   -7.2285   -3.1250    0.0000 C   0  0  0  0  0  0  0  0  0  0  0  0
   -2.5973    1.5031    0.0000 N   0  0  0  0  0  0  0  0  0  0  0  0
   -2.5951    3.0039    0.0000 C   0  0  0  0  0  0  0  0  0  0  0  0
   -3.8933    3.7570    0.0000 C   0  0  0  0  0  0  0  0  0  0  0  0
   -1.5549    3.6021    0.0000 O   0  0  0  0  0  0  0  0  0  0  0  0
   -3.8934    5.2570    0.0000 C   0  0  0  0  0  0  0  0  0  0  0  0
   -5.1924    6.0070    0.0000 C   0  0  0  0  0  0  0  0  0  0  0  0
   -6.4915    3.7571    0.0000 C   0  0  0  0  0  0  0  0  0  0  0  0
   -5.1925    3.0070    0.0000 C   0  0  0  0  0  0  0  0  0  0  0  0
   -9.5116   -4.3632    0.0000 O   0  0  0  0  0  0  0  0  0  0  0  0
   -8.9392   -5.4179    0.0000 C   0  0  0  0  0  0  0  0  0  0  0  0
   -6.4915    5.2571    0.0000 C   0  0  0  0  0  0  0  0  0  0  0  0
   -7.7912    6.0075    0.0000 C   0  0  0  0  0  0  0  0  0  0  0  0
   -7.7920    7.2075    0.0000 F   0  0  0  0  0  0  0  0  0  0  0  0
   -8.8303    5.4072    0.0000 F   0  0  0  0  0  0  0  0  0  0  0  0
   -8.8307    6.6070    0.0000 F   0  0  0  0  0  0  0  0  0  0  0  0
  1  2  2  0
  2  3  1  0
  3  4  2  0
  4  5  1  0
  5  6  2  0
  6  1  1  0
  7  8  2  0
  8  9  1  0
  9 10  1  0
 10 11  2  0
 11  7  1  0
  5  7  1  0
 12 13  2  0
 13 14  1  0
 14 15  2  0
 15 16  1  0
 16 17  2  0
 17 12  1  0
  9 12  1  0
  4 18  1  0
 18 19  1  0
 19 20  1  0
 19 21  2  0
 20 22  2  0
 22 23  1  0
 23 28  2  0
 28 24  1  0
 24 25  2  0
 25 20  1  0
 16 26  1  0
 26 27  1  0
 28 29  1  0
 29 30  1  0
 29 31  1  0
 29 32  1  0
M  END
>  <Classification>  (380) 
0

>  <pchembl>  (380) 
4.95

>  <InChI_steorem>  (380) 
InChI=1S/C22H16F3N5O2/c1-32-17-6-4-5-16(13-17)30-28-20(27-29-30)18-7-2-3-8-19(18)26-21(31)14-9-11-15(12-10-14)22(23,24)25/h2-13H,1H3,(H,26,31)

>  <source>  (380) 
ChEMBL25

>  <source_id>  (380) 
25

>  <optional_reference>  (380) 
10.1021/acs.jmedchem.5b00188

>  <optional_origin>  (380) 
None

>  <target>  (380) 
BCRP

$$$$

     RDKit          2D

 32 35  0  0  0  0  0  0  0  0999 V2000
    1.2990   -0.7500    0.0000 C   0  0  0  0  0  0  0  0  0  0  0  0
    1.2990    0.7500    0.0000 C   0  0  0  0  0  0  0  0  0  0  0  0
    0.0000    1.5000    0.0000 C   0  0  0  0  0  0  0  0  0  0  0  0
   -1.2990    0.7500    0.0000 C   0  0  0  0  0  0  0  0  0  0  0  0
   -1.2990   -0.7500    0.0000 C   0  0  0  0  0  0  0  0  0  0  0  0
    0.0000   -1.5000    0.0000 C   0  0  0  0  0  0  0  0  0  0  0  0
   -2.5987   -1.5004    0.0000 C   0  0  0  0  0  0  0  0  0  0  0  0
   -3.9511   -0.8815    0.0000 N   0  0  0  0  0  0  0  0  0  0  0  0
   -4.9530   -1.9978    0.0000 N   0  0  0  0  0  0  0  0  0  0  0  0
   -4.2010   -3.2957    0.0000 N   0  0  0  0  0  0  0  0  0  0  0  0
   -2.7343   -2.9815    0.0000 N   0  0  0  0  0  0  0  0  0  0  0  0
   -6.4458   -1.8433    0.0000 C   0  0  0  0  0  0  0  0  0  0  0  0
   -7.1563   -0.5279    0.0000 C   0  0  0  0  0  0  0  0  0  0  0  0
   -8.6557   -0.4862    0.0000 C   0  0  0  0  0  0  0  0  0  0  0  0
   -9.4415   -1.7638    0.0000 C   0  0  0  0  0  0  0  0  0  0  0  0
   -8.7279   -3.0832    0.0000 C   0  0  0  0  0  0  0  0  0  0  0  0
   -7.2285   -3.1250    0.0000 C   0  0  0  0  0  0  0  0  0  0  0  0
   -2.5973    1.5031    0.0000 N   0  0  0  0  0  0  0  0  0  0  0  0
   -2.5951    3.0039    0.0000 C   0  0  0  0  0  0  0  0  0  0  0  0
   -3.8933    3.7570    0.0000 C   0  0  0  0  0  0  0  0  0  0  0  0
   -1.5549    3.6021    0.0000 O   0  0  0  0  0  0  0  0  0  0  0  0
   -3.8934    5.2570    0.0000 C   0  0  0  0  0  0  0  0  0  0  0  0
   -5.1924    6.0070    0.0000 C   0  0  0  0  0  0  0  0  0  0  0  0
   -6.4915    5.2571    0.0000 C   0  0  0  0  0  0  0  0  0  0  0  0
   -6.4915    3.7571    0.0000 C   0  0  0  0  0  0  0  0  0  0  0  0
   -5.1925    3.0070    0.0000 C   0  0  0  0  0  0  0  0  0  0  0  0
  -10.9419   -1.7252    0.0000 C   0  0  0  0  0  0  0  0  0  0  0  0
  -11.7263   -3.0047    0.0000 C   0  0  0  0  0  0  0  0  0  0  0  0
  -12.9259   -2.9738    0.0000 C   0  0  0  0  0  0  0  0  0  0  0  0
   -7.7928    6.0048    0.0000 N   0  0  0  0  0  0  0  0  0  0  0  0
   -8.8312    5.4034    0.0000 O   0  0  0  0  0  0  0  0  0  0  0  0
   -7.7948    7.2048    0.0000 O   0  0  0  0  0  0  0  0  0  0  0  0
  1  2  2  0
  2  3  1  0
  3  4  2  0
  4  5  1  0
  5  6  2  0
  6  1  1  0
  7  8  2  0
  8  9  1  0
  9 10  1  0
 10 11  2  0
 11  7  1  0
  5  7  1  0
 12 13  2  0
 13 14  1  0
 14 15  2  0
 15 16  1  0
 16 17  2  0
 17 12  1  0
  9 12  1  0
  4 18  1  0
 18 19  1  0
 19 20  1  0
 19 21  2  0
 20 22  2  0
 22 23  1  0
 23 24  2  0
 24 25  1  0
 25 26  2  0
 26 20  1  0
 15 27  1  0
 27 28  1  0
 28 29  1  0
 30 31  2  0
 30 32  1  0
 24 30  1  0
M  CHG  2  30   1  32  -1
M  END
>  <Classification>  (381) 
1

>  <pchembl>  (381) 
6.74

>  <InChI_steorem>  (381) 
InChI=1S/C23H20N6O3/c1-2-5-16-8-12-18(13-9-16)28-26-22(25-27-28)20-6-3-4-7-21(20)24-23(30)17-10-14-19(15-11-17)29(31)32/h3-4,6-15H,2,5H2,1H3,(H,24,30)

>  <source>  (381) 
ChEMBL25

>  <source_id>  (381) 
25

>  <optional_reference>  (381) 
10.1021/acs.jmedchem.5b00188

>  <optional_origin>  (381) 
None

>  <target>  (381) 
BCRP

$$$$

     RDKit          2D

 32 35  0  0  0  0  0  0  0  0999 V2000
   -6.4915    5.2571    0.0000 C   0  0  0  0  0  0  0  0  0  0  0  0
    1.2990   -0.7500    0.0000 C   0  0  0  0  0  0  0  0  0  0  0  0
    1.2990    0.7500    0.0000 C   0  0  0  0  0  0  0  0  0  0  0  0
    0.0000    1.5000    0.0000 C   0  0  0  0  0  0  0  0  0  0  0  0
   -1.2990    0.7500    0.0000 C   0  0  0  0  0  0  0  0  0  0  0  0
   -1.2990   -0.7500    0.0000 C   0  0  0  0  0  0  0  0  0  0  0  0
    0.0000   -1.5000    0.0000 C   0  0  0  0  0  0  0  0  0  0  0  0
   -2.5987   -1.5004    0.0000 C   0  0  0  0  0  0  0  0  0  0  0  0
   -3.9511   -0.8815    0.0000 N   0  0  0  0  0  0  0  0  0  0  0  0
   -4.9530   -1.9978    0.0000 N   0  0  0  0  0  0  0  0  0  0  0  0
   -4.2010   -3.2957    0.0000 N   0  0  0  0  0  0  0  0  0  0  0  0
   -2.7343   -2.9815    0.0000 N   0  0  0  0  0  0  0  0  0  0  0  0
   -6.4458   -1.8433    0.0000 C   0  0  0  0  0  0  0  0  0  0  0  0
   -7.1563   -0.5279    0.0000 C   0  0  0  0  0  0  0  0  0  0  0  0
   -8.6557   -0.4862    0.0000 C   0  0  0  0  0  0  0  0  0  0  0  0
   -9.4415   -1.7638    0.0000 C   0  0  0  0  0  0  0  0  0  0  0  0
   -8.7279   -3.0832    0.0000 C   0  0  0  0  0  0  0  0  0  0  0  0
   -7.2285   -3.1250    0.0000 C   0  0  0  0  0  0  0  0  0  0  0  0
   -2.5973    1.5031    0.0000 N   0  0  0  0  0  0  0  0  0  0  0  0
   -2.5951    3.0039    0.0000 C   0  0  0  0  0  0  0  0  0  0  0  0
   -3.8933    3.7570    0.0000 C   0  0  0  0  0  0  0  0  0  0  0  0
   -1.5549    3.6021    0.0000 O   0  0  0  0  0  0  0  0  0  0  0  0
   -3.8934    5.2570    0.0000 C   0  0  0  0  0  0  0  0  0  0  0  0
   -5.1924    6.0070    0.0000 C   0  0  0  0  0  0  0  0  0  0  0  0
   -6.4915    3.7571    0.0000 C   0  0  0  0  0  0  0  0  0  0  0  0
   -5.1925    3.0070    0.0000 C   0  0  0  0  0  0  0  0  0  0  0  0
  -10.9419   -1.7252    0.0000 O   0  0  0  0  0  0  0  0  0  0  0  0
  -11.5691   -2.7482    0.0000 C   0  0  0  0  0  0  0  0  0  0  0  0
   -7.7897    3.0040    0.0000 O   0  0  0  0  0  0  0  0  0  0  0  0
   -7.7881    1.8040    0.0000 C   0  0  0  0  0  0  0  0  0  0  0  0
   -7.7897    6.0102    0.0000 O   0  0  0  0  0  0  0  0  0  0  0  0
   -7.7879    7.2102    0.0000 C   0  0  0  0  0  0  0  0  0  0  0  0
  2  3  2  0
  3  4  1  0
  4  5  2  0
  5  6  1  0
  6  7  2  0
  7  2  1  0
  8  9  2  0
  9 10  1  0
 10 11  1  0
 11 12  2  0
 12  8  1  0
  6  8  1  0
 13 14  2  0
 14 15  1  0
 15 16  2  0
 16 17  1  0
 17 18  2  0
 18 13  1  0
 10 13  1  0
  5 19  1  0
 19 20  1  0
 20 21  1  0
 20 22  2  0
 21 23  2  0
 23 24  1  0
 24  1  2  0
  1 25  1  0
 25 26  2  0
 26 21  1  0
 16 27  1  0
 27 28  1  0
 25 29  1  0
 29 30  1  0
  1 31  1  0
 31 32  1  0
M  END
>  <Classification>  (382) 
1

>  <pchembl>  (382) 
6.93

>  <InChI_steorem>  (382) 
InChI=1S/C23H21N5O4/c1-30-17-11-9-16(10-12-17)28-26-22(25-27-28)18-6-4-5-7-19(18)24-23(29)15-8-13-20(31-2)21(14-15)32-3/h4-14H,1-3H3,(H,24,29)

>  <source>  (382) 
ChEMBL25

>  <source_id>  (382) 
25

>  <optional_reference>  (382) 
10.1021/acs.jmedchem.5b00188

>  <optional_origin>  (382) 
None

>  <target>  (382) 
BCRP

$$$$

     RDKit          2D

 32 35  0  0  0  0  0  0  0  0999 V2000
   -6.4915    5.2571    0.0000 C   0  0  0  0  0  0  0  0  0  0  0  0
    1.2990   -0.7500    0.0000 C   0  0  0  0  0  0  0  0  0  0  0  0
    1.2990    0.7500    0.0000 C   0  0  0  0  0  0  0  0  0  0  0  0
    0.0000    1.5000    0.0000 C   0  0  0  0  0  0  0  0  0  0  0  0
   -1.2990    0.7500    0.0000 C   0  0  0  0  0  0  0  0  0  0  0  0
   -1.2990   -0.7500    0.0000 C   0  0  0  0  0  0  0  0  0  0  0  0
    0.0000   -1.5000    0.0000 C   0  0  0  0  0  0  0  0  0  0  0  0
   -2.5987   -1.5004    0.0000 C   0  0  0  0  0  0  0  0  0  0  0  0
   -3.9511   -0.8815    0.0000 N   0  0  0  0  0  0  0  0  0  0  0  0
   -4.9530   -1.9978    0.0000 N   0  0  0  0  0  0  0  0  0  0  0  0
   -4.2010   -3.2957    0.0000 N   0  0  0  0  0  0  0  0  0  0  0  0
   -2.7343   -2.9815    0.0000 N   0  0  0  0  0  0  0  0  0  0  0  0
   -6.4458   -1.8433    0.0000 C   0  0  0  0  0  0  0  0  0  0  0  0
   -7.1563   -0.5279    0.0000 C   0  0  0  0  0  0  0  0  0  0  0  0
   -8.6557   -0.4862    0.0000 C   0  0  0  0  0  0  0  0  0  0  0  0
   -9.4415   -1.7638    0.0000 C   0  0  0  0  0  0  0  0  0  0  0  0
   -8.7279   -3.0832    0.0000 C   0  0  0  0  0  0  0  0  0  0  0  0
   -7.2285   -3.1250    0.0000 C   0  0  0  0  0  0  0  0  0  0  0  0
   -2.5973    1.5031    0.0000 N   0  0  0  0  0  0  0  0  0  0  0  0
   -2.5951    3.0039    0.0000 C   0  0  0  0  0  0  0  0  0  0  0  0
   -3.8933    3.7570    0.0000 C   0  0  0  0  0  0  0  0  0  0  0  0
   -1.5549    3.6021    0.0000 O   0  0  0  0  0  0  0  0  0  0  0  0
   -3.8934    5.2570    0.0000 C   0  0  0  0  0  0  0  0  0  0  0  0
   -5.1924    6.0070    0.0000 C   0  0  0  0  0  0  0  0  0  0  0  0
   -6.4915    3.7571    0.0000 C   0  0  0  0  0  0  0  0  0  0  0  0
   -5.1925    3.0070    0.0000 C   0  0  0  0  0  0  0  0  0  0  0  0
   -7.7928    6.0048    0.0000 O   0  0  0  0  0  0  0  0  0  0  0  0
   -8.8312    5.4034    0.0000 C   0  0  0  0  0  0  0  0  0  0  0  0
  -10.9418   -1.7221    0.0000 C   0  0  0  0  0  0  0  0  0  0  0  0
  -11.5133   -0.6670    0.0000 F   0  0  0  0  0  0  0  0  0  0  0  0
  -11.5701   -2.7445    0.0000 F   0  0  0  0  0  0  0  0  0  0  0  0
  -12.1413   -1.6893    0.0000 F   0  0  0  0  0  0  0  0  0  0  0  0
  2  3  2  0
  3  4  1  0
  4  5  2  0
  5  6  1  0
  6  7  2  0
  7  2  1  0
  8  9  2  0
  9 10  1  0
 10 11  1  0
 11 12  2  0
 12  8  1  0
  6  8  1  0
 13 14  2  0
 14 15  1  0
 15 16  2  0
 16 17  1  0
 17 18  2  0
 18 13  1  0
 10 13  1  0
  5 19  1  0
 19 20  1  0
 20 21  1  0
 20 22  2  0
 21 23  2  0
 23 24  1  0
 24  1  2  0
  1 25  1  0
 25 26  2  0
 26 21  1  0
  1 27  1  0
 27 28  1  0
 16 29  1  0
 29 30  1  0
 29 31  1  0
 29 32  1  0
M  END
>  <Classification>  (383) 
1

>  <pchembl>  (383) 
7.14

>  <InChI_steorem>  (383) 
InChI=1S/C22H16F3N5O2/c1-32-17-12-6-14(7-13-17)21(31)26-19-5-3-2-4-18(19)20-27-29-30(28-20)16-10-8-15(9-11-16)22(23,24)25/h2-13H,1H3,(H,26,31)

>  <source>  (383) 
ChEMBL25

>  <source_id>  (383) 
25

>  <optional_reference>  (383) 
10.1021/acs.jmedchem.5b00188

>  <optional_origin>  (383) 
None

>  <target>  (383) 
BCRP

$$$$

     RDKit          2D

 32 35  0  0  0  0  0  0  0  0999 V2000
   -6.4915    5.2571    0.0000 C   0  0  0  0  0  0  0  0  0  0  0  0
   -7.7912    6.0075    0.0000 C   0  0  0  0  0  0  0  0  0  0  0  0
   -7.7920    7.2075    0.0000 F   0  0  0  0  0  0  0  0  0  0  0  0
   -8.8303    5.4072    0.0000 F   0  0  0  0  0  0  0  0  0  0  0  0
   -8.8307    6.6070    0.0000 F   0  0  0  0  0  0  0  0  0  0  0  0
    1.2990   -0.7500    0.0000 C   0  0  0  0  0  0  0  0  0  0  0  0
    1.2990    0.7500    0.0000 C   0  0  0  0  0  0  0  0  0  0  0  0
    0.0000    1.5000    0.0000 C   0  0  0  0  0  0  0  0  0  0  0  0
   -1.2990    0.7500    0.0000 C   0  0  0  0  0  0  0  0  0  0  0  0
   -1.2990   -0.7500    0.0000 C   0  0  0  0  0  0  0  0  0  0  0  0
    0.0000   -1.5000    0.0000 C   0  0  0  0  0  0  0  0  0  0  0  0
   -2.5987   -1.5004    0.0000 C   0  0  0  0  0  0  0  0  0  0  0  0
   -3.9511   -0.8815    0.0000 N   0  0  0  0  0  0  0  0  0  0  0  0
   -4.9530   -1.9978    0.0000 N   0  0  0  0  0  0  0  0  0  0  0  0
   -4.2010   -3.2957    0.0000 N   0  0  0  0  0  0  0  0  0  0  0  0
   -2.7343   -2.9815    0.0000 N   0  0  0  0  0  0  0  0  0  0  0  0
   -6.4458   -1.8433    0.0000 C   0  0  0  0  0  0  0  0  0  0  0  0
   -7.1563   -0.5279    0.0000 C   0  0  0  0  0  0  0  0  0  0  0  0
   -8.6557   -0.4862    0.0000 C   0  0  0  0  0  0  0  0  0  0  0  0
   -9.4415   -1.7638    0.0000 C   0  0  0  0  0  0  0  0  0  0  0  0
   -8.7279   -3.0832    0.0000 C   0  0  0  0  0  0  0  0  0  0  0  0
   -7.2285   -3.1250    0.0000 C   0  0  0  0  0  0  0  0  0  0  0  0
   -2.5973    1.5031    0.0000 N   0  0  0  0  0  0  0  0  0  0  0  0
   -2.5951    3.0039    0.0000 C   0  0  0  0  0  0  0  0  0  0  0  0
   -3.8933    3.7570    0.0000 C   0  0  0  0  0  0  0  0  0  0  0  0
   -1.5549    3.6021    0.0000 O   0  0  0  0  0  0  0  0  0  0  0  0
   -3.8934    5.2570    0.0000 C   0  0  0  0  0  0  0  0  0  0  0  0
   -5.1924    6.0070    0.0000 C   0  0  0  0  0  0  0  0  0  0  0  0
   -6.4915    3.7571    0.0000 C   0  0  0  0  0  0  0  0  0  0  0  0
   -5.1925    3.0070    0.0000 C   0  0  0  0  0  0  0  0  0  0  0  0
  -10.9419   -1.7252    0.0000 O   0  0  0  0  0  0  0  0  0  0  0  0
  -11.5691   -2.7482    0.0000 C   0  0  0  0  0  0  0  0  0  0  0  0
  1  2  1  0
  2  3  1  0
  2  4  1  0
  2  5  1  0
  6  7  2  0
  7  8  1  0
  8  9  2  0
  9 10  1  0
 10 11  2  0
 11  6  1  0
 12 13  2  0
 13 14  1  0
 14 15  1  0
 15 16  2  0
 16 12  1  0
 10 12  1  0
 17 18  2  0
 18 19  1  0
 19 20  2  0
 20 21  1  0
 21 22  2  0
 22 17  1  0
 14 17  1  0
  9 23  1  0
 23 24  1  0
 24 25  1  0
 24 26  2  0
 25 27  2  0
 27 28  1  0
 28  1  2  0
  1 29  1  0
 29 30  2  0
 30 25  1  0
 20 31  1  0
 31 32  1  0
M  END
>  <Classification>  (384) 
1

>  <pchembl>  (384) 
6.97

>  <InChI_steorem>  (384) 
InChI=1S/C22H16F3N5O2/c1-32-17-12-10-16(11-13-17)30-28-20(27-29-30)18-4-2-3-5-19(18)26-21(31)14-6-8-15(9-7-14)22(23,24)25/h2-13H,1H3,(H,26,31)

>  <source>  (384) 
ChEMBL25

>  <source_id>  (384) 
25

>  <optional_reference>  (384) 
10.1021/acs.jmedchem.5b00188

>  <optional_origin>  (384) 
None

>  <target>  (384) 
BCRP

$$$$

     RDKit          2D

 32 35  0  0  0  0  0  0  0  0999 V2000
   -6.4915    5.2571    0.0000 C   0  0  0  0  0  0  0  0  0  0  0  0
   -7.7912    6.0075    0.0000 C   0  0  0  0  0  0  0  0  0  0  0  0
   -7.7920    7.2075    0.0000 F   0  0  0  0  0  0  0  0  0  0  0  0
   -8.8303    5.4072    0.0000 F   0  0  0  0  0  0  0  0  0  0  0  0
   -8.8307    6.6070    0.0000 F   0  0  0  0  0  0  0  0  0  0  0  0
    1.2990   -0.7500    0.0000 C   0  0  0  0  0  0  0  0  0  0  0  0
    1.2990    0.7500    0.0000 C   0  0  0  0  0  0  0  0  0  0  0  0
    0.0000    1.5000    0.0000 C   0  0  0  0  0  0  0  0  0  0  0  0
   -1.2990    0.7500    0.0000 C   0  0  0  0  0  0  0  0  0  0  0  0
   -1.2990   -0.7500    0.0000 C   0  0  0  0  0  0  0  0  0  0  0  0
    0.0000   -1.5000    0.0000 C   0  0  0  0  0  0  0  0  0  0  0  0
   -2.5987   -1.5004    0.0000 C   0  0  0  0  0  0  0  0  0  0  0  0
   -3.9511   -0.8815    0.0000 N   0  0  0  0  0  0  0  0  0  0  0  0
   -4.9530   -1.9978    0.0000 N   0  0  0  0  0  0  0  0  0  0  0  0
   -4.2010   -3.2957    0.0000 N   0  0  0  0  0  0  0  0  0  0  0  0
   -2.7343   -2.9815    0.0000 N   0  0  0  0  0  0  0  0  0  0  0  0
   -6.4458   -1.8433    0.0000 C   0  0  0  0  0  0  0  0  0  0  0  0
   -7.2285   -3.1250    0.0000 C   0  0  0  0  0  0  0  0  0  0  0  0
   -8.7279   -3.0832    0.0000 C   0  0  0  0  0  0  0  0  0  0  0  0
   -9.4415   -1.7638    0.0000 C   0  0  0  0  0  0  0  0  0  0  0  0
   -8.6557   -0.4862    0.0000 C   0  0  0  0  0  0  0  0  0  0  0  0
   -7.1563   -0.5279    0.0000 C   0  0  0  0  0  0  0  0  0  0  0  0
   -2.5973    1.5031    0.0000 N   0  0  0  0  0  0  0  0  0  0  0  0
   -2.5951    3.0039    0.0000 C   0  0  0  0  0  0  0  0  0  0  0  0
   -3.8933    3.7570    0.0000 C   0  0  0  0  0  0  0  0  0  0  0  0
   -1.5549    3.6021    0.0000 O   0  0  0  0  0  0  0  0  0  0  0  0
   -3.8934    5.2570    0.0000 C   0  0  0  0  0  0  0  0  0  0  0  0
   -5.1924    6.0070    0.0000 C   0  0  0  0  0  0  0  0  0  0  0  0
   -6.4915    3.7571    0.0000 C   0  0  0  0  0  0  0  0  0  0  0  0
   -5.1925    3.0070    0.0000 C   0  0  0  0  0  0  0  0  0  0  0  0
   -6.3711    0.7512    0.0000 O   0  0  0  0  0  0  0  0  0  0  0  0
   -6.9422    1.8066    0.0000 C   0  0  0  0  0  0  0  0  0  0  0  0
  1  2  1  0
  2  3  1  0
  2  4  1  0
  2  5  1  0
  6  7  2  0
  7  8  1  0
  8  9  2  0
  9 10  1  0
 10 11  2  0
 11  6  1  0
 12 13  2  0
 13 14  1  0
 14 15  1  0
 15 16  2  0
 16 12  1  0
 10 12  1  0
 17 18  2  0
 18 19  1  0
 19 20  2  0
 20 21  1  0
 21 22  2  0
 22 17  1  0
 14 17  1  0
  9 23  1  0
 23 24  1  0
 24 25  1  0
 24 26  2  0
 25 27  2  0
 27 28  1  0
 28  1  2  0
  1 29  1  0
 29 30  2  0
 30 25  1  0
 22 31  1  0
 31 32  1  0
M  END
>  <Classification>  (385) 
1

>  <pchembl>  (385) 
6.35

>  <InChI_steorem>  (385) 
InChI=1S/C22H16F3N5O2/c1-32-19-9-5-4-8-18(19)30-28-20(27-29-30)16-6-2-3-7-17(16)26-21(31)14-10-12-15(13-11-14)22(23,24)25/h2-13H,1H3,(H,26,31)

>  <source>  (385) 
ChEMBL25

>  <source_id>  (385) 
25

>  <optional_reference>  (385) 
10.1021/acs.jmedchem.5b00188

>  <optional_origin>  (385) 
None

>  <target>  (385) 
BCRP

$$$$

     RDKit          2D

 33 36  0  0  0  0  0  0  0  0999 V2000
   -6.4915    5.2571    0.0000 C   0  0  0  0  0  0  0  0  0  0  0  0
    1.2990   -0.7500    0.0000 C   0  0  0  0  0  0  0  0  0  0  0  0
    1.2990    0.7500    0.0000 C   0  0  0  0  0  0  0  0  0  0  0  0
    0.0000    1.5000    0.0000 C   0  0  0  0  0  0  0  0  0  0  0  0
   -1.2990    0.7500    0.0000 C   0  0  0  0  0  0  0  0  0  0  0  0
   -1.2990   -0.7500    0.0000 C   0  0  0  0  0  0  0  0  0  0  0  0
    0.0000   -1.5000    0.0000 C   0  0  0  0  0  0  0  0  0  0  0  0
   -2.5987   -1.5004    0.0000 C   0  0  0  0  0  0  0  0  0  0  0  0
   -3.9511   -0.8815    0.0000 N   0  0  0  0  0  0  0  0  0  0  0  0
   -4.9530   -1.9978    0.0000 N   0  0  0  0  0  0  0  0  0  0  0  0
   -4.2010   -3.2957    0.0000 N   0  0  0  0  0  0  0  0  0  0  0  0
   -2.7343   -2.9815    0.0000 N   0  0  0  0  0  0  0  0  0  0  0  0
   -6.4458   -1.8433    0.0000 C   0  0  0  0  0  0  0  0  0  0  0  0
   -7.1563   -0.5279    0.0000 C   0  0  0  0  0  0  0  0  0  0  0  0
   -8.6557   -0.4862    0.0000 C   0  0  0  0  0  0  0  0  0  0  0  0
   -9.4415   -1.7638    0.0000 C   0  0  0  0  0  0  0  0  0  0  0  0
   -8.7279   -3.0832    0.0000 C   0  0  0  0  0  0  0  0  0  0  0  0
   -7.2285   -3.1250    0.0000 C   0  0  0  0  0  0  0  0  0  0  0  0
   -2.5973    1.5031    0.0000 N   0  0  0  0  0  0  0  0  0  0  0  0
   -2.5951    3.0039    0.0000 C   0  0  0  0  0  0  0  0  0  0  0  0
   -3.8933    3.7570    0.0000 C   0  0  0  0  0  0  0  0  0  0  0  0
   -1.5549    3.6021    0.0000 O   0  0  0  0  0  0  0  0  0  0  0  0
   -3.8934    5.2570    0.0000 C   0  0  0  0  0  0  0  0  0  0  0  0
   -5.1924    6.0070    0.0000 C   0  0  0  0  0  0  0  0  0  0  0  0
   -6.4915    3.7571    0.0000 C   0  0  0  0  0  0  0  0  0  0  0  0
   -5.1925    3.0070    0.0000 C   0  0  0  0  0  0  0  0  0  0  0  0
  -10.9419   -1.7252    0.0000 O   0  0  0  0  0  0  0  0  0  0  0  0
  -11.7263   -3.0047    0.0000 C   0  0  0  0  0  0  0  0  0  0  0  0
  -12.9259   -2.9738    0.0000 C   0  0  0  0  0  0  0  0  0  0  0  0
   -7.7897    3.0040    0.0000 O   0  0  0  0  0  0  0  0  0  0  0  0
   -7.7881    1.8040    0.0000 C   0  0  0  0  0  0  0  0  0  0  0  0
   -7.7897    6.0102    0.0000 O   0  0  0  0  0  0  0  0  0  0  0  0
   -7.7879    7.2102    0.0000 C   0  0  0  0  0  0  0  0  0  0  0  0
  2  3  2  0
  3  4  1  0
  4  5  2  0
  5  6  1  0
  6  7  2  0
  7  2  1  0
  8  9  2  0
  9 10  1  0
 10 11  1  0
 11 12  2  0
 12  8  1  0
  6  8  1  0
 13 14  2  0
 14 15  1  0
 15 16  2  0
 16 17  1  0
 17 18  2  0
 18 13  1  0
 10 13  1  0
  5 19  1  0
 19 20  1  0
 20 21  1  0
 20 22  2  0
 21 23  2  0
 23 24  1  0
 24  1  2  0
  1 25  1  0
 25 26  2  0
 26 21  1  0
 16 27  1  0
 27 28  1  0
 28 29  1  0
 25 30  1  0
 30 31  1  0
  1 32  1  0
 32 33  1  0
M  END
>  <Classification>  (386) 
1

>  <pchembl>  (386) 
6.7

>  <InChI_steorem>  (386) 
InChI=1S/C24H23N5O4/c1-4-33-18-12-10-17(11-13-18)29-27-23(26-28-29)19-7-5-6-8-20(19)25-24(30)16-9-14-21(31-2)22(15-16)32-3/h5-15H,4H2,1-3H3,(H,25,30)

>  <source>  (386) 
ChEMBL25

>  <source_id>  (386) 
25

>  <optional_reference>  (386) 
10.1021/acs.jmedchem.5b00188

>  <optional_origin>  (386) 
None

>  <target>  (386) 
BCRP

$$$$

     RDKit          2D

 34 37  0  0  0  0  0  0  0  0999 V2000
   -6.4915    5.2571    0.0000 C   0  0  0  0  0  0  0  0  0  0  0  0
    1.2990   -0.7500    0.0000 C   0  0  0  0  0  0  0  0  0  0  0  0
    1.2990    0.7500    0.0000 C   0  0  0  0  0  0  0  0  0  0  0  0
    0.0000    1.5000    0.0000 C   0  0  0  0  0  0  0  0  0  0  0  0
   -1.2990    0.7500    0.0000 C   0  0  0  0  0  0  0  0  0  0  0  0
   -1.2990   -0.7500    0.0000 C   0  0  0  0  0  0  0  0  0  0  0  0
    0.0000   -1.5000    0.0000 C   0  0  0  0  0  0  0  0  0  0  0  0
   -2.5987   -1.5004    0.0000 C   0  0  0  0  0  0  0  0  0  0  0  0
   -3.9511   -0.8815    0.0000 N   0  0  0  0  0  0  0  0  0  0  0  0
   -4.9530   -1.9978    0.0000 N   0  0  0  0  0  0  0  0  0  0  0  0
   -4.2010   -3.2957    0.0000 N   0  0  0  0  0  0  0  0  0  0  0  0
   -2.7343   -2.9815    0.0000 N   0  0  0  0  0  0  0  0  0  0  0  0
   -6.4458   -1.8433    0.0000 C   0  0  0  0  0  0  0  0  0  0  0  0
   -7.1563   -0.5279    0.0000 C   0  0  0  0  0  0  0  0  0  0  0  0
   -8.6557   -0.4862    0.0000 C   0  0  0  0  0  0  0  0  0  0  0  0
   -9.4415   -1.7638    0.0000 C   0  0  0  0  0  0  0  0  0  0  0  0
   -8.7279   -3.0832    0.0000 C   0  0  0  0  0  0  0  0  0  0  0  0
   -7.2285   -3.1250    0.0000 C   0  0  0  0  0  0  0  0  0  0  0  0
   -2.5973    1.5031    0.0000 N   0  0  0  0  0  0  0  0  0  0  0  0
   -2.5951    3.0039    0.0000 C   0  0  0  0  0  0  0  0  0  0  0  0
   -3.8933    3.7570    0.0000 C   0  0  0  0  0  0  0  0  0  0  0  0
   -1.5549    3.6021    0.0000 O   0  0  0  0  0  0  0  0  0  0  0  0
   -3.8934    5.2570    0.0000 C   0  0  0  0  0  0  0  0  0  0  0  0
   -5.1924    6.0070    0.0000 C   0  0  0  0  0  0  0  0  0  0  0  0
   -6.4915    3.7571    0.0000 C   0  0  0  0  0  0  0  0  0  0  0  0
   -5.1925    3.0070    0.0000 C   0  0  0  0  0  0  0  0  0  0  0  0
  -10.9418   -1.7221    0.0000 C   0  0  0  0  0  0  0  0  0  0  0  0
  -11.5133   -0.6670    0.0000 F   0  0  0  0  0  0  0  0  0  0  0  0
  -11.5701   -2.7445    0.0000 F   0  0  0  0  0  0  0  0  0  0  0  0
  -12.1413   -1.6893    0.0000 F   0  0  0  0  0  0  0  0  0  0  0  0
   -7.7897    3.0040    0.0000 O   0  0  0  0  0  0  0  0  0  0  0  0
   -7.7881    1.8040    0.0000 C   0  0  0  0  0  0  0  0  0  0  0  0
   -7.7897    6.0102    0.0000 O   0  0  0  0  0  0  0  0  0  0  0  0
   -7.7879    7.2102    0.0000 C   0  0  0  0  0  0  0  0  0  0  0  0
  2  3  2  0
  3  4  1  0
  4  5  2  0
  5  6  1  0
  6  7  2  0
  7  2  1  0
  8  9  2  0
  9 10  1  0
 10 11  1  0
 11 12  2  0
 12  8  1  0
  6  8  1  0
 13 14  2  0
 14 15  1  0
 15 16  2  0
 16 17  1  0
 17 18  2  0
 18 13  1  0
 10 13  1  0
  5 19  1  0
 19 20  1  0
 20 21  1  0
 20 22  2  0
 21 23  2  0
 23 24  1  0
 24  1  2  0
  1 25  1  0
 25 26  2  0
 26 21  1  0
 16 27  1  0
 27 28  1  0
 27 29  1  0
 27 30  1  0
 25 31  1  0
 31 32  1  0
  1 33  1  0
 33 34  1  0
M  END
>  <Classification>  (387) 
1

>  <pchembl>  (387) 
6.57

>  <InChI_steorem>  (387) 
InChI=1S/C23H18F3N5O3/c1-33-19-12-7-14(13-20(19)34-2)22(32)27-18-6-4-3-5-17(18)21-28-30-31(29-21)16-10-8-15(9-11-16)23(24,25)26/h3-13H,1-2H3,(H,27,32)

>  <source>  (387) 
ChEMBL25

>  <source_id>  (387) 
25

>  <optional_reference>  (387) 
10.1021/acs.jmedchem.5b00188

>  <optional_origin>  (387) 
None

>  <target>  (387) 
BCRP

$$$$

     RDKit          2D

 34 36  0  0  0  0  0  0  0  0999 V2000
   19.2150  -27.1778    0.0000 C   0  0  0  0  0  0  0  0  0  0  0  0
   19.2138  -27.9973    0.0000 C   0  0  0  0  0  0  0  0  0  0  0  0
   19.9219  -28.4063    0.0000 C   0  0  0  0  0  0  0  0  0  0  0  0
   20.6315  -27.9968    0.0000 C   0  0  0  0  0  0  0  0  0  0  0  0
   20.6287  -27.1742    0.0000 C   0  0  0  0  0  0  0  0  0  0  0  0
   19.9201  -26.7689    0.0000 C   0  0  0  0  0  0  0  0  0  0  0  0
   21.3349  -26.7629    0.0000 C   0  0  0  0  0  0  0  0  0  0  0  0
   22.0441  -27.1688    0.0000 C   0  0  0  0  0  0  0  0  0  0  0  0
   21.3318  -25.9457    0.0000 O   0  0  0  0  0  0  0  0  0  0  0  0
   18.5058  -28.4053    0.0000 C   0  0  0  0  0  0  0  0  0  0  0  0
   17.7984  -27.9962    0.0000 C   0  0  0  0  0  0  0  0  0  0  0  0
   18.5051  -29.2225    0.0000 O   0  0  0  0  0  0  0  0  0  0  0  0
   22.7503  -26.7576    0.0000 C   0  0  0  0  0  0  0  0  0  0  0  0
   17.0904  -28.4042    0.0000 C   0  0  0  0  0  0  0  0  0  0  0  0
   23.4595  -27.1635    0.0000 C   0  0  0  0  0  0  0  0  0  0  0  0
   16.3830  -27.9951    0.0000 C   0  0  0  0  0  0  0  0  0  0  0  0
   23.4595  -27.9796    0.0000 C   0  0  0  0  0  0  0  0  0  0  0  0
   24.1679  -28.3854    0.0000 C   0  0  0  0  0  0  0  0  0  0  0  0
   24.8750  -27.9741    0.0000 C   0  0  0  0  0  0  0  0  0  0  0  0
   24.8693  -27.1527    0.0000 C   0  0  0  0  0  0  0  0  0  0  0  0
   24.1603  -26.7505    0.0000 C   0  0  0  0  0  0  0  0  0  0  0  0
   16.3884  -27.1769    0.0000 C   0  0  0  0  0  0  0  0  0  0  0  0
   15.6818  -26.7678    0.0000 C   0  0  0  0  0  0  0  0  0  0  0  0
   14.9728  -27.1759    0.0000 C   0  0  0  0  0  0  0  0  0  0  0  0
   14.9748  -27.9973    0.0000 C   0  0  0  0  0  0  0  0  0  0  0  0
   15.6819  -28.4027    0.0000 C   0  0  0  0  0  0  0  0  0  0  0  0
   17.0977  -26.7711    0.0000 O   0  0  0  0  0  0  0  0  0  0  0  0
   17.1009  -25.9539    0.0000 C   0  0  0  0  0  0  0  0  0  0  0  0
   22.7525  -28.3893    0.0000 O   0  0  0  0  0  0  0  0  0  0  0  0
   22.7538  -29.2065    0.0000 C   0  0  0  0  0  0  0  0  0  0  0  0
   24.1536  -25.9334    0.0000 O   0  0  0  0  0  0  0  0  0  0  0  0
   24.8579  -25.5190    0.0000 C   0  0  0  0  0  0  0  0  0  0  0  0
   15.6844  -29.2199    0.0000 O   0  0  0  0  0  0  0  0  0  0  0  0
   14.9780  -29.6306    0.0000 C   0  0  0  0  0  0  0  0  0  0  0  0
  1  2  2  0
  2  3  1  0
  3  4  2  0
  4  5  1  0
  5  6  2  0
  6  1  1  0
  5  7  1  0
  7  8  1  0
  7  9  2  0
  2 10  1  0
 10 11  1  0
 10 12  2  0
  8 13  2  3
 11 14  2  3
 13 15  1  0
 14 16  1  0
 15 17  2  0
 17 18  1  0
 18 19  2  0
 19 20  1  0
 20 21  2  0
 21 15  1  0
 16 22  2  0
 22 23  1  0
 23 24  2  0
 24 25  1  0
 25 26  2  0
 26 16  1  0
 22 27  1  0
 27 28  1  0
 17 29  1  0
 29 30  1  0
 21 31  1  0
 31 32  1  0
 26 33  1  0
 33 34  1  0
M  END
>  <Classification>  (388) 
1

>  <pchembl>  (388) 
6.72

>  <InChI_steorem>  (388) 
InChI=1S/C28H26O6/c1-31-25-7-5-8-26(32-2)21(25)15-17-23(29)19-11-13-20(14-12-19)24(30)18-16-22-27(33-3)9-6-10-28(22)34-4/h5-18H,1-4H3

>  <source>  (388) 
ChEMBL25

>  <source_id>  (388) 
25

>  <optional_reference>  (388) 
10.1021/jm401879z

>  <optional_origin>  (388) 
None

>  <target>  (388) 
BCRP

$$$$

     RDKit          2D

 34 36  0  0  0  0  0  0  0  0999 V2000
    6.3586  -18.9852    0.0000 C   0  0  0  0  0  0  0  0  0  0  0  0
    6.3575  -19.8048    0.0000 C   0  0  0  0  0  0  0  0  0  0  0  0
    7.0655  -20.2137    0.0000 C   0  0  0  0  0  0  0  0  0  0  0  0
    7.7752  -19.8043    0.0000 C   0  0  0  0  0  0  0  0  0  0  0  0
    7.7724  -18.9816    0.0000 C   0  0  0  0  0  0  0  0  0  0  0  0
    7.0638  -18.5764    0.0000 C   0  0  0  0  0  0  0  0  0  0  0  0
    8.4785  -18.5704    0.0000 C   0  0  0  0  0  0  0  0  0  0  0  0
    9.1878  -18.9763    0.0000 C   0  0  0  0  0  0  0  0  0  0  0  0
    5.6495  -20.2128    0.0000 C   0  0  0  0  0  0  0  0  0  0  0  0
    4.9421  -19.8036    0.0000 C   0  0  0  0  0  0  0  0  0  0  0  0
    9.8939  -18.5650    0.0000 C   0  0  0  0  0  0  0  0  0  0  0  0
    4.2340  -20.2117    0.0000 C   0  0  0  0  0  0  0  0  0  0  0  0
   10.6032  -18.9709    0.0000 C   0  0  0  0  0  0  0  0  0  0  0  0
    3.5267  -19.8025    0.0000 C   0  0  0  0  0  0  0  0  0  0  0  0
   10.6032  -19.7870    0.0000 C   0  0  0  0  0  0  0  0  0  0  0  0
   11.3116  -20.1929    0.0000 C   0  0  0  0  0  0  0  0  0  0  0  0
   12.0187  -19.7815    0.0000 C   0  0  0  0  0  0  0  0  0  0  0  0
   12.0130  -18.9601    0.0000 C   0  0  0  0  0  0  0  0  0  0  0  0
   11.3040  -18.5580    0.0000 C   0  0  0  0  0  0  0  0  0  0  0  0
    3.5321  -18.9843    0.0000 C   0  0  0  0  0  0  0  0  0  0  0  0
    2.8255  -18.5752    0.0000 C   0  0  0  0  0  0  0  0  0  0  0  0
    2.1165  -18.9833    0.0000 C   0  0  0  0  0  0  0  0  0  0  0  0
    2.1185  -19.8048    0.0000 C   0  0  0  0  0  0  0  0  0  0  0  0
    2.8256  -20.2101    0.0000 C   0  0  0  0  0  0  0  0  0  0  0  0
    9.8909  -17.7478    0.0000 O   0  0  0  0  0  0  0  0  0  0  0  0
    4.2334  -21.0289    0.0000 O   0  0  0  0  0  0  0  0  0  0  0  0
    1.4119  -20.2153    0.0000 O   0  0  0  0  0  0  0  0  0  0  0  0
    0.7031  -19.8086    0.0000 C   0  0  0  0  0  0  0  0  0  0  0  0
   11.3143  -21.0100    0.0000 O   0  0  0  0  0  0  0  0  0  0  0  0
   10.6079  -21.4210    0.0000 C   0  0  0  0  0  0  0  0  0  0  0  0
    2.8266  -17.7581    0.0000 O   0  0  0  0  0  0  0  0  0  0  0  0
    3.5348  -17.3504    0.0000 C   0  0  0  0  0  0  0  0  0  0  0  0
   12.7177  -18.5464    0.0000 O   0  0  0  0  0  0  0  0  0  0  0  0
   13.4284  -18.9498    0.0000 C   0  0  0  0  0  0  0  0  0  0  0  0
  1  2  2  0
  2  3  1  0
  3  4  2  0
  4  5  1  0
  5  6  2  0
  6  1  1  0
  5  7  1  0
  7  8  2  3
  2  9  1  0
  9 10  2  3
  8 11  1  0
 10 12  1  0
 11 13  1  0
 12 14  1  0
 13 15  2  0
 15 16  1  0
 16 17  2  0
 17 18  1  0
 18 19  2  0
 19 13  1  0
 14 20  2  0
 20 21  1  0
 21 22  2  0
 22 23  1  0
 23 24  2  0
 24 14  1  0
 11 25  2  0
 12 26  2  0
 23 27  1  0
 27 28  1  0
 16 29  1  0
 29 30  1  0
 21 31  1  0
 31 32  1  0
 18 33  1  0
 33 34  1  0
M  END
>  <Classification>  (389) 
1

>  <pchembl>  (389) 
6.57

>  <InChI_steorem>  (389) 
InChI=1S/C28H26O6/c1-31-23-13-21(14-24(17-23)32-2)27(29)11-9-19-5-7-20(8-6-19)10-12-28(30)22-15-25(33-3)18-26(16-22)34-4/h5-18H,1-4H3

>  <source>  (389) 
ChEMBL25

>  <source_id>  (389) 
25

>  <optional_reference>  (389) 
10.1021/jm401879z

>  <optional_origin>  (389) 
None

>  <target>  (389) 
BCRP

$$$$

     RDKit          2D

 50 53  0  0  0  0  0  0  0  0999 V2000
    2.1029   -6.3365    0.0000 N   0  0  0  0  0  0  0  0  0  0  0  0
    2.8797   -6.0646    0.0000 N   0  0  0  0  0  0  0  0  0  0  0  0
    3.6566   -5.7876    0.0000 N   0  0  0  0  0  0  0  0  0  0  0  0
    1.6942   -8.0890    0.0000 C   0  0  0  0  0  0  0  0  0  0  0  0
    1.1546   -7.4633    0.0000 C   0  0  0  0  0  0  0  0  0  0  0  0
    0.3311   -7.5301    0.0000 O   0  0  0  0  0  0  0  0  0  0  0  0
    0.0113   -6.7695    0.0000 C   0  0  0  0  0  0  0  0  0  0  0  0
    0.6359   -6.2304    0.0000 C   0  0  0  0  0  0  0  0  0  0  0  0
    1.3415   -6.6579    0.0000 C   0  0  0  0  0  0  0  0  0  0  0  0
   -0.7572   -6.4673    0.0000 N   0  0  0  0  0  0  0  0  0  0  0  0
   -1.2578   -7.1222    0.0000 C   0  0  0  0  0  0  0  0  0  0  0  0
   -2.0726   -7.0186    0.0000 N   0  0  0  0  0  0  0  0  0  0  0  0
   -2.3939   -6.2583    0.0000 C   0  0  0  0  0  0  0  0  0  0  0  0
   -1.8939   -5.6008    0.0000 C   0  0  0  0  0  0  0  0  0  0  0  0
   -1.0727   -5.7036    0.0000 C   0  0  0  0  0  0  0  0  0  0  0  0
   -3.2124   -6.1554    0.0000 O   0  0  0  0  0  0  0  0  0  0  0  0
   -0.9397   -7.8835    0.0000 O   0  0  0  0  0  0  0  0  0  0  0  0
   -2.2137   -4.8403    0.0000 C   0  0  0  0  0  0  0  0  0  0  0  0
    1.6957   -8.9140    0.0000 O   0  0  0  0  0  0  0  0  0  0  0  0
   10.3636  -12.0073    0.0000 N   0  0  0  0  0  0  0  0  0  0  0  0
   10.0766  -12.7786    0.0000 N   0  0  0  0  0  0  0  0  0  0  0  0
    9.7934  -13.5533    0.0000 N   0  0  0  0  0  0  0  0  0  0  0  0
   10.5875  -11.2125    0.0000 C   0  0  0  0  0  0  0  0  0  0  0  0
   11.4125  -11.2125    0.0000 C   0  0  0  0  0  0  0  0  0  0  0  0
   11.6693  -10.4284    0.0000 C   0  0  0  0  0  0  0  0  0  0  0  0
   11.0000   -9.9417    0.0000 O   0  0  0  0  0  0  0  0  0  0  0  0
   10.3350  -10.4284    0.0000 C   0  0  0  0  0  0  0  0  0  0  0  0
   12.4550  -10.1745    0.0000 N   0  0  0  0  0  0  0  0  0  0  0  0
    9.5502  -10.1738    0.0000 C   0  0  0  0  0  0  0  0  0  0  0  0
    9.5523   -9.3488    0.0000 O   0  0  0  0  0  0  0  0  0  0  0  0
   13.1620  -10.6024    0.0000 C   0  0  0  0  0  0  0  0  0  0  0  0
   13.8817  -10.2064    0.0000 N   0  0  0  0  0  0  0  0  0  0  0  0
   13.9009   -9.3813    0.0000 C   0  0  0  0  0  0  0  0  0  0  0  0
   13.1943   -8.9537    0.0000 C   0  0  0  0  0  0  0  0  0  0  0  0
   12.4684   -9.3512    0.0000 C   0  0  0  0  0  0  0  0  0  0  0  0
   13.2121   -8.1289    0.0000 C   0  0  0  0  0  0  0  0  0  0  0  0
   14.6243   -8.9846    0.0000 O   0  0  0  0  0  0  0  0  0  0  0  0
   13.1450  -11.4272    0.0000 O   0  0  0  0  0  0  0  0  0  0  0  0
    8.8391   -8.9340    0.0000 C   0  0  0  0  0  0  0  0  0  0  0  0
    8.8418   -8.1090    0.0000 O   0  0  0  0  0  0  0  0  0  0  0  0
    8.1233   -9.3442    0.0000 C   0  0  0  0  0  0  0  0  0  0  0  0
    7.4102   -8.9294    0.0000 C   0  0  0  0  0  0  0  0  0  0  0  0
    6.6944   -9.3396    0.0000 C   0  0  0  0  0  0  0  0  0  0  0  0
    5.9812   -8.9248    0.0000 C   0  0  0  0  0  0  0  0  0  0  0  0
    5.2654   -9.3350    0.0000 C   0  0  0  0  0  0  0  0  0  0  0  0
    4.5523   -8.9202    0.0000 C   0  0  0  0  0  0  0  0  0  0  0  0
    3.8365   -9.3304    0.0000 C   0  0  0  0  0  0  0  0  0  0  0  0
    3.1234   -8.9156    0.0000 C   0  0  0  0  0  0  0  0  0  0  0  0
    2.4076   -9.3258    0.0000 C   0  0  0  0  0  0  0  0  0  0  0  0
    2.4049  -10.1508    0.0000 O   0  0  0  0  0  0  0  0  0  0  0  0
  2  3  2  0
  1  2  2  0
 14 15  2  0
 13 16  2  0
 11 17  2  0
 14 18  1  0
  9  1  1  0
  4 19  1  0
  5  4  1  0
  5  6  1  0
  6  7  1  0
  7  8  1  0
  8  9  1  0
  9  5  1  0
  7 10  1  0
 10 11  1  0
 10 15  1  0
 11 12  1  0
 12 13  1  0
 13 14  1  0
 20 21  2  0
 43 44  1  0
 23 20  1  0
 44 45  1  0
 24 25  1  0
 45 46  1  0
 25 26  1  0
 46 47  1  0
 26 27  1  0
 47 48  1  0
 28 35  1  0
 48 49  1  0
 31 32  1  0
 49 19  1  0
 32 33  1  0
 49 50  2  0
 33 34  1  0
 34 35  2  0
 27 23  1  0
 34 36  1  0
 23 24  1  0
 33 37  2  0
 25 28  1  0
 31 38  2  0
 30 39  1  0
 27 29  1  0
 39 40  2  0
 21 22  2  0
 39 41  1  0
 29 30  1  0
 41 42  1  0
 28 31  1  0
 42 43  1  0
M  CHG  4   2   1   3  -1  21   1  22  -1
M  END
>  <Classification>  (390) 
0

>  <pchembl>  (390) 
4.55

>  <InChI_steorem>  (390) 
InChI=1S/C30H40N10O10/c1-17-13-39(29(45)33-27(17)43)23-11-19(35-37-31)21(49-23)15-47-25(41)9-7-5-3-4-6-8-10-26(42)48-16-22-20(36-38-32)12-24(50-22)40-14-18(2)28(44)34-30(40)46/h13-14,19-24H,3-12,15-16H2,1-2H3,(H,33,43,45)(H,34,44,46)

>  <source>  (390) 
ChEMBL25

>  <source_id>  (390) 
25

>  <optional_reference>  (390) 
10.1016/j.bmc.2017.07.001

>  <optional_origin>  (390) 
None

>  <target>  (390) 
BCRP

$$$$

     RDKit          2D

 52 55  0  0  0  0  0  0  0  0999 V2000
    2.6378   -8.0840    0.0000 N   0  0  0  0  0  0  0  0  0  0  0  0
    3.4139   -7.8102    0.0000 N   0  0  0  0  0  0  0  0  0  0  0  0
    4.1901   -7.5313    0.0000 N   0  0  0  0  0  0  0  0  0  0  0  0
    2.2305   -9.8355    0.0000 C   0  0  0  0  0  0  0  0  0  0  0  0
    1.6909   -9.2098    0.0000 C   0  0  0  0  0  0  0  0  0  0  0  0
    0.8674   -9.2766    0.0000 O   0  0  0  0  0  0  0  0  0  0  0  0
    0.5476   -8.5160    0.0000 C   0  0  0  0  0  0  0  0  0  0  0  0
    1.1722   -7.9769    0.0000 C   0  0  0  0  0  0  0  0  0  0  0  0
    1.8779   -8.4044    0.0000 C   0  0  0  0  0  0  0  0  0  0  0  0
   -0.2209   -8.2138    0.0000 N   0  0  0  0  0  0  0  0  0  0  0  0
   -0.7214   -8.8687    0.0000 C   0  0  0  0  0  0  0  0  0  0  0  0
   -1.5363   -8.7651    0.0000 N   0  0  0  0  0  0  0  0  0  0  0  0
   -1.8576   -8.0048    0.0000 C   0  0  0  0  0  0  0  0  0  0  0  0
   -1.3576   -7.3473    0.0000 C   0  0  0  0  0  0  0  0  0  0  0  0
   -0.5364   -7.4501    0.0000 C   0  0  0  0  0  0  0  0  0  0  0  0
   -2.6761   -7.9019    0.0000 O   0  0  0  0  0  0  0  0  0  0  0  0
   -0.4034   -9.6300    0.0000 O   0  0  0  0  0  0  0  0  0  0  0  0
   -1.6774   -6.5868    0.0000 C   0  0  0  0  0  0  0  0  0  0  0  0
    2.2321  -10.6605    0.0000 O   0  0  0  0  0  0  0  0  0  0  0  0
   12.3302  -13.7614    0.0000 N   0  0  0  0  0  0  0  0  0  0  0  0
   12.0432  -14.5327    0.0000 N   0  0  0  0  0  0  0  0  0  0  0  0
   11.7601  -15.3074    0.0000 N   0  0  0  0  0  0  0  0  0  0  0  0
   12.5541  -12.9666    0.0000 C   0  0  0  0  0  0  0  0  0  0  0  0
   13.3750  -12.9666    0.0000 C   0  0  0  0  0  0  0  0  0  0  0  0
    3.6611  -10.6651    0.0000 C   0  0  0  0  0  0  0  0  0  0  0  0
    2.9453  -11.0753    0.0000 C   0  0  0  0  0  0  0  0  0  0  0  0
    2.9426  -11.9003    0.0000 O   0  0  0  0  0  0  0  0  0  0  0  0
   13.6359  -12.1825    0.0000 C   0  0  0  0  0  0  0  0  0  0  0  0
   12.9666  -11.6958    0.0000 O   0  0  0  0  0  0  0  0  0  0  0  0
   12.3016  -12.1825    0.0000 C   0  0  0  0  0  0  0  0  0  0  0  0
   14.4216  -11.9286    0.0000 N   0  0  0  0  0  0  0  0  0  0  0  0
   11.5169  -11.9279    0.0000 C   0  0  0  0  0  0  0  0  0  0  0  0
   11.5189  -11.1029    0.0000 O   0  0  0  0  0  0  0  0  0  0  0  0
   15.1286  -12.3565    0.0000 C   0  0  0  0  0  0  0  0  0  0  0  0
   15.8483  -11.9605    0.0000 N   0  0  0  0  0  0  0  0  0  0  0  0
   15.8676  -11.1354    0.0000 C   0  0  0  0  0  0  0  0  0  0  0  0
   15.1609  -10.7078    0.0000 C   0  0  0  0  0  0  0  0  0  0  0  0
   14.4350  -11.1053    0.0000 C   0  0  0  0  0  0  0  0  0  0  0  0
   15.1787   -9.8830    0.0000 C   0  0  0  0  0  0  0  0  0  0  0  0
   16.5909  -10.7387    0.0000 O   0  0  0  0  0  0  0  0  0  0  0  0
   15.1116  -13.1813    0.0000 O   0  0  0  0  0  0  0  0  0  0  0  0
   10.8057  -10.6881    0.0000 C   0  0  0  0  0  0  0  0  0  0  0  0
   10.8084   -9.8631    0.0000 O   0  0  0  0  0  0  0  0  0  0  0  0
   10.0900  -11.0983    0.0000 C   0  0  0  0  0  0  0  0  0  0  0  0
    9.3768  -10.6835    0.0000 C   0  0  0  0  0  0  0  0  0  0  0  0
    8.6610  -11.0937    0.0000 C   0  0  0  0  0  0  0  0  0  0  0  0
    7.9479  -10.6789    0.0000 C   0  0  0  0  0  0  0  0  0  0  0  0
    7.2321  -11.0891    0.0000 C   0  0  0  0  0  0  0  0  0  0  0  0
    6.5189  -10.6743    0.0000 C   0  0  0  0  0  0  0  0  0  0  0  0
    5.8031  -11.0845    0.0000 C   0  0  0  0  0  0  0  0  0  0  0  0
    5.0900  -10.6697    0.0000 C   0  0  0  0  0  0  0  0  0  0  0  0
    4.3742  -11.0799    0.0000 C   0  0  0  0  0  0  0  0  0  0  0  0
  1  2  2  0
  2  3  2  0
 11 17  2  0
 14 18  1  0
  9  1  1  0
  4 19  1  0
  5  4  1  0
  5  6  1  0
  6  7  1  0
  7  8  1  0
  8  9  1  0
  9  5  1  0
  7 10  1  0
 10 11  1  0
 10 15  1  0
 11 12  1  0
 12 13  1  0
 13 14  1  0
 14 15  2  0
 13 16  2  0
 21 22  2  0
 24 28  1  0
 28 29  1  0
 29 30  1  0
 30 23  1  0
 28 31  1  0
 23 20  1  0
 30 32  1  0
 23 24  1  0
 32 33  1  0
 31 34  1  0
 31 38  1  0
 34 35  1  0
 35 36  1  0
 36 37  1  0
 37 38  2  0
 37 39  1  0
 36 40  2  0
 34 41  2  0
 25 26  1  0
 33 42  1  0
 20 21  2  0
 42 43  2  0
 26 19  1  0
 42 44  1  0
 44 45  1  0
 45 46  1  0
 46 47  1  0
 47 48  1  0
 48 49  1  0
 49 50  1  0
 50 51  1  0
 26 27  2  0
 51 52  1  0
 52 25  1  0
M  CHG  4   2   1   3  -1  21   1  22  -1
M  END
>  <Classification>  (391) 
0

>  <pchembl>  (391) 
4.94

>  <InChI_steorem>  (391) 
InChI=1S/C32H44N10O10/c1-19-15-41(31(47)35-29(19)45)25-13-21(37-39-33)23(51-25)17-49-27(43)11-9-7-5-3-4-6-8-10-12-28(44)50-18-24-22(38-40-34)14-26(52-24)42-16-20(2)30(46)36-32(42)48/h15-16,21-26H,3-14,17-18H2,1-2H3,(H,35,45,47)(H,36,46,48)

>  <source>  (391) 
ChEMBL25

>  <source_id>  (391) 
25

>  <optional_reference>  (391) 
10.1016/j.bmc.2017.07.001

>  <optional_origin>  (391) 
None

>  <target>  (391) 
BCRP

$$$$

     RDKit          2D

 54 57  0  0  0  0  0  0  0  0999 V2000
    1.3799   -7.4292    0.0000 N   0  0  0  0  0  0  0  0  0  0  0  0
    2.1066   -7.0439    0.0000 N   0  0  0  0  0  0  0  0  0  0  0  0
    2.8332   -6.6535    0.0000 N   0  0  0  0  0  0  0  0  0  0  0  0
    0.9724   -9.1809    0.0000 C   0  0  0  0  0  0  0  0  0  0  0  0
    0.4329   -8.5553    0.0000 C   0  0  0  0  0  0  0  0  0  0  0  0
   -0.3906   -8.6220    0.0000 O   0  0  0  0  0  0  0  0  0  0  0  0
   -0.7104   -7.8614    0.0000 C   0  0  0  0  0  0  0  0  0  0  0  0
   -0.0859   -7.3223    0.0000 C   0  0  0  0  0  0  0  0  0  0  0  0
    0.6198   -7.7499    0.0000 C   0  0  0  0  0  0  0  0  0  0  0  0
   -1.4790   -7.5593    0.0000 N   0  0  0  0  0  0  0  0  0  0  0  0
   -1.9795   -8.2142    0.0000 C   0  0  0  0  0  0  0  0  0  0  0  0
   -2.7944   -8.1105    0.0000 N   0  0  0  0  0  0  0  0  0  0  0  0
   -3.1156   -7.3502    0.0000 C   0  0  0  0  0  0  0  0  0  0  0  0
   -2.6157   -6.6928    0.0000 C   0  0  0  0  0  0  0  0  0  0  0  0
   -1.7945   -6.7955    0.0000 C   0  0  0  0  0  0  0  0  0  0  0  0
   -3.9341   -7.2473    0.0000 O   0  0  0  0  0  0  0  0  0  0  0  0
   -1.6614   -8.9754    0.0000 O   0  0  0  0  0  0  0  0  0  0  0  0
   -2.9355   -5.9323    0.0000 C   0  0  0  0  0  0  0  0  0  0  0  0
    0.9740  -10.0060    0.0000 O   0  0  0  0  0  0  0  0  0  0  0  0
   12.5010  -13.1115    0.0000 N   0  0  0  0  0  0  0  0  0  0  0  0
   12.2141  -13.8828    0.0000 N   0  0  0  0  0  0  0  0  0  0  0  0
   11.9309  -14.6575    0.0000 N   0  0  0  0  0  0  0  0  0  0  0  0
   12.7250  -12.3167    0.0000 C   0  0  0  0  0  0  0  0  0  0  0  0
   13.5458  -12.3167    0.0000 C   0  0  0  0  0  0  0  0  0  0  0  0
    1.6872  -10.4208    0.0000 C   0  0  0  0  0  0  0  0  0  0  0  0
    1.6845  -11.2458    0.0000 O   0  0  0  0  0  0  0  0  0  0  0  0
   13.8068  -11.5326    0.0000 C   0  0  0  0  0  0  0  0  0  0  0  0
   13.1375  -11.0459    0.0000 O   0  0  0  0  0  0  0  0  0  0  0  0
   12.4724  -11.5326    0.0000 C   0  0  0  0  0  0  0  0  0  0  0  0
   14.5925  -11.2787    0.0000 N   0  0  0  0  0  0  0  0  0  0  0  0
   11.6877  -11.2780    0.0000 C   0  0  0  0  0  0  0  0  0  0  0  0
   11.6897  -10.4530    0.0000 O   0  0  0  0  0  0  0  0  0  0  0  0
   15.2995  -11.7066    0.0000 C   0  0  0  0  0  0  0  0  0  0  0  0
   16.0191  -11.3106    0.0000 N   0  0  0  0  0  0  0  0  0  0  0  0
   16.0384  -10.4855    0.0000 C   0  0  0  0  0  0  0  0  0  0  0  0
   15.3318  -10.0579    0.0000 C   0  0  0  0  0  0  0  0  0  0  0  0
   14.6058  -10.4554    0.0000 C   0  0  0  0  0  0  0  0  0  0  0  0
   15.3496   -9.2331    0.0000 C   0  0  0  0  0  0  0  0  0  0  0  0
   16.7618  -10.0888    0.0000 O   0  0  0  0  0  0  0  0  0  0  0  0
   15.2825  -12.5314    0.0000 O   0  0  0  0  0  0  0  0  0  0  0  0
   10.9766  -10.0382    0.0000 C   0  0  0  0  0  0  0  0  0  0  0  0
   10.9792   -9.2132    0.0000 O   0  0  0  0  0  0  0  0  0  0  0  0
   10.2608  -10.4484    0.0000 C   0  0  0  0  0  0  0  0  0  0  0  0
    9.5476  -10.0336    0.0000 C   0  0  0  0  0  0  0  0  0  0  0  0
    8.8319  -10.4438    0.0000 C   0  0  0  0  0  0  0  0  0  0  0  0
    8.1187  -10.0290    0.0000 C   0  0  0  0  0  0  0  0  0  0  0  0
    7.4029  -10.4392    0.0000 C   0  0  0  0  0  0  0  0  0  0  0  0
    6.6898  -10.0244    0.0000 C   0  0  0  0  0  0  0  0  0  0  0  0
    5.9740  -10.4346    0.0000 C   0  0  0  0  0  0  0  0  0  0  0  0
    5.2608  -10.0198    0.0000 C   0  0  0  0  0  0  0  0  0  0  0  0
    4.5450  -10.4300    0.0000 C   0  0  0  0  0  0  0  0  0  0  0  0
    3.8319  -10.0152    0.0000 C   0  0  0  0  0  0  0  0  0  0  0  0
    3.1161  -10.4254    0.0000 C   0  0  0  0  0  0  0  0  0  0  0  0
    2.4030  -10.0106    0.0000 C   0  0  0  0  0  0  0  0  0  0  0  0
 14 15  2  0
 13 16  2  0
 11 17  2  0
 14 18  1  0
  9  1  1  0
  4 19  1  0
  1  2  2  0
  2  3  2  0
  5  4  1  0
  5  6  1  0
  6  7  1  0
  7  8  1  0
  8  9  1  0
  9  5  1  0
  7 10  1  0
 10 11  1  0
 10 15  1  0
 11 12  1  0
 12 13  1  0
 13 14  1  0
 23 24  1  0
 24 27  1  0
 27 28  1  0
 28 29  1  0
 29 23  1  0
 27 30  1  0
 29 31  1  0
 31 32  1  0
 30 33  1  0
 30 37  1  0
 33 34  1  0
 34 35  1  0
 35 36  1  0
 36 37  2  0
 21 22  2  0
 36 38  1  0
 25 19  1  0
 35 39  2  0
 20 21  2  0
 33 40  2  0
 25 26  2  0
 32 41  1  0
 41 42  2  0
 41 43  1  0
 43 44  1  0
 44 45  1  0
 45 46  1  0
 46 47  1  0
 47 48  1  0
 48 49  1  0
 23 20  1  0
 49 50  1  0
 50 51  1  0
 51 52  1  0
 52 53  1  0
 53 54  1  0
 54 25  1  0
M  CHG  4   2   1   3  -1  21   1  22  -1
M  END
>  <Classification>  (392) 
0

>  <pchembl>  (392) 
4.88

>  <InChI_steorem>  (392) 
InChI=1S/C34H48N10O10/c1-21-17-43(33(49)37-31(21)47)27-15-23(39-41-35)25(53-27)19-51-29(45)13-11-9-7-5-3-4-6-8-10-12-14-30(46)52-20-26-24(40-42-36)16-28(54-26)44-18-22(2)32(48)38-34(44)50/h17-18,23-28H,3-16,19-20H2,1-2H3,(H,37,47,49)(H,38,48,50)

>  <source>  (392) 
ChEMBL25

>  <source_id>  (392) 
25

>  <optional_reference>  (392) 
10.1016/j.bmc.2017.07.001

>  <optional_origin>  (392) 
None

>  <target>  (392) 
BCRP

$$$$

     RDKit          2D

 32 35  0  0  0  0  0  0  0  0999 V2000
    9.8578   -9.6475    0.0000 C   0  0  0  0  0  0  0  0  0  0  0  0
   10.5628   -9.2389    0.0000 C   0  0  0  0  0  0  0  0  0  0  0  0
   11.2719   -9.6475    0.0000 C   0  0  0  0  0  0  0  0  0  0  0  0
   11.9810   -9.2389    0.0000 C   0  0  0  0  0  0  0  0  0  0  0  0
   11.9810   -8.4217    0.0000 C   0  0  0  0  0  0  0  0  0  0  0  0
   11.2719   -8.0131    0.0000 C   0  0  0  0  0  0  0  0  0  0  0  0
   10.5628   -8.4217    0.0000 C   0  0  0  0  0  0  0  0  0  0  0  0
    9.1488   -9.2389    0.0000 O   0  0  0  0  0  0  0  0  0  0  0  0
    9.8578  -10.4647    0.0000 N   0  0  0  0  0  0  0  0  0  0  0  0
   11.2719  -10.4647    0.0000 N   0  0  0  0  0  0  0  0  0  0  0  0
   10.5628  -10.8733    0.0000 O   0  0  0  0  0  0  0  0  0  0  0  0
   11.9810  -10.8733    0.0000 O   0  0  0  0  0  0  0  0  0  0  0  0
    9.1488  -10.8733    0.0000 C   0  0  0  0  0  0  0  0  0  0  0  0
    9.1488  -11.6905    0.0000 C   0  0  0  0  0  0  0  0  0  0  0  0
    8.4438  -12.0991    0.0000 C   0  0  0  0  0  0  0  0  0  0  0  0
    7.7347  -11.6905    0.0000 C   0  0  0  0  0  0  0  0  0  0  0  0
    7.7347  -10.8733    0.0000 C   0  0  0  0  0  0  0  0  0  0  0  0
    8.4438  -10.4647    0.0000 C   0  0  0  0  0  0  0  0  0  0  0  0
   10.6051  -11.7647    0.0000 N   0  0  0  0  0  0  0  0  0  0  0  0
   11.1489  -12.3753    0.0000 N   0  0  0  0  0  0  0  0  0  0  0  0
   10.7403  -13.0802    0.0000 N   0  0  0  0  0  0  0  0  0  0  0  0
    9.9419  -12.9136    0.0000 N   0  0  0  0  0  0  0  0  0  0  0  0
    9.8578  -12.0991    0.0000 C   0  0  0  0  0  0  0  0  0  0  0  0
   11.9634  -12.2871    0.0000 C   0  0  0  0  0  0  0  0  0  0  0  0
   12.2978  -11.5398    0.0000 C   0  0  0  0  0  0  0  0  0  0  0  0
   13.1082  -11.4558    0.0000 C   0  0  0  0  0  0  0  0  0  0  0  0
   13.5883  -12.1191    0.0000 C   0  0  0  0  0  0  0  0  0  0  0  0
   13.2581  -12.8622    0.0000 C   0  0  0  0  0  0  0  0  0  0  0  0
   12.4435  -12.9504    0.0000 C   0  0  0  0  0  0  0  0  0  0  0  0
   14.4029  -12.0309    0.0000 O   0  0  0  0  0  0  0  0  0  0  0  0
   14.8830  -12.6942    0.0000 C   0  0  0  0  0  0  0  0  0  0  0  0
   15.6934  -12.6060    0.0000 C   0  0  0  0  0  0  0  0  0  0  0  0
  1  2  1  0
  2  3  2  0
  3  4  1  0
  4  5  2  0
  5  6  1  0
  6  7  2  0
  2  7  1  0
  1  8  2  0
  1  9  1  0
 10 11  2  0
 10 12  1  0
  3 10  1  0
 13 14  1  0
 14 15  2  0
 15 16  1  0
 16 17  2  0
 17 18  1  0
 13 18  2  0
 19 20  1  0
 20 21  1  0
 21 22  2  0
 22 23  1  0
 19 23  2  0
 24 25  2  0
 25 26  1  0
 26 27  2  0
 27 28  1  0
 28 29  2  0
 24 29  1  0
 31 32  1  0
 30 31  1  0
 27 30  1  0
 20 24  1  0
 14 23  1  0
  9 13  1  0
M  CHG  2  10   1  12  -1
M  END
>  <Classification>  (393) 
1

>  <pchembl>  (393) 
6.51

>  <InChI_steorem>  (393) 
InChI=1S/C22H18N6O4/c1-2-32-16-13-11-15(12-14-16)27-25-21(24-26-27)17-7-3-5-9-19(17)23-22(29)18-8-4-6-10-20(18)28(30)31/h3-14H,2H2,1H3,(H,23,29)

>  <source>  (393) 
ChEMBL25

>  <source_id>  (393) 
25

>  <optional_reference>  (393) 
10.1016/j.ejmech.2016.09.010

>  <optional_origin>  (393) 
None

>  <target>  (393) 
BCRP

$$$$

     RDKit          2D

 29 32  0  0  0  0  0  0  0  0999 V2000
   10.2218   -8.3953    0.0000 C   0  0  0  0  0  0  0  0  0  0  0  0
   11.0390   -8.3953    0.0000 C   0  0  0  0  0  0  0  0  0  0  0  0
   11.4476   -7.6862    0.0000 C   0  0  0  0  0  0  0  0  0  0  0  0
   12.2648   -7.6862    0.0000 C   0  0  0  0  0  0  0  0  0  0  0  0
   12.6734   -8.3953    0.0000 C   0  0  0  0  0  0  0  0  0  0  0  0
   12.2648   -9.1044    0.0000 C   0  0  0  0  0  0  0  0  0  0  0  0
   11.4476   -9.1044    0.0000 C   0  0  0  0  0  0  0  0  0  0  0  0
    9.8132   -9.1044    0.0000 O   0  0  0  0  0  0  0  0  0  0  0  0
    9.8132   -7.6862    0.0000 N   0  0  0  0  0  0  0  0  0  0  0  0
   10.2218   -6.9812    0.0000 C   0  0  0  0  0  0  0  0  0  0  0  0
    9.8132   -6.2721    0.0000 C   0  0  0  0  0  0  0  0  0  0  0  0
   10.2218   -5.5630    0.0000 C   0  0  0  0  0  0  0  0  0  0  0  0
   11.0390   -5.5630    0.0000 C   0  0  0  0  0  0  0  0  0  0  0  0
   11.4476   -6.2721    0.0000 C   0  0  0  0  0  0  0  0  0  0  0  0
   11.0390   -6.9812    0.0000 C   0  0  0  0  0  0  0  0  0  0  0  0
    8.5158   -6.9313    0.0000 N   0  0  0  0  0  0  0  0  0  0  0  0
    7.7386   -6.6807    0.0000 N   0  0  0  0  0  0  0  0  0  0  0  0
    7.7386   -5.8635    0.0000 N   0  0  0  0  0  0  0  0  0  0  0  0
    8.5158   -5.6130    0.0000 N   0  0  0  0  0  0  0  0  0  0  0  0
    8.9960   -6.2721    0.0000 C   0  0  0  0  0  0  0  0  0  0  0  0
    7.0795   -7.1609    0.0000 C   0  0  0  0  0  0  0  0  0  0  0  0
    7.1635   -7.9754    0.0000 C   0  0  0  0  0  0  0  0  0  0  0  0
    6.5044   -8.4555    0.0000 C   0  0  0  0  0  0  0  0  0  0  0  0
    5.7571   -8.1212    0.0000 C   0  0  0  0  0  0  0  0  0  0  0  0
    5.6731   -7.3066    0.0000 C   0  0  0  0  0  0  0  0  0  0  0  0
    6.3322   -6.8265    0.0000 C   0  0  0  0  0  0  0  0  0  0  0  0
   11.0386   -9.8151    0.0000 N   0  0  0  0  0  0  0  0  0  0  0  0
   11.4469  -10.5229    0.0000 O   0  0  0  0  0  0  0  0  0  0  0  0
   10.2215   -9.8147    0.0000 O   0  0  0  0  0  0  0  0  0  0  0  0
  1  2  1  0
  2  3  2  0
  3  4  1  0
  4  5  2  0
  5  6  1  0
  6  7  2  0
  2  7  1  0
  1  8  2  0
  1  9  1  0
 10 11  1  0
 11 12  2  0
 12 13  1  0
 13 14  2  0
 14 15  1  0
 10 15  2  0
 16 17  1  0
 17 18  1  0
 18 19  2  0
 19 20  1  0
 16 20  2  0
 21 22  2  0
 22 23  1  0
 23 24  2  0
 24 25  1  0
 25 26  2  0
 21 26  1  0
 17 21  1  0
 11 20  1  0
  9 10  1  0
 27 28  2  0
 27 29  1  0
  7 27  1  0
M  CHG  2  27   1  29  -1
M  END
>  <Classification>  (394) 
1

>  <pchembl>  (394) 
6.55

>  <InChI_steorem>  (394) 
InChI=1S/C20H14N6O3/c27-20(16-11-5-7-13-18(16)26(28)29)21-17-12-6-4-10-15(17)19-22-24-25(23-19)14-8-2-1-3-9-14/h1-13H,(H,21,27)

>  <source>  (394) 
ChEMBL25

>  <source_id>  (394) 
25

>  <optional_reference>  (394) 
10.1016/j.ejmech.2016.09.010

>  <optional_origin>  (394) 
None

>  <target>  (394) 
BCRP

$$$$

     RDKit          2D

 31 34  0  0  0  0  0  0  0  0999 V2000
   13.8441  -10.5178    0.0000 C   0  0  0  0  0  0  0  0  0  0  0  0
   13.8735  -11.3341    0.0000 C   0  0  0  0  0  0  0  0  0  0  0  0
   13.1840  -11.7697    0.0000 C   0  0  0  0  0  0  0  0  0  0  0  0
   13.2134  -12.5860    0.0000 C   0  0  0  0  0  0  0  0  0  0  0  0
   13.9365  -12.9668    0.0000 C   0  0  0  0  0  0  0  0  0  0  0  0
   14.6301  -12.5312    0.0000 C   0  0  0  0  0  0  0  0  0  0  0  0
   14.5966  -11.7149    0.0000 C   0  0  0  0  0  0  0  0  0  0  0  0
   14.5377  -10.0822    0.0000 O   0  0  0  0  0  0  0  0  0  0  0  0
   13.1210  -10.1329    0.0000 N   0  0  0  0  0  0  0  0  0  0  0  0
   12.4609  -11.3848    0.0000 N   0  0  0  0  0  0  0  0  0  0  0  0
   11.7673  -11.8204    0.0000 O   0  0  0  0  0  0  0  0  0  0  0  0
   12.4315  -10.5684    0.0000 O   0  0  0  0  0  0  0  0  0  0  0  0
   13.0916   -9.3165    0.0000 C   0  0  0  0  0  0  0  0  0  0  0  0
   12.3685   -8.9358    0.0000 C   0  0  0  0  0  0  0  0  0  0  0  0
   12.3391   -8.1194    0.0000 C   0  0  0  0  0  0  0  0  0  0  0  0
   13.0327   -7.6839    0.0000 C   0  0  0  0  0  0  0  0  0  0  0  0
   13.7558   -8.0646    0.0000 C   0  0  0  0  0  0  0  0  0  0  0  0
   13.7852   -8.8851    0.0000 C   0  0  0  0  0  0  0  0  0  0  0  0
   11.6242  -10.1857    0.0000 N   0  0  0  0  0  0  0  0  0  0  0  0
   10.8280  -10.3847    0.0000 N   0  0  0  0  0  0  0  0  0  0  0  0
   10.3965   -9.6911    0.0000 N   0  0  0  0  0  0  0  0  0  0  0  0
   10.9179   -9.0669    0.0000 N   0  0  0  0  0  0  0  0  0  0  0  0
   11.6790   -9.3713    0.0000 C   0  0  0  0  0  0  0  0  0  0  0  0
   10.5276  -11.1417    0.0000 C   0  0  0  0  0  0  0  0  0  0  0  0
   11.0321  -11.7855    0.0000 C   0  0  0  0  0  0  0  0  0  0  0  0
   10.7235  -12.5466    0.0000 C   0  0  0  0  0  0  0  0  0  0  0  0
    9.9146  -12.6597    0.0000 C   0  0  0  0  0  0  0  0  0  0  0  0
    9.4102  -12.0158    0.0000 C   0  0  0  0  0  0  0  0  0  0  0  0
    9.7188  -11.2589    0.0000 C   0  0  0  0  0  0  0  0  0  0  0  0
    9.6102  -13.4166    0.0000 O   0  0  0  0  0  0  0  0  0  0  0  0
    8.8013  -13.5339    0.0000 C   0  0  0  0  0  0  0  0  0  0  0  0
  1  2  1  0
  2  3  2  0
  3  4  1  0
  4  5  2  0
  5  6  1  0
  6  7  2  0
  2  7  1  0
  1  8  2  0
  1  9  1  0
 10 11  2  0
 10 12  1  0
  3 10  1  0
 13 14  1  0
 14 15  2  0
 15 16  1  0
 16 17  2  0
 17 18  1  0
 13 18  2  0
 19 20  1  0
 20 21  1  0
 21 22  2  0
 22 23  1  0
 19 23  2  0
 24 25  2  0
 25 26  1  0
 26 27  2  0
 27 28  1  0
 28 29  2  0
 24 29  1  0
 30 31  1  0
 27 30  1  0
 20 24  1  0
 14 23  1  0
  9 13  1  0
M  CHG  2  10   1  12  -1
M  END
>  <Classification>  (395) 
1

>  <pchembl>  (395) 
6.58

>  <InChI_steorem>  (395) 
InChI=1S/C21H16N6O4/c1-31-15-12-10-14(11-13-15)26-24-20(23-25-26)16-6-2-4-8-18(16)22-21(28)17-7-3-5-9-19(17)27(29)30/h2-13H,1H3,(H,22,28)

>  <source>  (395) 
ChEMBL25

>  <source_id>  (395) 
25

>  <optional_reference>  (395) 
10.1016/j.ejmech.2016.09.010

>  <optional_origin>  (395) 
None

>  <target>  (395) 
BCRP

$$$$

     RDKit          2D

 32 35  0  0  0  0  0  0  0  0999 V2000
   10.6168  -11.3565    0.0000 C   0  0  0  0  0  0  0  0  0  0  0  0
    9.7996  -11.3565    0.0000 C   0  0  0  0  0  0  0  0  0  0  0  0
    9.3910  -10.6474    0.0000 C   0  0  0  0  0  0  0  0  0  0  0  0
    8.5738  -10.6474    0.0000 C   0  0  0  0  0  0  0  0  0  0  0  0
    8.1652  -11.3565    0.0000 C   0  0  0  0  0  0  0  0  0  0  0  0
    8.5738  -12.0615    0.0000 C   0  0  0  0  0  0  0  0  0  0  0  0
    9.3910  -12.0615    0.0000 C   0  0  0  0  0  0  0  0  0  0  0  0
   11.0254  -12.0614    0.0000 O   0  0  0  0  0  0  0  0  0  0  0  0
   11.0254  -10.6474    0.0000 N   0  0  0  0  0  0  0  0  0  0  0  0
    7.3480  -11.3565    0.0000 O   0  0  0  0  0  0  0  0  0  0  0  0
    6.9394  -12.0615    0.0000 C   0  0  0  0  0  0  0  0  0  0  0  0
   10.6168   -9.9424    0.0000 C   0  0  0  0  0  0  0  0  0  0  0  0
   11.0254   -9.2333    0.0000 C   0  0  0  0  0  0  0  0  0  0  0  0
   10.6168   -8.5243    0.0000 C   0  0  0  0  0  0  0  0  0  0  0  0
    9.7996   -8.5243    0.0000 C   0  0  0  0  0  0  0  0  0  0  0  0
    9.3910   -9.2333    0.0000 C   0  0  0  0  0  0  0  0  0  0  0  0
    9.7996   -9.9424    0.0000 C   0  0  0  0  0  0  0  0  0  0  0  0
   12.3227   -9.8925    0.0000 N   0  0  0  0  0  0  0  0  0  0  0  0
   13.1000   -9.6419    0.0000 N   0  0  0  0  0  0  0  0  0  0  0  0
   13.1000   -8.8248    0.0000 N   0  0  0  0  0  0  0  0  0  0  0  0
   12.3227   -8.5701    0.0000 N   0  0  0  0  0  0  0  0  0  0  0  0
   11.8426   -9.2333    0.0000 C   0  0  0  0  0  0  0  0  0  0  0  0
   13.7632  -10.1221    0.0000 C   0  0  0  0  0  0  0  0  0  0  0  0
   13.6751  -10.9366    0.0000 C   0  0  0  0  0  0  0  0  0  0  0  0
   14.3383  -11.4126    0.0000 C   0  0  0  0  0  0  0  0  0  0  0  0
   15.0815  -11.0824    0.0000 C   0  0  0  0  0  0  0  0  0  0  0  0
   15.1697  -10.2720    0.0000 C   0  0  0  0  0  0  0  0  0  0  0  0
   14.5105   -9.7877    0.0000 C   0  0  0  0  0  0  0  0  0  0  0  0
   15.7448  -11.5625    0.0000 O   0  0  0  0  0  0  0  0  0  0  0  0
   16.4921  -11.2323    0.0000 C   0  0  0  0  0  0  0  0  0  0  0  0
   14.2502  -12.2272    0.0000 O   0  0  0  0  0  0  0  0  0  0  0  0
   14.9135  -12.7073    0.0000 C   0  0  0  0  0  0  0  0  0  0  0  0
  1  2  1  0
  2  3  2  0
  3  4  1  0
  4  5  2  0
  5  6  1  0
  6  7  2  0
  2  7  1  0
  1  8  2  0
  1  9  1  0
 10 11  1  0
  5 10  1  0
 12 13  1  0
 13 14  2  0
 14 15  1  0
 15 16  2  0
 16 17  1  0
 12 17  2  0
 18 19  1  0
 19 20  1  0
 20 21  2  0
 21 22  1  0
 18 22  2  0
 23 24  2  0
 24 25  1  0
 25 26  2  0
 26 27  1  0
 27 28  2  0
 23 28  1  0
 29 30  1  0
 26 29  1  0
 31 32  1  0
 25 31  1  0
 19 23  1  0
 13 22  1  0
  9 12  1  0
M  END
>  <Classification>  (396) 
1

>  <pchembl>  (396) 
6.5

>  <InChI_steorem>  (396) 
InChI=1S/C23H21N5O4/c1-30-17-11-8-15(9-12-17)23(29)24-19-7-5-4-6-18(19)22-25-27-28(26-22)16-10-13-20(31-2)21(14-16)32-3/h4-14H,1-3H3,(H,24,29)

>  <source>  (396) 
ChEMBL25

>  <source_id>  (396) 
25

>  <optional_reference>  (396) 
10.1016/j.ejmech.2016.09.010

>  <optional_origin>  (396) 
None

>  <target>  (396) 
BCRP

$$$$

     RDKit          2D

 29 32  0  0  0  0  0  0  0  0999 V2000
   11.6829  -11.6104    0.0000 C   0  0  0  0  0  0  0  0  0  0  0  0
   12.5001  -11.6104    0.0000 C   0  0  0  0  0  0  0  0  0  0  0  0
   12.9087  -10.9013    0.0000 C   0  0  0  0  0  0  0  0  0  0  0  0
   13.7259  -10.9013    0.0000 C   0  0  0  0  0  0  0  0  0  0  0  0
   14.1345  -11.6104    0.0000 C   0  0  0  0  0  0  0  0  0  0  0  0
   13.7259  -12.3195    0.0000 C   0  0  0  0  0  0  0  0  0  0  0  0
   12.9087  -12.3195    0.0000 C   0  0  0  0  0  0  0  0  0  0  0  0
   11.2744  -12.3195    0.0000 O   0  0  0  0  0  0  0  0  0  0  0  0
   11.2744  -10.9013    0.0000 N   0  0  0  0  0  0  0  0  0  0  0  0
   14.9517  -11.6104    0.0000 C   0  0  0  0  0  0  0  0  0  0  0  0
   15.3603  -12.3195    0.0000 C   0  0  0  0  0  0  0  0  0  0  0  0
   16.1775  -12.3195    0.0000 C   0  0  0  0  0  0  0  0  0  0  0  0
   11.6829  -10.1963    0.0000 C   0  0  0  0  0  0  0  0  0  0  0  0
   11.2744   -9.4872    0.0000 C   0  0  0  0  0  0  0  0  0  0  0  0
   11.6829   -8.7782    0.0000 C   0  0  0  0  0  0  0  0  0  0  0  0
   12.5001   -8.7782    0.0000 C   0  0  0  0  0  0  0  0  0  0  0  0
   12.9087   -9.4872    0.0000 C   0  0  0  0  0  0  0  0  0  0  0  0
   12.5001  -10.1963    0.0000 C   0  0  0  0  0  0  0  0  0  0  0  0
    9.9729  -10.1464    0.0000 N   0  0  0  0  0  0  0  0  0  0  0  0
    9.1957   -9.8958    0.0000 N   0  0  0  0  0  0  0  0  0  0  0  0
    9.1957   -9.0786    0.0000 N   0  0  0  0  0  0  0  0  0  0  0  0
    9.9729   -8.8281    0.0000 N   0  0  0  0  0  0  0  0  0  0  0  0
   10.4572   -9.4872    0.0000 C   0  0  0  0  0  0  0  0  0  0  0  0
    8.5365  -10.3760    0.0000 C   0  0  0  0  0  0  0  0  0  0  0  0
    8.6205  -11.1905    0.0000 C   0  0  0  0  0  0  0  0  0  0  0  0
    7.9614  -11.6707    0.0000 C   0  0  0  0  0  0  0  0  0  0  0  0
    7.2141  -11.3363    0.0000 C   0  0  0  0  0  0  0  0  0  0  0  0
    7.1301  -10.5217    0.0000 C   0  0  0  0  0  0  0  0  0  0  0  0
    7.7892  -10.0416    0.0000 C   0  0  0  0  0  0  0  0  0  0  0  0
  1  2  1  0
  2  3  2  0
  3  4  1  0
  4  5  2  0
  5  6  1  0
  6  7  2  0
  2  7  1  0
  1  8  2  0
  1  9  1  0
 10 11  1  0
 11 12  1  0
  5 10  1  0
 13 14  1  0
 14 15  2  0
 15 16  1  0
 16 17  2  0
 17 18  1  0
 13 18  2  0
 19 20  1  0
 20 21  1  0
 21 22  2  0
 22 23  1  0
 19 23  2  0
 24 25  2  0
 25 26  1  0
 26 27  2  0
 27 28  1  0
 28 29  2  0
 24 29  1  0
 20 24  1  0
 14 23  1  0
  9 13  1  0
M  END
>  <Classification>  (397) 
1

>  <pchembl>  (397) 
6.67

>  <InChI_steorem>  (397) 
InChI=1S/C23H21N5O/c1-2-8-17-13-15-18(16-14-17)23(29)24-21-12-7-6-11-20(21)22-25-27-28(26-22)19-9-4-3-5-10-19/h3-7,9-16H,2,8H2,1H3,(H,24,29)

>  <source>  (397) 
ChEMBL25

>  <source_id>  (397) 
25

>  <optional_reference>  (397) 
10.1016/j.ejmech.2016.09.010

>  <optional_origin>  (397) 
None

>  <target>  (397) 
BCRP

$$$$

     RDKit          2D

 30 33  0  0  0  0  0  0  0  0999 V2000
   11.2066  -11.6104    0.0000 C   0  0  0  0  0  0  0  0  0  0  0  0
   10.3895  -11.6104    0.0000 C   0  0  0  0  0  0  0  0  0  0  0  0
    9.9809  -10.9013    0.0000 C   0  0  0  0  0  0  0  0  0  0  0  0
    9.1637  -10.9013    0.0000 C   0  0  0  0  0  0  0  0  0  0  0  0
    8.7551  -11.6104    0.0000 C   0  0  0  0  0  0  0  0  0  0  0  0
    9.1637  -12.3195    0.0000 C   0  0  0  0  0  0  0  0  0  0  0  0
    9.9809  -12.3195    0.0000 C   0  0  0  0  0  0  0  0  0  0  0  0
   11.6152  -12.3195    0.0000 O   0  0  0  0  0  0  0  0  0  0  0  0
   11.6152  -10.9013    0.0000 N   0  0  0  0  0  0  0  0  0  0  0  0
    7.9379  -11.6104    0.0000 C   0  0  0  0  0  0  0  0  0  0  0  0
    7.5293  -12.3195    0.0000 C   0  0  0  0  0  0  0  0  0  0  0  0
    6.7121  -12.3195    0.0000 C   0  0  0  0  0  0  0  0  0  0  0  0
   11.2066  -10.1963    0.0000 C   0  0  0  0  0  0  0  0  0  0  0  0
   11.6152   -9.4872    0.0000 C   0  0  0  0  0  0  0  0  0  0  0  0
   11.2066   -8.7782    0.0000 C   0  0  0  0  0  0  0  0  0  0  0  0
   10.3895   -8.7782    0.0000 C   0  0  0  0  0  0  0  0  0  0  0  0
    9.9809   -9.4872    0.0000 C   0  0  0  0  0  0  0  0  0  0  0  0
   10.3895  -10.1963    0.0000 C   0  0  0  0  0  0  0  0  0  0  0  0
   12.9126  -10.1464    0.0000 N   0  0  0  0  0  0  0  0  0  0  0  0
   13.6898   -9.8958    0.0000 N   0  0  0  0  0  0  0  0  0  0  0  0
   13.6898   -9.0786    0.0000 N   0  0  0  0  0  0  0  0  0  0  0  0
   12.9126   -8.8281    0.0000 N   0  0  0  0  0  0  0  0  0  0  0  0
   12.4324   -9.4872    0.0000 C   0  0  0  0  0  0  0  0  0  0  0  0
   14.3489  -10.3760    0.0000 C   0  0  0  0  0  0  0  0  0  0  0  0
   14.2649  -11.1905    0.0000 C   0  0  0  0  0  0  0  0  0  0  0  0
   14.9282  -11.6707    0.0000 C   0  0  0  0  0  0  0  0  0  0  0  0
   15.6713  -11.3363    0.0000 C   0  0  0  0  0  0  0  0  0  0  0  0
   15.7595  -10.5217    0.0000 C   0  0  0  0  0  0  0  0  0  0  0  0
   15.0962  -10.0416    0.0000 C   0  0  0  0  0  0  0  0  0  0  0  0
   16.3346  -11.8164    0.0000 O   0  0  0  0  0  0  0  0  0  0  0  0
  1  2  1  0
  2  3  2  0
  3  4  1  0
  4  5  2  0
  5  6  1  0
  6  7  2  0
  2  7  1  0
  1  8  2  0
  1  9  1  0
 10 11  1  0
 11 12  1  0
  5 10  1  0
 13 14  1  0
 14 15  2  0
 15 16  1  0
 16 17  2  0
 17 18  1  0
 13 18  2  0
 19 20  1  0
 20 21  1  0
 21 22  2  0
 22 23  1  0
 19 23  2  0
 24 25  2  0
 25 26  1  0
 26 27  2  0
 27 28  1  0
 28 29  2  0
 24 29  1  0
 27 30  1  0
 20 24  1  0
 14 23  1  0
  9 13  1  0
M  END
>  <Classification>  (398) 
1

>  <pchembl>  (398) 
6.69

>  <InChI_steorem>  (398) 
InChI=1S/C23H21N5O2/c1-2-5-16-8-10-17(11-9-16)23(30)24-21-7-4-3-6-20(21)22-25-27-28(26-22)18-12-14-19(29)15-13-18/h3-4,6-15,29H,2,5H2,1H3,(H,24,30)

>  <source>  (398) 
ChEMBL25

>  <source_id>  (398) 
25

>  <optional_reference>  (398) 
10.1016/j.ejmech.2016.09.010

>  <optional_origin>  (398) 
None

>  <target>  (398) 
BCRP

$$$$

     RDKit          2D

 31 34  0  0  0  0  0  0  0  0999 V2000
    9.9846   -8.9242    0.0000 C   0  0  0  0  0  0  0  0  0  0  0  0
    9.1674   -8.9242    0.0000 C   0  0  0  0  0  0  0  0  0  0  0  0
    8.7588   -8.2151    0.0000 C   0  0  0  0  0  0  0  0  0  0  0  0
    7.9416   -8.2151    0.0000 C   0  0  0  0  0  0  0  0  0  0  0  0
    7.5330   -8.9242    0.0000 C   0  0  0  0  0  0  0  0  0  0  0  0
    7.9416   -9.6333    0.0000 C   0  0  0  0  0  0  0  0  0  0  0  0
    8.7588   -9.6333    0.0000 C   0  0  0  0  0  0  0  0  0  0  0  0
   10.3932   -9.6333    0.0000 O   0  0  0  0  0  0  0  0  0  0  0  0
   10.3932   -8.2151    0.0000 N   0  0  0  0  0  0  0  0  0  0  0  0
    9.9846   -7.5101    0.0000 C   0  0  0  0  0  0  0  0  0  0  0  0
   10.3932   -6.8011    0.0000 C   0  0  0  0  0  0  0  0  0  0  0  0
    9.9846   -6.0920    0.0000 C   0  0  0  0  0  0  0  0  0  0  0  0
    9.1674   -6.0920    0.0000 C   0  0  0  0  0  0  0  0  0  0  0  0
    8.7588   -6.8011    0.0000 C   0  0  0  0  0  0  0  0  0  0  0  0
    9.1674   -7.5101    0.0000 C   0  0  0  0  0  0  0  0  0  0  0  0
   11.6905   -7.4643    0.0000 N   0  0  0  0  0  0  0  0  0  0  0  0
   12.4677   -7.2096    0.0000 N   0  0  0  0  0  0  0  0  0  0  0  0
   12.4677   -6.3925    0.0000 N   0  0  0  0  0  0  0  0  0  0  0  0
   11.6905   -6.1378    0.0000 N   0  0  0  0  0  0  0  0  0  0  0  0
   11.2104   -6.8011    0.0000 C   0  0  0  0  0  0  0  0  0  0  0  0
   13.1269   -7.6898    0.0000 C   0  0  0  0  0  0  0  0  0  0  0  0
   13.0429   -8.5043    0.0000 C   0  0  0  0  0  0  0  0  0  0  0  0
   13.7020   -8.9845    0.0000 C   0  0  0  0  0  0  0  0  0  0  0  0
   14.4493   -8.6501    0.0000 C   0  0  0  0  0  0  0  0  0  0  0  0
   14.5333   -7.8397    0.0000 C   0  0  0  0  0  0  0  0  0  0  0  0
   13.8742   -7.3554    0.0000 C   0  0  0  0  0  0  0  0  0  0  0  0
   15.1126   -9.1302    0.0000 S   0  0  0  0  0  0  0  0  0  0  0  0
   15.8557   -8.8000    0.0000 C   0  0  0  0  0  0  0  0  0  0  0  0
    6.7158   -8.9242    0.0000 C   0  0  0  0  0  0  0  0  0  0  0  0
    6.3072   -8.2165    0.0000 C   0  0  0  0  0  0  0  0  0  0  0  0
    5.4900   -8.2165    0.0000 C   0  0  0  0  0  0  0  0  0  0  0  0
  1  2  1  0
  2  3  2  0
  3  4  1  0
  4  5  2  0
  5  6  1  0
  6  7  2  0
  2  7  1  0
  1  8  2  0
  1  9  1  0
 10 11  1  0
 11 12  2  0
 12 13  1  0
 13 14  2  0
 14 15  1  0
 10 15  2  0
 16 17  1  0
 17 18  1  0
 18 19  2  0
 19 20  1  0
 16 20  2  0
 21 22  2  0
 22 23  1  0
 23 24  2  0
 24 25  1  0
 25 26  2  0
 21 26  1  0
 27 28  1  0
 24 27  1  0
 17 21  1  0
 11 20  1  0
  9 10  1  0
  5 29  1  0
 29 30  1  0
 30 31  1  0
M  END
>  <Classification>  (399) 
1

>  <pchembl>  (399) 
6.11

>  <InChI_steorem>  (399) 
InChI=1S/C24H23N5OS/c1-3-6-17-9-11-18(12-10-17)24(30)25-22-8-5-4-7-21(22)23-26-28-29(27-23)19-13-15-20(31-2)16-14-19/h4-5,7-16H,3,6H2,1-2H3,(H,25,30)

>  <source>  (399) 
ChEMBL25

>  <source_id>  (399) 
25

>  <optional_reference>  (399) 
10.1016/j.ejmech.2016.09.010

>  <optional_origin>  (399) 
None

>  <target>  (399) 
BCRP

$$$$

     RDKit          2D

 28 31  0  0  0  0  0  0  0  0999 V2000
   10.2218   -8.3953    0.0000 C   0  0  0  0  0  0  0  0  0  0  0  0
   11.0390   -8.3953    0.0000 C   0  0  0  0  0  0  0  0  0  0  0  0
   11.4476   -7.6862    0.0000 C   0  0  0  0  0  0  0  0  0  0  0  0
   12.2648   -7.6862    0.0000 C   0  0  0  0  0  0  0  0  0  0  0  0
   12.6734   -8.3953    0.0000 C   0  0  0  0  0  0  0  0  0  0  0  0
   12.2648   -9.1044    0.0000 C   0  0  0  0  0  0  0  0  0  0  0  0
   11.4476   -9.1044    0.0000 C   0  0  0  0  0  0  0  0  0  0  0  0
    9.8132   -9.1044    0.0000 O   0  0  0  0  0  0  0  0  0  0  0  0
    9.8132   -7.6862    0.0000 N   0  0  0  0  0  0  0  0  0  0  0  0
   10.2218   -6.9812    0.0000 C   0  0  0  0  0  0  0  0  0  0  0  0
    9.8132   -6.2721    0.0000 C   0  0  0  0  0  0  0  0  0  0  0  0
   10.2218   -5.5630    0.0000 C   0  0  0  0  0  0  0  0  0  0  0  0
   11.0390   -5.5630    0.0000 C   0  0  0  0  0  0  0  0  0  0  0  0
   11.4476   -6.2721    0.0000 C   0  0  0  0  0  0  0  0  0  0  0  0
   11.0390   -6.9812    0.0000 C   0  0  0  0  0  0  0  0  0  0  0  0
    8.5158   -6.9313    0.0000 N   0  0  0  0  0  0  0  0  0  0  0  0
    7.7386   -6.6807    0.0000 N   0  0  0  0  0  0  0  0  0  0  0  0
    7.7386   -5.8635    0.0000 N   0  0  0  0  0  0  0  0  0  0  0  0
    8.5158   -5.6130    0.0000 N   0  0  0  0  0  0  0  0  0  0  0  0
    8.9960   -6.2721    0.0000 C   0  0  0  0  0  0  0  0  0  0  0  0
    7.0795   -7.1609    0.0000 C   0  0  0  0  0  0  0  0  0  0  0  0
    7.1635   -7.9754    0.0000 C   0  0  0  0  0  0  0  0  0  0  0  0
    6.5044   -8.4555    0.0000 C   0  0  0  0  0  0  0  0  0  0  0  0
    5.7571   -8.1212    0.0000 C   0  0  0  0  0  0  0  0  0  0  0  0
    5.6731   -7.3066    0.0000 C   0  0  0  0  0  0  0  0  0  0  0  0
    6.3322   -6.8265    0.0000 C   0  0  0  0  0  0  0  0  0  0  0  0
   13.4886   -8.3976    0.0000 O   0  0  0  0  0  0  0  0  0  0  0  0
   13.8972   -7.6899    0.0000 C   0  0  0  0  0  0  0  0  0  0  0  0
  1  2  1  0
  2  3  2  0
  3  4  1  0
  4  5  2  0
  5  6  1  0
  6  7  2  0
  2  7  1  0
  1  8  2  0
  1  9  1  0
 10 11  1  0
 11 12  2  0
 12 13  1  0
 13 14  2  0
 14 15  1  0
 10 15  2  0
 16 17  1  0
 17 18  1  0
 18 19  2  0
 19 20  1  0
 16 20  2  0
 21 22  2  0
 22 23  1  0
 23 24  2  0
 24 25  1  0
 25 26  2  0
 21 26  1  0
 17 21  1  0
 11 20  1  0
  9 10  1  0
 27 28  1  0
  5 27  1  0
M  END
>  <Classification>  (400) 
1

>  <pchembl>  (400) 
6.7

>  <InChI_steorem>  (400) 
InChI=1S/C21H17N5O2/c1-28-17-13-11-15(12-14-17)21(27)22-19-10-6-5-9-18(19)20-23-25-26(24-20)16-7-3-2-4-8-16/h2-14H,1H3,(H,22,27)

>  <source>  (400) 
ChEMBL25

>  <source_id>  (400) 
25

>  <optional_reference>  (400) 
10.1016/j.ejmech.2016.09.010

>  <optional_origin>  (400) 
None

>  <target>  (400) 
BCRP

$$$$

     RDKit          2D

 30 33  0  0  0  0  0  0  0  0999 V2000
   11.9472  -11.5532    0.0000 C   0  0  0  0  0  0  0  0  0  0  0  0
   12.7643  -11.5532    0.0000 C   0  0  0  0  0  0  0  0  0  0  0  0
   13.1729  -10.8441    0.0000 C   0  0  0  0  0  0  0  0  0  0  0  0
   13.9901  -10.8441    0.0000 C   0  0  0  0  0  0  0  0  0  0  0  0
   14.3987  -11.5532    0.0000 C   0  0  0  0  0  0  0  0  0  0  0  0
   13.9901  -12.2623    0.0000 C   0  0  0  0  0  0  0  0  0  0  0  0
   13.1729  -12.2623    0.0000 C   0  0  0  0  0  0  0  0  0  0  0  0
   11.5386  -12.2623    0.0000 O   0  0  0  0  0  0  0  0  0  0  0  0
   11.5386  -10.8441    0.0000 N   0  0  0  0  0  0  0  0  0  0  0  0
   11.9472  -10.1392    0.0000 C   0  0  0  0  0  0  0  0  0  0  0  0
   11.5386   -9.4301    0.0000 C   0  0  0  0  0  0  0  0  0  0  0  0
   11.9472   -8.7210    0.0000 C   0  0  0  0  0  0  0  0  0  0  0  0
   12.7643   -8.7210    0.0000 C   0  0  0  0  0  0  0  0  0  0  0  0
   13.1729   -9.4301    0.0000 C   0  0  0  0  0  0  0  0  0  0  0  0
   12.7643  -10.1392    0.0000 C   0  0  0  0  0  0  0  0  0  0  0  0
   10.2412  -10.0934    0.0000 N   0  0  0  0  0  0  0  0  0  0  0  0
    9.4640   -9.8387    0.0000 N   0  0  0  0  0  0  0  0  0  0  0  0
    9.4640   -9.0215    0.0000 N   0  0  0  0  0  0  0  0  0  0  0  0
   10.2412   -8.7668    0.0000 N   0  0  0  0  0  0  0  0  0  0  0  0
   10.7214   -9.4301    0.0000 C   0  0  0  0  0  0  0  0  0  0  0  0
    8.8007  -10.3188    0.0000 C   0  0  0  0  0  0  0  0  0  0  0  0
    8.8889  -11.1334    0.0000 C   0  0  0  0  0  0  0  0  0  0  0  0
    8.2256  -11.6135    0.0000 C   0  0  0  0  0  0  0  0  0  0  0  0
    7.4825  -11.2791    0.0000 C   0  0  0  0  0  0  0  0  0  0  0  0
    7.3943  -10.4687    0.0000 C   0  0  0  0  0  0  0  0  0  0  0  0
    8.0576   -9.9844    0.0000 C   0  0  0  0  0  0  0  0  0  0  0  0
   15.2172  -11.5500    0.0000 C   0  0  0  0  0  0  0  0  0  0  0  0
   15.9607  -11.5500    0.0000 F   0  0  0  0  0  0  0  0  0  0  0  0
   15.7567  -12.2120    0.0000 F   0  0  0  0  0  0  0  0  0  0  0  0
   15.7567  -10.8880    0.0000 F   0  0  0  0  0  0  0  0  0  0  0  0
  1  2  1  0
  2  3  2  0
  3  4  1  0
  4  5  2  0
  5  6  1  0
  6  7  2  0
  2  7  1  0
  1  8  2  0
  1  9  1  0
 10 11  1  0
 11 12  2  0
 12 13  1  0
 13 14  2  0
 14 15  1  0
 10 15  2  0
 16 17  1  0
 17 18  1  0
 18 19  2  0
 19 20  1  0
 16 20  2  0
 21 22  2  0
 22 23  1  0
 23 24  2  0
 24 25  1  0
 25 26  2  0
 21 26  1  0
 17 21  1  0
 11 20  1  0
  9 10  1  0
 27 28  1  0
 27 29  1  0
 27 30  1  0
  5 27  1  0
M  END
>  <Classification>  (401) 
1

>  <pchembl>  (401) 
5.36

>  <InChI_steorem>  (401) 
InChI=1S/C21H14F3N5O/c22-21(23,24)15-12-10-14(11-13-15)20(30)25-18-9-5-4-8-17(18)19-26-28-29(27-19)16-6-2-1-3-7-16/h1-13H,(H,25,30)

>  <source>  (401) 
ChEMBL25

>  <source_id>  (401) 
25

>  <optional_reference>  (401) 
10.1016/j.ejmech.2016.09.010

>  <optional_origin>  (401) 
None

>  <target>  (401) 
BCRP

$$$$

     RDKit          2D

 26 29  0  0  0  0  0  0  0  0999 V2000
    7.7042   -6.5513    0.0000 C   0  0  0  0  0  0  0  0  0  0  0  0
    6.8871   -6.5513    0.0000 C   0  0  0  0  0  0  0  0  0  0  0  0
    6.4785   -7.2604    0.0000 C   0  0  0  0  0  0  0  0  0  0  0  0
    5.6613   -7.2604    0.0000 C   0  0  0  0  0  0  0  0  0  0  0  0
    5.2527   -6.5513    0.0000 C   0  0  0  0  0  0  0  0  0  0  0  0
    5.6613   -5.8464    0.0000 C   0  0  0  0  0  0  0  0  0  0  0  0
    6.4785   -5.8464    0.0000 C   0  0  0  0  0  0  0  0  0  0  0  0
    8.1128   -5.8464    0.0000 O   0  0  0  0  0  0  0  0  0  0  0  0
    8.1128   -7.2604    0.0000 N   0  0  0  0  0  0  0  0  0  0  0  0
    7.7042   -7.9695    0.0000 C   0  0  0  0  0  0  0  0  0  0  0  0
    8.1128   -8.6745    0.0000 C   0  0  0  0  0  0  0  0  0  0  0  0
    7.7042   -9.3835    0.0000 C   0  0  0  0  0  0  0  0  0  0  0  0
    6.8871   -9.3835    0.0000 C   0  0  0  0  0  0  0  0  0  0  0  0
    6.4785   -8.6745    0.0000 C   0  0  0  0  0  0  0  0  0  0  0  0
    6.8870   -7.9695    0.0000 C   0  0  0  0  0  0  0  0  0  0  0  0
    9.4102   -8.0153    0.0000 N   0  0  0  0  0  0  0  0  0  0  0  0
   10.1874   -8.2659    0.0000 N   0  0  0  0  0  0  0  0  0  0  0  0
   10.1874   -9.0831    0.0000 N   0  0  0  0  0  0  0  0  0  0  0  0
    9.4102   -9.3377    0.0000 N   0  0  0  0  0  0  0  0  0  0  0  0
    8.9300   -8.6745    0.0000 C   0  0  0  0  0  0  0  0  0  0  0  0
   10.8507   -7.7857    0.0000 C   0  0  0  0  0  0  0  0  0  0  0  0
   10.7625   -6.9753    0.0000 C   0  0  0  0  0  0  0  0  0  0  0  0
   11.4258   -6.4952    0.0000 C   0  0  0  0  0  0  0  0  0  0  0  0
   12.1731   -6.8254    0.0000 C   0  0  0  0  0  0  0  0  0  0  0  0
   12.2571   -7.6400    0.0000 C   0  0  0  0  0  0  0  0  0  0  0  0
   11.5938   -8.1201    0.0000 C   0  0  0  0  0  0  0  0  0  0  0  0
  1  2  1  0
  2  3  2  0
  3  4  1  0
  4  5  2  0
  5  6  1  0
  6  7  2  0
  2  7  1  0
  1  8  2  0
  1  9  1  0
 10 11  1  0
 11 12  2  0
 12 13  1  0
 13 14  2  0
 14 15  1  0
 10 15  2  0
 16 17  1  0
 17 18  1  0
 18 19  2  0
 19 20  1  0
 16 20  2  0
 21 22  2  0
 22 23  1  0
 23 24  2  0
 24 25  1  0
 25 26  2  0
 21 26  1  0
 17 21  1  0
 11 20  1  0
  9 10  1  0
M  END
>  <Classification>  (402) 
1

>  <pchembl>  (402) 
7.17

>  <InChI_steorem>  (402) 
InChI=1S/C20H15N5O/c26-20(15-9-3-1-4-10-15)21-18-14-8-7-13-17(18)19-22-24-25(23-19)16-11-5-2-6-12-16/h1-14H,(H,21,26)

>  <source>  (402) 
ChEMBL25

>  <source_id>  (402) 
25

>  <optional_reference>  (402) 
10.1016/j.ejmech.2016.09.010

>  <optional_origin>  (402) 
None

>  <target>  (402) 
BCRP

$$$$

     RDKit          2D

 31 34  0  0  0  0  0  0  0  0999 V2000
    8.0336   -6.9565    0.0000 C   0  0  0  0  0  0  0  0  0  0  0  0
    8.7386   -6.5479    0.0000 C   0  0  0  0  0  0  0  0  0  0  0  0
    9.4477   -6.9565    0.0000 C   0  0  0  0  0  0  0  0  0  0  0  0
   10.1567   -6.5479    0.0000 C   0  0  0  0  0  0  0  0  0  0  0  0
   10.1567   -5.7307    0.0000 C   0  0  0  0  0  0  0  0  0  0  0  0
    9.4477   -5.3221    0.0000 C   0  0  0  0  0  0  0  0  0  0  0  0
    8.7386   -5.7307    0.0000 C   0  0  0  0  0  0  0  0  0  0  0  0
    7.3245   -6.5479    0.0000 O   0  0  0  0  0  0  0  0  0  0  0  0
    8.0336   -7.7737    0.0000 N   0  0  0  0  0  0  0  0  0  0  0  0
    7.3245   -8.1823    0.0000 C   0  0  0  0  0  0  0  0  0  0  0  0
    7.3245   -8.9995    0.0000 C   0  0  0  0  0  0  0  0  0  0  0  0
    6.6196   -9.4081    0.0000 C   0  0  0  0  0  0  0  0  0  0  0  0
    5.9105   -8.9995    0.0000 C   0  0  0  0  0  0  0  0  0  0  0  0
    5.9105   -8.1823    0.0000 C   0  0  0  0  0  0  0  0  0  0  0  0
    6.6196   -7.7737    0.0000 C   0  0  0  0  0  0  0  0  0  0  0  0
    8.7809   -9.0737    0.0000 N   0  0  0  0  0  0  0  0  0  0  0  0
    9.3246   -9.6843    0.0000 N   0  0  0  0  0  0  0  0  0  0  0  0
    8.9160  -10.3893    0.0000 N   0  0  0  0  0  0  0  0  0  0  0  0
    8.1176  -10.2226    0.0000 N   0  0  0  0  0  0  0  0  0  0  0  0
    8.0336   -9.4081    0.0000 C   0  0  0  0  0  0  0  0  0  0  0  0
   10.1392   -9.5962    0.0000 C   0  0  0  0  0  0  0  0  0  0  0  0
   10.4735   -8.8489    0.0000 C   0  0  0  0  0  0  0  0  0  0  0  0
   11.2840   -8.7648    0.0000 C   0  0  0  0  0  0  0  0  0  0  0  0
   11.7641   -9.4281    0.0000 C   0  0  0  0  0  0  0  0  0  0  0  0
   11.4338  -10.1713    0.0000 C   0  0  0  0  0  0  0  0  0  0  0  0
   10.6193  -10.2594    0.0000 C   0  0  0  0  0  0  0  0  0  0  0  0
   12.5786   -9.3400    0.0000 O   0  0  0  0  0  0  0  0  0  0  0  0
   13.0588  -10.0032    0.0000 C   0  0  0  0  0  0  0  0  0  0  0  0
   13.8692   -9.9151    0.0000 C   0  0  0  0  0  0  0  0  0  0  0  0
   10.8622   -5.3234    0.0000 O   0  0  0  0  0  0  0  0  0  0  0  0
   10.8619   -4.5062    0.0000 C   0  0  0  0  0  0  0  0  0  0  0  0
  1  2  1  0
  2  3  2  0
  3  4  1  0
  4  5  2  0
  5  6  1  0
  6  7  2  0
  2  7  1  0
  1  8  2  0
  1  9  1  0
 10 11  1  0
 11 12  2  0
 12 13  1  0
 13 14  2  0
 14 15  1  0
 10 15  2  0
 16 17  1  0
 17 18  1  0
 18 19  2  0
 19 20  1  0
 16 20  2  0
 21 22  2  0
 22 23  1  0
 23 24  2  0
 24 25  1  0
 25 26  2  0
 21 26  1  0
 28 29  1  0
 27 28  1  0
 24 27  1  0
 17 21  1  0
 11 20  1  0
  9 10  1  0
 30 31  1  0
  5 30  1  0
M  END
>  <Classification>  (403) 
1

>  <pchembl>  (403) 
6.1

>  <InChI_steorem>  (403) 
InChI=1S/C23H21N5O3/c1-3-31-19-14-10-17(11-15-19)28-26-22(25-27-28)20-6-4-5-7-21(20)24-23(29)16-8-12-18(30-2)13-9-16/h4-15H,3H2,1-2H3,(H,24,29)

>  <source>  (403) 
ChEMBL25

>  <source_id>  (403) 
25

>  <optional_reference>  (403) 
10.1016/j.ejmech.2016.09.010

>  <optional_origin>  (403) 
None

>  <target>  (403) 
BCRP

$$$$

     RDKit          2D

 34 37  0  0  0  0  0  0  0  0999 V2000
    7.5124   -6.0613    0.0000 C   0  0  0  0  0  0  0  0  0  0  0  0
    6.6952   -6.0613    0.0000 C   0  0  0  0  0  0  0  0  0  0  0  0
    6.2866   -5.3522    0.0000 C   0  0  0  0  0  0  0  0  0  0  0  0
    5.4694   -5.3522    0.0000 C   0  0  0  0  0  0  0  0  0  0  0  0
    5.0608   -6.0613    0.0000 C   0  0  0  0  0  0  0  0  0  0  0  0
    5.4694   -6.7662    0.0000 C   0  0  0  0  0  0  0  0  0  0  0  0
    6.2866   -6.7662    0.0000 C   0  0  0  0  0  0  0  0  0  0  0  0
    7.9210   -6.7662    0.0000 O   0  0  0  0  0  0  0  0  0  0  0  0
    7.9210   -5.3522    0.0000 N   0  0  0  0  0  0  0  0  0  0  0  0
    7.5124   -4.6472    0.0000 C   0  0  0  0  0  0  0  0  0  0  0  0
    7.9210   -3.9381    0.0000 C   0  0  0  0  0  0  0  0  0  0  0  0
    7.5124   -3.2290    0.0000 C   0  0  0  0  0  0  0  0  0  0  0  0
    6.6952   -3.2290    0.0000 C   0  0  0  0  0  0  0  0  0  0  0  0
    6.2866   -3.9381    0.0000 C   0  0  0  0  0  0  0  0  0  0  0  0
    6.6952   -4.6472    0.0000 C   0  0  0  0  0  0  0  0  0  0  0  0
    9.2183   -4.5973    0.0000 N   0  0  0  0  0  0  0  0  0  0  0  0
    9.9955   -4.3467    0.0000 N   0  0  0  0  0  0  0  0  0  0  0  0
    9.9955   -3.5295    0.0000 N   0  0  0  0  0  0  0  0  0  0  0  0
    9.2183   -3.2748    0.0000 N   0  0  0  0  0  0  0  0  0  0  0  0
    8.7382   -3.9381    0.0000 C   0  0  0  0  0  0  0  0  0  0  0  0
   10.6547   -4.8269    0.0000 C   0  0  0  0  0  0  0  0  0  0  0  0
   10.5707   -5.6414    0.0000 C   0  0  0  0  0  0  0  0  0  0  0  0
   11.2298   -6.1174    0.0000 C   0  0  0  0  0  0  0  0  0  0  0  0
   11.9771   -5.7871    0.0000 C   0  0  0  0  0  0  0  0  0  0  0  0
   12.0611   -4.9767    0.0000 C   0  0  0  0  0  0  0  0  0  0  0  0
   11.4020   -4.4925    0.0000 C   0  0  0  0  0  0  0  0  0  0  0  0
   12.6403   -6.2673    0.0000 O   0  0  0  0  0  0  0  0  0  0  0  0
   13.3835   -5.9370    0.0000 C   0  0  0  0  0  0  0  0  0  0  0  0
   11.1458   -6.9319    0.0000 O   0  0  0  0  0  0  0  0  0  0  0  0
   11.8049   -7.4121    0.0000 C   0  0  0  0  0  0  0  0  0  0  0  0
    4.2397   -6.0587    0.0000 C   0  0  0  0  0  0  0  0  0  0  0  0
    3.4962   -6.0596    0.0000 F   0  0  0  0  0  0  0  0  0  0  0  0
    3.6994   -5.3974    0.0000 F   0  0  0  0  0  0  0  0  0  0  0  0
    3.7010   -6.7213    0.0000 F   0  0  0  0  0  0  0  0  0  0  0  0
  1  2  1  0
  2  3  2  0
  3  4  1  0
  4  5  2  0
  5  6  1  0
  6  7  2  0
  2  7  1  0
  1  8  2  0
  1  9  1  0
 10 11  1  0
 11 12  2  0
 12 13  1  0
 13 14  2  0
 14 15  1  0
 10 15  2  0
 16 17  1  0
 17 18  1  0
 18 19  2  0
 19 20  1  0
 16 20  2  0
 21 22  2  0
 22 23  1  0
 23 24  2  0
 24 25  1  0
 25 26  2  0
 21 26  1  0
 27 28  1  0
 24 27  1  0
 29 30  1  0
 23 29  1  0
 17 21  1  0
 11 20  1  0
  9 10  1  0
 31 32  1  0
 31 33  1  0
 31 34  1  0
  5 31  1  0
M  END
>  <Classification>  (404) 
1

>  <pchembl>  (404) 
6.48

>  <InChI_steorem>  (404) 
InChI=1S/C23H18F3N5O3/c1-33-19-12-11-16(13-20(19)34-2)31-29-21(28-30-31)17-5-3-4-6-18(17)27-22(32)14-7-9-15(10-8-14)23(24,25)26/h3-13H,1-2H3,(H,27,32)

>  <source>  (404) 
ChEMBL25

>  <source_id>  (404) 
25

>  <optional_reference>  (404) 
10.1016/j.ejmech.2016.09.010

>  <optional_origin>  (404) 
None

>  <target>  (404) 
BCRP

$$$$

     RDKit          2D

 31 34  0  0  0  0  0  0  0  0999 V2000
   10.4295   -9.5250    0.0000 C   0  0  0  0  0  0  0  0  0  0  0  0
    9.6123   -9.5250    0.0000 C   0  0  0  0  0  0  0  0  0  0  0  0
    9.2037  -10.2341    0.0000 C   0  0  0  0  0  0  0  0  0  0  0  0
    8.3865  -10.2341    0.0000 C   0  0  0  0  0  0  0  0  0  0  0  0
    7.9779   -9.5250    0.0000 C   0  0  0  0  0  0  0  0  0  0  0  0
    8.3865   -8.8159    0.0000 C   0  0  0  0  0  0  0  0  0  0  0  0
    9.2037   -8.8159    0.0000 C   0  0  0  0  0  0  0  0  0  0  0  0
   10.8381   -8.8159    0.0000 O   0  0  0  0  0  0  0  0  0  0  0  0
   10.8381  -10.2341    0.0000 N   0  0  0  0  0  0  0  0  0  0  0  0
    7.9779  -10.9390    0.0000 N   0  0  0  0  0  0  0  0  0  0  0  0
    8.3865  -11.6481    0.0000 O   0  0  0  0  0  0  0  0  0  0  0  0
    7.1607  -10.9390    0.0000 O   0  0  0  0  0  0  0  0  0  0  0  0
   10.4295  -10.9390    0.0000 C   0  0  0  0  0  0  0  0  0  0  0  0
   10.8381  -11.6481    0.0000 C   0  0  0  0  0  0  0  0  0  0  0  0
   10.4295  -12.3572    0.0000 C   0  0  0  0  0  0  0  0  0  0  0  0
    9.6123  -12.3572    0.0000 C   0  0  0  0  0  0  0  0  0  0  0  0
    9.2037  -11.6481    0.0000 C   0  0  0  0  0  0  0  0  0  0  0  0
    9.6123  -10.9390    0.0000 C   0  0  0  0  0  0  0  0  0  0  0  0
   12.1354  -10.9890    0.0000 N   0  0  0  0  0  0  0  0  0  0  0  0
   12.9126  -11.2395    0.0000 N   0  0  0  0  0  0  0  0  0  0  0  0
   12.9126  -12.0567    0.0000 N   0  0  0  0  0  0  0  0  0  0  0  0
   12.1354  -12.3114    0.0000 N   0  0  0  0  0  0  0  0  0  0  0  0
   11.6553  -11.6481    0.0000 C   0  0  0  0  0  0  0  0  0  0  0  0
   13.5718  -10.7594    0.0000 C   0  0  0  0  0  0  0  0  0  0  0  0
   13.4878   -9.9490    0.0000 C   0  0  0  0  0  0  0  0  0  0  0  0
   14.1469   -9.4647    0.0000 C   0  0  0  0  0  0  0  0  0  0  0  0
   14.8942   -9.7991    0.0000 C   0  0  0  0  0  0  0  0  0  0  0  0
   14.9782  -10.6136    0.0000 C   0  0  0  0  0  0  0  0  0  0  0  0
   14.3191  -11.0938    0.0000 C   0  0  0  0  0  0  0  0  0  0  0  0
   15.5575   -9.3190    0.0000 O   0  0  0  0  0  0  0  0  0  0  0  0
   16.3006   -9.6533    0.0000 C   0  0  0  0  0  0  0  0  0  0  0  0
  1  2  1  0
  2  3  2  0
  3  4  1  0
  4  5  2  0
  5  6  1  0
  6  7  2  0
  2  7  1  0
  1  8  2  0
  1  9  1  0
 10 11  2  0
 10 12  1  0
  4 10  1  0
 13 14  1  0
 14 15  2  0
 15 16  1  0
 16 17  2  0
 17 18  1  0
 13 18  2  0
 19 20  1  0
 20 21  1  0
 21 22  2  0
 22 23  1  0
 19 23  2  0
 24 25  2  0
 25 26  1  0
 26 27  2  0
 27 28  1  0
 28 29  2  0
 24 29  1  0
 30 31  1  0
 27 30  1  0
 20 24  1  0
 14 23  1  0
  9 13  1  0
M  CHG  2  10   1  12  -1
M  END
>  <Classification>  (405) 
1

>  <pchembl>  (405) 
6.78

>  <InChI_steorem>  (405) 
InChI=1S/C21H16N6O4/c1-31-17-11-9-15(10-12-17)26-24-20(23-25-26)18-7-2-3-8-19(18)22-21(28)14-5-4-6-16(13-14)27(29)30/h2-13H,1H3,(H,22,28)

>  <source>  (405) 
ChEMBL25

>  <source_id>  (405) 
25

>  <optional_reference>  (405) 
10.1016/j.ejmech.2016.09.010

>  <optional_origin>  (405) 
None

>  <target>  (405) 
BCRP

$$$$

     RDKit          2D

 29 32  0  0  0  0  0  0  0  0999 V2000
   10.2218   -8.3953    0.0000 C   0  0  0  0  0  0  0  0  0  0  0  0
   11.0390   -8.3953    0.0000 C   0  0  0  0  0  0  0  0  0  0  0  0
   11.4476   -7.6862    0.0000 C   0  0  0  0  0  0  0  0  0  0  0  0
   12.2648   -7.6862    0.0000 C   0  0  0  0  0  0  0  0  0  0  0  0
   12.6734   -8.3953    0.0000 C   0  0  0  0  0  0  0  0  0  0  0  0
   12.2648   -9.1044    0.0000 C   0  0  0  0  0  0  0  0  0  0  0  0
   11.4476   -9.1044    0.0000 C   0  0  0  0  0  0  0  0  0  0  0  0
    9.8132   -9.1044    0.0000 O   0  0  0  0  0  0  0  0  0  0  0  0
    9.8132   -7.6862    0.0000 N   0  0  0  0  0  0  0  0  0  0  0  0
   10.2218   -6.9812    0.0000 C   0  0  0  0  0  0  0  0  0  0  0  0
    9.8132   -6.2721    0.0000 C   0  0  0  0  0  0  0  0  0  0  0  0
   10.2218   -5.5630    0.0000 C   0  0  0  0  0  0  0  0  0  0  0  0
   11.0390   -5.5630    0.0000 C   0  0  0  0  0  0  0  0  0  0  0  0
   11.4476   -6.2721    0.0000 C   0  0  0  0  0  0  0  0  0  0  0  0
   11.0390   -6.9812    0.0000 C   0  0  0  0  0  0  0  0  0  0  0  0
    8.5158   -6.9313    0.0000 N   0  0  0  0  0  0  0  0  0  0  0  0
    7.7386   -6.6807    0.0000 N   0  0  0  0  0  0  0  0  0  0  0  0
    7.7386   -5.8635    0.0000 N   0  0  0  0  0  0  0  0  0  0  0  0
    8.5158   -5.6130    0.0000 N   0  0  0  0  0  0  0  0  0  0  0  0
    8.9960   -6.2721    0.0000 C   0  0  0  0  0  0  0  0  0  0  0  0
    7.0795   -7.1609    0.0000 C   0  0  0  0  0  0  0  0  0  0  0  0
    7.1635   -7.9754    0.0000 C   0  0  0  0  0  0  0  0  0  0  0  0
    6.5044   -8.4555    0.0000 C   0  0  0  0  0  0  0  0  0  0  0  0
    5.7571   -8.1212    0.0000 C   0  0  0  0  0  0  0  0  0  0  0  0
    5.6731   -7.3066    0.0000 C   0  0  0  0  0  0  0  0  0  0  0  0
    6.3322   -6.8265    0.0000 C   0  0  0  0  0  0  0  0  0  0  0  0
   12.6770   -9.8135    0.0000 N   0  0  0  0  0  0  0  0  0  0  0  0
   13.4942   -9.8132    0.0000 O   0  0  0  0  0  0  0  0  0  0  0  0
   12.2687  -10.5214    0.0000 O   0  0  0  0  0  0  0  0  0  0  0  0
  1  2  1  0
  2  3  2  0
  3  4  1  0
  4  5  2  0
  5  6  1  0
  6  7  2  0
  2  7  1  0
  1  8  2  0
  1  9  1  0
 10 11  1  0
 11 12  2  0
 12 13  1  0
 13 14  2  0
 14 15  1  0
 10 15  2  0
 16 17  1  0
 17 18  1  0
 18 19  2  0
 19 20  1  0
 16 20  2  0
 21 22  2  0
 22 23  1  0
 23 24  2  0
 24 25  1  0
 25 26  2  0
 21 26  1  0
 17 21  1  0
 11 20  1  0
  9 10  1  0
 27 28  2  0
 27 29  1  0
  6 27  1  0
M  CHG  2  27   1  29  -1
M  END
>  <Classification>  (406) 
1

>  <pchembl>  (406) 
6.9

>  <InChI_steorem>  (406) 
InChI=1S/C20H14N6O3/c27-20(14-7-6-10-16(13-14)26(28)29)21-18-12-5-4-11-17(18)19-22-24-25(23-19)15-8-2-1-3-9-15/h1-13H,(H,21,27)

>  <source>  (406) 
ChEMBL25

>  <source_id>  (406) 
25

>  <optional_reference>  (406) 
10.1016/j.ejmech.2016.09.010

>  <optional_origin>  (406) 
None

>  <target>  (406) 
BCRP

$$$$

     RDKit          2D

 29 32  0  0  0  0  0  0  0  0999 V2000
   10.2837   -8.4572    0.0000 C   0  0  0  0  0  0  0  0  0  0  0  0
   11.1009   -8.4572    0.0000 C   0  0  0  0  0  0  0  0  0  0  0  0
   11.5095   -7.7481    0.0000 C   0  0  0  0  0  0  0  0  0  0  0  0
   12.3267   -7.7481    0.0000 C   0  0  0  0  0  0  0  0  0  0  0  0
   12.7353   -8.4572    0.0000 C   0  0  0  0  0  0  0  0  0  0  0  0
   12.3267   -9.1663    0.0000 C   0  0  0  0  0  0  0  0  0  0  0  0
   11.5095   -9.1663    0.0000 C   0  0  0  0  0  0  0  0  0  0  0  0
    9.8751   -9.1663    0.0000 O   0  0  0  0  0  0  0  0  0  0  0  0
    9.8751   -7.7481    0.0000 N   0  0  0  0  0  0  0  0  0  0  0  0
   10.2837   -7.0431    0.0000 C   0  0  0  0  0  0  0  0  0  0  0  0
    9.8751   -6.3340    0.0000 C   0  0  0  0  0  0  0  0  0  0  0  0
   10.2837   -5.6249    0.0000 C   0  0  0  0  0  0  0  0  0  0  0  0
   11.1009   -5.6249    0.0000 C   0  0  0  0  0  0  0  0  0  0  0  0
   11.5095   -6.3340    0.0000 C   0  0  0  0  0  0  0  0  0  0  0  0
   11.1009   -7.0431    0.0000 C   0  0  0  0  0  0  0  0  0  0  0  0
    8.5778   -6.9932    0.0000 N   0  0  0  0  0  0  0  0  0  0  0  0
    7.8005   -6.7426    0.0000 N   0  0  0  0  0  0  0  0  0  0  0  0
    7.8005   -5.9254    0.0000 N   0  0  0  0  0  0  0  0  0  0  0  0
    8.5778   -5.6749    0.0000 N   0  0  0  0  0  0  0  0  0  0  0  0
    9.0579   -6.3340    0.0000 C   0  0  0  0  0  0  0  0  0  0  0  0
    7.1414   -7.2228    0.0000 C   0  0  0  0  0  0  0  0  0  0  0  0
    7.2254   -8.0373    0.0000 C   0  0  0  0  0  0  0  0  0  0  0  0
    6.5663   -8.5175    0.0000 C   0  0  0  0  0  0  0  0  0  0  0  0
    5.8190   -8.1831    0.0000 C   0  0  0  0  0  0  0  0  0  0  0  0
    5.7350   -7.3685    0.0000 C   0  0  0  0  0  0  0  0  0  0  0  0
    6.3941   -6.8884    0.0000 C   0  0  0  0  0  0  0  0  0  0  0  0
   13.5525   -8.4572    0.0000 N   0  0  0  0  0  0  0  0  0  0  0  0
   13.9610   -7.7481    0.0000 O   0  0  0  0  0  0  0  0  0  0  0  0
   13.9610   -9.1663    0.0000 O   0  0  0  0  0  0  0  0  0  0  0  0
  1  2  1  0
  2  3  2  0
  3  4  1  0
  4  5  2  0
  5  6  1  0
  6  7  2  0
  2  7  1  0
  1  8  2  0
  1  9  1  0
 10 11  1  0
 11 12  2  0
 12 13  1  0
 13 14  2  0
 14 15  1  0
 10 15  2  0
 16 17  1  0
 17 18  1  0
 18 19  2  0
 19 20  1  0
 16 20  2  0
 21 22  2  0
 22 23  1  0
 23 24  2  0
 24 25  1  0
 25 26  2  0
 21 26  1  0
 17 21  1  0
 11 20  1  0
  9 10  1  0
 27 28  2  0
 27 29  1  0
  5 27  1  0
M  CHG  2  27   1  29  -1
M  END
>  <Classification>  (407) 
1

>  <pchembl>  (407) 
6.82

>  <InChI_steorem>  (407) 
InChI=1S/C20H14N6O3/c27-20(14-10-12-16(13-11-14)26(28)29)21-18-9-5-4-8-17(18)19-22-24-25(23-19)15-6-2-1-3-7-15/h1-13H,(H,21,27)

>  <source>  (407) 
ChEMBL25

>  <source_id>  (407) 
25

>  <optional_reference>  (407) 
10.1016/j.ejmech.2016.09.010

>  <optional_origin>  (407) 
None

>  <target>  (407) 
BCRP

$$$$

     RDKit          2D

 30 33  0  0  0  0  0  0  0  0999 V2000
   10.0028  -11.3586    0.0000 C   0  0  0  0  0  0  0  0  0  0  0  0
    9.1856  -11.3586    0.0000 C   0  0  0  0  0  0  0  0  0  0  0  0
    8.7770  -10.6495    0.0000 C   0  0  0  0  0  0  0  0  0  0  0  0
    7.9598  -10.6495    0.0000 C   0  0  0  0  0  0  0  0  0  0  0  0
    7.5512  -11.3586    0.0000 C   0  0  0  0  0  0  0  0  0  0  0  0
    7.9598  -12.0635    0.0000 C   0  0  0  0  0  0  0  0  0  0  0  0
    8.7770  -12.0635    0.0000 C   0  0  0  0  0  0  0  0  0  0  0  0
   10.4114  -12.0635    0.0000 O   0  0  0  0  0  0  0  0  0  0  0  0
   10.4114  -10.6495    0.0000 N   0  0  0  0  0  0  0  0  0  0  0  0
   10.0028   -9.9404    0.0000 C   0  0  0  0  0  0  0  0  0  0  0  0
   10.4114   -9.2354    0.0000 C   0  0  0  0  0  0  0  0  0  0  0  0
   10.0028   -8.5263    0.0000 C   0  0  0  0  0  0  0  0  0  0  0  0
    9.1856   -8.5263    0.0000 C   0  0  0  0  0  0  0  0  0  0  0  0
    8.7770   -9.2354    0.0000 C   0  0  0  0  0  0  0  0  0  0  0  0
    9.1856   -9.9404    0.0000 C   0  0  0  0  0  0  0  0  0  0  0  0
   11.7087   -9.8945    0.0000 N   0  0  0  0  0  0  0  0  0  0  0  0
   12.4859   -9.6440    0.0000 N   0  0  0  0  0  0  0  0  0  0  0  0
   12.4859   -8.8268    0.0000 N   0  0  0  0  0  0  0  0  0  0  0  0
   11.7087   -8.5721    0.0000 N   0  0  0  0  0  0  0  0  0  0  0  0
   11.2285   -9.2354    0.0000 C   0  0  0  0  0  0  0  0  0  0  0  0
   13.1492  -10.1241    0.0000 C   0  0  0  0  0  0  0  0  0  0  0  0
   13.0610  -10.9346    0.0000 C   0  0  0  0  0  0  0  0  0  0  0  0
   13.7202  -11.4147    0.0000 C   0  0  0  0  0  0  0  0  0  0  0  0
   14.4675  -11.0844    0.0000 C   0  0  0  0  0  0  0  0  0  0  0  0
   14.5556  -10.2699    0.0000 C   0  0  0  0  0  0  0  0  0  0  0  0
   13.8923   -9.7898    0.0000 C   0  0  0  0  0  0  0  0  0  0  0  0
   15.1307  -11.5646    0.0000 O   0  0  0  0  0  0  0  0  0  0  0  0
   15.8739  -11.2343    0.0000 C   0  0  0  0  0  0  0  0  0  0  0  0
   13.6361  -12.2292    0.0000 O   0  0  0  0  0  0  0  0  0  0  0  0
   14.2994  -12.7094    0.0000 C   0  0  0  0  0  0  0  0  0  0  0  0
  1  2  1  0
  2  3  2  0
  3  4  1  0
  4  5  2  0
  5  6  1  0
  6  7  2  0
  2  7  1  0
  1  8  2  0
  1  9  1  0
 10 11  1  0
 11 12  2  0
 12 13  1  0
 13 14  2  0
 14 15  1  0
 10 15  2  0
 16 17  1  0
 17 18  1  0
 18 19  2  0
 19 20  1  0
 16 20  2  0
 21 22  2  0
 22 23  1  0
 23 24  2  0
 24 25  1  0
 25 26  2  0
 21 26  1  0
 27 28  1  0
 24 27  1  0
 29 30  1  0
 23 29  1  0
 17 21  1  0
 11 20  1  0
  9 10  1  0
M  END
>  <Classification>  (408) 
1

>  <pchembl>  (408) 
6.64

>  <InChI_steorem>  (408) 
InChI=1S/C22H19N5O3/c1-29-19-13-12-16(14-20(19)30-2)27-25-21(24-26-27)17-10-6-7-11-18(17)23-22(28)15-8-4-3-5-9-15/h3-14H,1-2H3,(H,23,28)

>  <source>  (408) 
ChEMBL25

>  <source_id>  (408) 
25

>  <optional_reference>  (408) 
10.1016/j.ejmech.2016.09.010

>  <optional_origin>  (408) 
None

>  <target>  (408) 
BCRP

$$$$

     RDKit          2D

 31 34  0  0  0  0  0  0  0  0999 V2000
   10.6147  -11.5227    0.0000 C   0  0  0  0  0  0  0  0  0  0  0  0
    9.7975  -11.5227    0.0000 C   0  0  0  0  0  0  0  0  0  0  0  0
    9.3889  -10.8136    0.0000 C   0  0  0  0  0  0  0  0  0  0  0  0
    8.5718  -10.8136    0.0000 C   0  0  0  0  0  0  0  0  0  0  0  0
    8.1632  -11.5227    0.0000 C   0  0  0  0  0  0  0  0  0  0  0  0
    8.5718  -12.2318    0.0000 C   0  0  0  0  0  0  0  0  0  0  0  0
    9.3889  -12.2318    0.0000 C   0  0  0  0  0  0  0  0  0  0  0  0
   11.0233  -12.2318    0.0000 O   0  0  0  0  0  0  0  0  0  0  0  0
   11.0233  -10.8136    0.0000 N   0  0  0  0  0  0  0  0  0  0  0  0
    7.3460  -11.5227    0.0000 O   0  0  0  0  0  0  0  0  0  0  0  0
    6.9374  -12.2318    0.0000 C   0  0  0  0  0  0  0  0  0  0  0  0
   10.6147  -10.1086    0.0000 C   0  0  0  0  0  0  0  0  0  0  0  0
   11.0233   -9.3996    0.0000 C   0  0  0  0  0  0  0  0  0  0  0  0
   10.6147   -8.6905    0.0000 C   0  0  0  0  0  0  0  0  0  0  0  0
    9.7975   -8.6905    0.0000 C   0  0  0  0  0  0  0  0  0  0  0  0
    9.3889   -9.3996    0.0000 C   0  0  0  0  0  0  0  0  0  0  0  0
    9.7975  -10.1086    0.0000 C   0  0  0  0  0  0  0  0  0  0  0  0
   12.3207  -10.0587    0.0000 N   0  0  0  0  0  0  0  0  0  0  0  0
   13.0979   -9.8082    0.0000 N   0  0  0  0  0  0  0  0  0  0  0  0
   13.0979   -8.9910    0.0000 N   0  0  0  0  0  0  0  0  0  0  0  0
   12.3207   -8.7404    0.0000 N   0  0  0  0  0  0  0  0  0  0  0  0
   11.8405   -9.3996    0.0000 C   0  0  0  0  0  0  0  0  0  0  0  0
   13.7612  -10.2883    0.0000 C   0  0  0  0  0  0  0  0  0  0  0  0
   13.6771  -11.0987    0.0000 C   0  0  0  0  0  0  0  0  0  0  0  0
   14.3363  -11.5830    0.0000 C   0  0  0  0  0  0  0  0  0  0  0  0
   15.0836  -11.2486    0.0000 C   0  0  0  0  0  0  0  0  0  0  0  0
   15.1676  -10.4340    0.0000 C   0  0  0  0  0  0  0  0  0  0  0  0
   14.5085   -9.9580    0.0000 C   0  0  0  0  0  0  0  0  0  0  0  0
   15.7427  -11.7287    0.0000 C   0  0  0  0  0  0  0  0  0  0  0  0
   15.6587  -12.5433    0.0000 C   0  0  0  0  0  0  0  0  0  0  0  0
   16.4900  -11.3985    0.0000 C   0  0  0  0  0  0  0  0  0  0  0  0
  1  2  1  0
  2  3  2  0
  3  4  1  0
  4  5  2  0
  5  6  1  0
  6  7  2  0
  2  7  1  0
  1  8  2  0
  1  9  1  0
 10 11  1  0
  5 10  1  0
 12 13  1  0
 13 14  2  0
 14 15  1  0
 15 16  2  0
 16 17  1  0
 12 17  2  0
 18 19  1  0
 19 20  1  0
 20 21  2  0
 21 22  1  0
 18 22  2  0
 23 24  2  0
 24 25  1  0
 25 26  2  0
 26 27  1  0
 27 28  2  0
 23 28  1  0
 29 30  1  0
 29 31  1  0
 26 29  1  0
 19 23  1  0
 13 22  1  0
  9 12  1  0
M  END
>  <Classification>  (409) 
1

>  <pchembl>  (409) 
6.87

>  <InChI_steorem>  (409) 
InChI=1S/C24H23N5O2/c1-16(2)17-8-12-19(13-9-17)29-27-23(26-28-29)21-6-4-5-7-22(21)25-24(30)18-10-14-20(31-3)15-11-18/h4-16H,1-3H3,(H,25,30)

>  <source>  (409) 
ChEMBL25

>  <source_id>  (409) 
25

>  <optional_reference>  (409) 
10.1016/j.ejmech.2016.09.010

>  <optional_origin>  (409) 
None

>  <target>  (409) 
BCRP

$$$$

     RDKit          2D

 31 34  0  0  0  0  0  0  0  0999 V2000
    9.9846   -8.9242    0.0000 C   0  0  0  0  0  0  0  0  0  0  0  0
    9.1674   -8.9242    0.0000 C   0  0  0  0  0  0  0  0  0  0  0  0
    8.7588   -8.2151    0.0000 C   0  0  0  0  0  0  0  0  0  0  0  0
    7.9416   -8.2151    0.0000 C   0  0  0  0  0  0  0  0  0  0  0  0
    7.5330   -8.9242    0.0000 C   0  0  0  0  0  0  0  0  0  0  0  0
    7.9416   -9.6333    0.0000 C   0  0  0  0  0  0  0  0  0  0  0  0
    8.7588   -9.6333    0.0000 C   0  0  0  0  0  0  0  0  0  0  0  0
   10.3932   -9.6333    0.0000 O   0  0  0  0  0  0  0  0  0  0  0  0
   10.3932   -8.2151    0.0000 N   0  0  0  0  0  0  0  0  0  0  0  0
    9.9846   -7.5101    0.0000 C   0  0  0  0  0  0  0  0  0  0  0  0
   10.3932   -6.8011    0.0000 C   0  0  0  0  0  0  0  0  0  0  0  0
    9.9846   -6.0920    0.0000 C   0  0  0  0  0  0  0  0  0  0  0  0
    9.1674   -6.0920    0.0000 C   0  0  0  0  0  0  0  0  0  0  0  0
    8.7588   -6.8011    0.0000 C   0  0  0  0  0  0  0  0  0  0  0  0
    9.1674   -7.5101    0.0000 C   0  0  0  0  0  0  0  0  0  0  0  0
   11.6905   -7.4643    0.0000 N   0  0  0  0  0  0  0  0  0  0  0  0
   12.4677   -7.2096    0.0000 N   0  0  0  0  0  0  0  0  0  0  0  0
   12.4677   -6.3925    0.0000 N   0  0  0  0  0  0  0  0  0  0  0  0
   11.6905   -6.1378    0.0000 N   0  0  0  0  0  0  0  0  0  0  0  0
   11.2104   -6.8011    0.0000 C   0  0  0  0  0  0  0  0  0  0  0  0
   13.1269   -7.6898    0.0000 C   0  0  0  0  0  0  0  0  0  0  0  0
   13.0429   -8.5043    0.0000 C   0  0  0  0  0  0  0  0  0  0  0  0
   13.7020   -8.9845    0.0000 C   0  0  0  0  0  0  0  0  0  0  0  0
   14.4493   -8.6501    0.0000 C   0  0  0  0  0  0  0  0  0  0  0  0
   14.5333   -7.8397    0.0000 C   0  0  0  0  0  0  0  0  0  0  0  0
   13.8742   -7.3554    0.0000 C   0  0  0  0  0  0  0  0  0  0  0  0
   15.1126   -9.1302    0.0000 S   0  0  0  0  0  0  0  0  0  0  0  0
   15.8557   -8.8000    0.0000 C   0  0  0  0  0  0  0  0  0  0  0  0
    9.1689  -10.3431    0.0000 N   0  0  0  0  0  0  0  0  0  0  0  0
    9.9861  -10.3428    0.0000 O   0  0  0  0  0  0  0  0  0  0  0  0
    8.7606  -11.0510    0.0000 O   0  0  0  0  0  0  0  0  0  0  0  0
  1  2  1  0
  2  3  2  0
  3  4  1  0
  4  5  2  0
  5  6  1  0
  6  7  2  0
  2  7  1  0
  1  8  2  0
  1  9  1  0
 10 11  1  0
 11 12  2  0
 12 13  1  0
 13 14  2  0
 14 15  1  0
 10 15  2  0
 16 17  1  0
 17 18  1  0
 18 19  2  0
 19 20  1  0
 16 20  2  0
 21 22  2  0
 22 23  1  0
 23 24  2  0
 24 25  1  0
 25 26  2  0
 21 26  1  0
 27 28  1  0
 24 27  1  0
 17 21  1  0
 11 20  1  0
  9 10  1  0
 29 30  2  0
 29 31  1  0
  7 29  1  0
M  CHG  2  29   1  31  -1
M  END
>  <Classification>  (410) 
1

>  <pchembl>  (410) 
6.66

>  <InChI_steorem>  (410) 
InChI=1S/C21H16N6O3S/c1-31-15-12-10-14(11-13-15)26-24-20(23-25-26)16-6-2-4-8-18(16)22-21(28)17-7-3-5-9-19(17)27(29)30/h2-13H,1H3,(H,22,28)

>  <source>  (410) 
ChEMBL25

>  <source_id>  (410) 
25

>  <optional_reference>  (410) 
10.1016/j.ejmech.2016.09.010

>  <optional_origin>  (410) 
None

>  <target>  (410) 
BCRP

$$$$

     RDKit          2D

 29 32  0  0  0  0  0  0  0  0999 V2000
   10.9472  -11.5914    0.0000 C   0  0  0  0  0  0  0  0  0  0  0  0
   10.1300  -11.5996    0.0000 C   0  0  0  0  0  0  0  0  0  0  0  0
    9.7149  -10.8927    0.0000 C   0  0  0  0  0  0  0  0  0  0  0  0
    8.8978  -10.9009    0.0000 C   0  0  0  0  0  0  0  0  0  0  0  0
    8.4958  -11.6120    0.0000 C   0  0  0  0  0  0  0  0  0  0  0  0
    8.9109  -12.3190    0.0000 C   0  0  0  0  0  0  0  0  0  0  0  0
    9.7280  -12.3107    0.0000 C   0  0  0  0  0  0  0  0  0  0  0  0
   11.3623  -12.2943    0.0000 O   0  0  0  0  0  0  0  0  0  0  0  0
   11.3492  -10.8762    0.0000 N   0  0  0  0  0  0  0  0  0  0  0  0
   10.9340  -10.1733    0.0000 C   0  0  0  0  0  0  0  0  0  0  0  0
   11.3360   -9.4623    0.0000 C   0  0  0  0  0  0  0  0  0  0  0  0
   10.9209   -8.7594    0.0000 C   0  0  0  0  0  0  0  0  0  0  0  0
   10.1037   -8.7676    0.0000 C   0  0  0  0  0  0  0  0  0  0  0  0
    9.7017   -9.4787    0.0000 C   0  0  0  0  0  0  0  0  0  0  0  0
   10.1169  -10.1816    0.0000 C   0  0  0  0  0  0  0  0  0  0  0  0
   12.6391  -10.1100    0.0000 N   0  0  0  0  0  0  0  0  0  0  0  0
   13.4125   -9.8477    0.0000 N   0  0  0  0  0  0  0  0  0  0  0  0
   13.4042   -9.0306    0.0000 N   0  0  0  0  0  0  0  0  0  0  0  0
   12.6274   -8.7877    0.0000 N   0  0  0  0  0  0  0  0  0  0  0  0
   12.1531   -9.4540    0.0000 C   0  0  0  0  0  0  0  0  0  0  0  0
   14.0788  -10.3261    0.0000 C   0  0  0  0  0  0  0  0  0  0  0  0
   14.0030  -11.1377    0.0000 C   0  0  0  0  0  0  0  0  0  0  0  0
   14.6693  -11.6119    0.0000 C   0  0  0  0  0  0  0  0  0  0  0  0
   15.4115  -11.2704    0.0000 C   0  0  0  0  0  0  0  0  0  0  0  0
   15.4874  -10.4588    0.0000 C   0  0  0  0  0  0  0  0  0  0  0  0
   14.8210   -9.9845    0.0000 C   0  0  0  0  0  0  0  0  0  0  0  0
   16.0779  -11.7447    0.0000 Cl  0  0  0  0  0  0  0  0  0  0  0  0
    7.6802  -11.6171    0.0000 O   0  0  0  0  0  0  0  0  0  0  0  0
    7.2774  -12.3281    0.0000 C   0  0  0  0  0  0  0  0  0  0  0  0
  1  2  1  0
  2  3  2  0
  3  4  1  0
  4  5  2  0
  5  6  1  0
  6  7  2  0
  2  7  1  0
  1  8  2  0
  1  9  1  0
 10 11  1  0
 11 12  2  0
 12 13  1  0
 13 14  2  0
 14 15  1  0
 10 15  2  0
 16 17  1  0
 17 18  1  0
 18 19  2  0
 19 20  1  0
 16 20  2  0
 21 22  2  0
 22 23  1  0
 23 24  2  0
 24 25  1  0
 25 26  2  0
 21 26  1  0
 24 27  1  0
 17 21  1  0
 11 20  1  0
  9 10  1  0
 28 29  1  0
  5 28  1  0
M  END
>  <Classification>  (411) 
1

>  <pchembl>  (411) 
6.65

>  <InChI_steorem>  (411) 
InChI=1S/C21H16ClN5O2/c1-29-17-12-6-14(7-13-17)21(28)23-19-5-3-2-4-18(19)20-24-26-27(25-20)16-10-8-15(22)9-11-16/h2-13H,1H3,(H,23,28)

>  <source>  (411) 
ChEMBL25

>  <source_id>  (411) 
25

>  <optional_reference>  (411) 
10.1016/j.ejmech.2016.09.010

>  <optional_origin>  (411) 
None

>  <target>  (411) 
BCRP

$$$$

     RDKit          2D

 30 33  0  0  0  0  0  0  0  0999 V2000
   11.2775   -9.5229    0.0000 C   0  0  0  0  0  0  0  0  0  0  0  0
   10.4603   -9.5229    0.0000 C   0  0  0  0  0  0  0  0  0  0  0  0
   10.0517  -10.2320    0.0000 C   0  0  0  0  0  0  0  0  0  0  0  0
    9.2345  -10.2320    0.0000 C   0  0  0  0  0  0  0  0  0  0  0  0
    8.8259   -9.5229    0.0000 C   0  0  0  0  0  0  0  0  0  0  0  0
    9.2345   -8.8180    0.0000 C   0  0  0  0  0  0  0  0  0  0  0  0
   10.0517   -8.8180    0.0000 C   0  0  0  0  0  0  0  0  0  0  0  0
   11.6861   -8.8180    0.0000 O   0  0  0  0  0  0  0  0  0  0  0  0
   11.6861  -10.2320    0.0000 N   0  0  0  0  0  0  0  0  0  0  0  0
   11.2775  -10.9411    0.0000 C   0  0  0  0  0  0  0  0  0  0  0  0
   11.6861  -11.6461    0.0000 C   0  0  0  0  0  0  0  0  0  0  0  0
   11.2775  -12.3552    0.0000 C   0  0  0  0  0  0  0  0  0  0  0  0
   10.4603  -12.3552    0.0000 C   0  0  0  0  0  0  0  0  0  0  0  0
   10.0517  -11.6461    0.0000 C   0  0  0  0  0  0  0  0  0  0  0  0
   10.4603  -10.9411    0.0000 C   0  0  0  0  0  0  0  0  0  0  0  0
   12.9834  -10.9869    0.0000 N   0  0  0  0  0  0  0  0  0  0  0  0
   13.7607  -11.2375    0.0000 N   0  0  0  0  0  0  0  0  0  0  0  0
   13.7607  -12.0547    0.0000 N   0  0  0  0  0  0  0  0  0  0  0  0
   12.9834  -12.3093    0.0000 N   0  0  0  0  0  0  0  0  0  0  0  0
   12.5033  -11.6461    0.0000 C   0  0  0  0  0  0  0  0  0  0  0  0
   14.4198  -10.7573    0.0000 C   0  0  0  0  0  0  0  0  0  0  0  0
   14.3358   -9.9469    0.0000 C   0  0  0  0  0  0  0  0  0  0  0  0
   14.9949   -9.4668    0.0000 C   0  0  0  0  0  0  0  0  0  0  0  0
   15.7422   -9.7970    0.0000 C   0  0  0  0  0  0  0  0  0  0  0  0
   15.8304  -10.6116    0.0000 C   0  0  0  0  0  0  0  0  0  0  0  0
   15.1671  -11.0917    0.0000 C   0  0  0  0  0  0  0  0  0  0  0  0
    8.0087   -9.5229    0.0000 O   0  0  0  0  0  0  0  0  0  0  0  0
    7.6001   -8.8180    0.0000 C   0  0  0  0  0  0  0  0  0  0  0  0
    8.8259  -10.9411    0.0000 O   0  0  0  0  0  0  0  0  0  0  0  0
    8.0087  -10.9411    0.0000 C   0  0  0  0  0  0  0  0  0  0  0  0
  1  2  1  0
  2  3  2  0
  3  4  1  0
  4  5  2  0
  5  6  1  0
  6  7  2  0
  2  7  1  0
  1  8  2  0
  1  9  1  0
 10 11  1  0
 11 12  2  0
 12 13  1  0
 13 14  2  0
 14 15  1  0
 10 15  2  0
 16 17  1  0
 17 18  1  0
 18 19  2  0
 19 20  1  0
 16 20  2  0
 21 22  2  0
 22 23  1  0
 23 24  2  0
 24 25  1  0
 25 26  2  0
 21 26  1  0
 17 21  1  0
 11 20  1  0
  9 10  1  0
 27 28  1  0
  5 27  1  0
 29 30  1  0
  4 29  1  0
M  END
>  <Classification>  (412) 
1

>  <pchembl>  (412) 
6.08

>  <InChI_steorem>  (412) 
InChI=1S/C22H19N5O3/c1-29-19-13-12-15(14-20(19)30-2)22(28)23-18-11-7-6-10-17(18)21-24-26-27(25-21)16-8-4-3-5-9-16/h3-14H,1-2H3,(H,23,28)

>  <source>  (412) 
ChEMBL25

>  <source_id>  (412) 
25

>  <optional_reference>  (412) 
10.1016/j.ejmech.2016.09.010

>  <optional_origin>  (412) 
None

>  <target>  (412) 
BCRP

$$$$

     RDKit          2D

 30 33  0  0  0  0  0  0  0  0999 V2000
    9.9846   -8.9242    0.0000 C   0  0  0  0  0  0  0  0  0  0  0  0
    9.1674   -8.9242    0.0000 C   0  0  0  0  0  0  0  0  0  0  0  0
    8.7588   -8.2151    0.0000 C   0  0  0  0  0  0  0  0  0  0  0  0
    7.9416   -8.2151    0.0000 C   0  0  0  0  0  0  0  0  0  0  0  0
    7.5330   -8.9242    0.0000 C   0  0  0  0  0  0  0  0  0  0  0  0
    7.9416   -9.6333    0.0000 C   0  0  0  0  0  0  0  0  0  0  0  0
    8.7588   -9.6333    0.0000 C   0  0  0  0  0  0  0  0  0  0  0  0
   10.3932   -9.6333    0.0000 O   0  0  0  0  0  0  0  0  0  0  0  0
   10.3932   -8.2151    0.0000 N   0  0  0  0  0  0  0  0  0  0  0  0
    9.9846   -7.5101    0.0000 C   0  0  0  0  0  0  0  0  0  0  0  0
   10.3932   -6.8011    0.0000 C   0  0  0  0  0  0  0  0  0  0  0  0
    9.9846   -6.0920    0.0000 C   0  0  0  0  0  0  0  0  0  0  0  0
    9.1674   -6.0920    0.0000 C   0  0  0  0  0  0  0  0  0  0  0  0
    8.7588   -6.8011    0.0000 C   0  0  0  0  0  0  0  0  0  0  0  0
    9.1674   -7.5101    0.0000 C   0  0  0  0  0  0  0  0  0  0  0  0
   11.6905   -7.4643    0.0000 N   0  0  0  0  0  0  0  0  0  0  0  0
   12.4677   -7.2096    0.0000 N   0  0  0  0  0  0  0  0  0  0  0  0
   12.4677   -6.3925    0.0000 N   0  0  0  0  0  0  0  0  0  0  0  0
   11.6905   -6.1378    0.0000 N   0  0  0  0  0  0  0  0  0  0  0  0
   11.2104   -6.8011    0.0000 C   0  0  0  0  0  0  0  0  0  0  0  0
   13.1269   -7.6898    0.0000 C   0  0  0  0  0  0  0  0  0  0  0  0
   13.0429   -8.5043    0.0000 C   0  0  0  0  0  0  0  0  0  0  0  0
   13.7020   -8.9845    0.0000 C   0  0  0  0  0  0  0  0  0  0  0  0
   14.4493   -8.6501    0.0000 C   0  0  0  0  0  0  0  0  0  0  0  0
   14.5333   -7.8397    0.0000 C   0  0  0  0  0  0  0  0  0  0  0  0
   13.8742   -7.3554    0.0000 C   0  0  0  0  0  0  0  0  0  0  0  0
   15.1126   -9.1302    0.0000 S   0  0  0  0  0  0  0  0  0  0  0  0
   15.8557   -8.8000    0.0000 C   0  0  0  0  0  0  0  0  0  0  0  0
    6.7173   -8.9240    0.0000 O   0  0  0  0  0  0  0  0  0  0  0  0
    6.3088   -9.6317    0.0000 C   0  0  0  0  0  0  0  0  0  0  0  0
  1  2  1  0
  2  3  2  0
  3  4  1  0
  4  5  2  0
  5  6  1  0
  6  7  2  0
  2  7  1  0
  1  8  2  0
  1  9  1  0
 10 11  1  0
 11 12  2  0
 12 13  1  0
 13 14  2  0
 14 15  1  0
 10 15  2  0
 16 17  1  0
 17 18  1  0
 18 19  2  0
 19 20  1  0
 16 20  2  0
 21 22  2  0
 22 23  1  0
 23 24  2  0
 24 25  1  0
 25 26  2  0
 21 26  1  0
 27 28  1  0
 24 27  1  0
 17 21  1  0
 11 20  1  0
  9 10  1  0
 29 30  1  0
  5 29  1  0
M  END
>  <Classification>  (413) 
1

>  <pchembl>  (413) 
6.88

>  <InChI_steorem>  (413) 
InChI=1S/C22H19N5O2S/c1-29-17-11-7-15(8-12-17)22(28)23-20-6-4-3-5-19(20)21-24-26-27(25-21)16-9-13-18(30-2)14-10-16/h3-14H,1-2H3,(H,23,28)

>  <source>  (413) 
ChEMBL25

>  <source_id>  (413) 
25

>  <optional_reference>  (413) 
10.1016/j.ejmech.2016.09.010

>  <optional_origin>  (413) 
None

>  <target>  (413) 
BCRP

$$$$

     RDKit          2D

 30 33  0  0  0  0  0  0  0  0999 V2000
   10.9099  -10.5988    0.0000 C   0  0  0  0  0  0  0  0  0  0  0  0
   10.2004  -11.0067    0.0000 C   0  0  0  0  0  0  0  0  0  0  0  0
   10.1995  -11.8239    0.0000 C   0  0  0  0  0  0  0  0  0  0  0  0
    9.4900  -12.2317    0.0000 C   0  0  0  0  0  0  0  0  0  0  0  0
    8.7855  -11.8224    0.0000 C   0  0  0  0  0  0  0  0  0  0  0  0
    8.7863  -11.0052    0.0000 C   0  0  0  0  0  0  0  0  0  0  0  0
    9.4917  -10.5974    0.0000 C   0  0  0  0  0  0  0  0  0  0  0  0
   10.9107   -9.7816    0.0000 O   0  0  0  0  0  0  0  0  0  0  0  0
   11.6144  -11.0081    0.0000 N   0  0  0  0  0  0  0  0  0  0  0  0
   11.6177  -11.8253    0.0000 C   0  0  0  0  0  0  0  0  0  0  0  0
   12.3223  -12.2346    0.0000 C   0  0  0  0  0  0  0  0  0  0  0  0
   12.3214  -13.0518    0.0000 C   0  0  0  0  0  0  0  0  0  0  0  0
   11.6161  -13.4597    0.0000 C   0  0  0  0  0  0  0  0  0  0  0  0
   10.9074  -13.0504    0.0000 C   0  0  0  0  0  0  0  0  0  0  0  0
   10.9082  -12.2332    0.0000 C   0  0  0  0  0  0  0  0  0  0  0  0
   13.1166  -11.0123    0.0000 N   0  0  0  0  0  0  0  0  0  0  0  0
   13.9152  -10.8423    0.0000 N   0  0  0  0  0  0  0  0  0  0  0  0
   14.3230  -11.5518    0.0000 N   0  0  0  0  0  0  0  0  0  0  0  0
   13.7787  -12.1619    0.0000 N   0  0  0  0  0  0  0  0  0  0  0  0
   13.0318  -11.8267    0.0000 C   0  0  0  0  0  0  0  0  0  0  0  0
   14.2503  -10.0995    0.0000 C   0  0  0  0  0  0  0  0  0  0  0  0
   13.7708   -9.4357    0.0000 C   0  0  0  0  0  0  0  0  0  0  0  0
   14.1019   -8.6888    0.0000 C   0  0  0  0  0  0  0  0  0  0  0  0
   14.9165   -8.6056    0.0000 C   0  0  0  0  0  0  0  0  0  0  0  0
   15.3960   -9.2693    0.0000 C   0  0  0  0  0  0  0  0  0  0  0  0
   15.0608  -10.0122    0.0000 C   0  0  0  0  0  0  0  0  0  0  0  0
   15.2475   -7.8586    0.0000 O   0  0  0  0  0  0  0  0  0  0  0  0
   16.0621   -7.7754    0.0000 C   0  0  0  0  0  0  0  0  0  0  0  0
    8.0760  -12.2303    0.0000 O   0  0  0  0  0  0  0  0  0  0  0  0
    7.3673  -11.8210    0.0000 C   0  0  0  0  0  0  0  0  0  0  0  0
  1  2  1  0
  2  3  2  0
  3  4  1  0
  4  5  2  0
  5  6  1  0
  6  7  2  0
  2  7  1  0
  1  8  2  0
  1  9  1  0
 10 11  1  0
 11 12  2  0
 12 13  1  0
 13 14  2  0
 14 15  1  0
 10 15  2  0
 16 17  1  0
 17 18  1  0
 18 19  2  0
 19 20  1  0
 16 20  2  0
 21 22  2  0
 22 23  1  0
 23 24  2  0
 24 25  1  0
 25 26  2  0
 21 26  1  0
 27 28  1  0
 24 27  1  0
 17 21  1  0
 11 20  1  0
  9 10  1  0
 29 30  1  0
  5 29  1  0
M  END
>  <Classification>  (414) 
1

>  <pchembl>  (414) 
6.7

>  <InChI_steorem>  (414) 
InChI=1S/C22H19N5O3/c1-29-17-11-7-15(8-12-17)22(28)23-20-6-4-3-5-19(20)21-24-26-27(25-21)16-9-13-18(30-2)14-10-16/h3-14H,1-2H3,(H,23,28)

>  <source>  (414) 
ChEMBL25

>  <source_id>  (414) 
25

>  <optional_reference>  (414) 
10.1016/j.ejmech.2016.09.010

>  <optional_origin>  (414) 
None

>  <target>  (414) 
BCRP

$$$$

     RDKit          2D

 20 23  0  0  0  0  0  0  0  0999 V2000
    7.3375   -4.3583    0.0000 C   0  0  0  0  0  0  0  0  0  0  0  0
    7.3417   -5.1833    0.0000 C   0  0  0  0  0  0  0  0  0  0  0  0
    6.6292   -5.6000    0.0000 C   0  0  0  0  0  0  0  0  0  0  0  0
    5.9167   -5.1875    0.0000 C   0  0  0  0  0  0  0  0  0  0  0  0
    5.2042   -5.6042    0.0000 C   0  0  0  0  0  0  0  0  0  0  0  0
    5.2083   -6.4292    0.0000 C   0  0  0  0  0  0  0  0  0  0  0  0
    8.1208   -4.1000    0.0000 C   0  0  0  0  0  0  0  0  0  0  0  0
    6.6250   -3.9500    0.0000 C   0  0  0  0  0  0  0  0  0  0  0  0
    5.9125   -4.3667    0.0000 C   0  0  0  0  0  0  0  0  0  0  0  0
    8.1292   -5.4333    0.0000 C   0  0  0  0  0  0  0  0  0  0  0  0
    6.6333   -6.4208    0.0000 C   0  0  0  0  0  0  0  0  0  0  0  0
    4.4875   -5.1958    0.0000 C   0  0  0  0  0  0  0  0  0  0  0  0
    5.9208   -6.8375    0.0000 C   0  0  0  0  0  0  0  0  0  0  0  0
    4.4958   -6.8417    0.0000 C   0  0  0  0  0  0  0  0  0  0  0  0
    8.6083   -4.7667    0.0000 C   0  0  0  0  0  0  0  0  0  0  0  0
    8.3750   -3.3167    0.0000 O   0  0  0  0  0  0  0  0  0  0  0  0
    3.7792   -6.4333    0.0000 C   0  0  0  0  0  0  0  0  0  0  0  0
    3.7750   -5.6083    0.0000 C   0  0  0  0  0  0  0  0  0  0  0  0
    7.4208   -3.5417    0.0000 C   0  0  0  0  0  0  0  0  0  0  0  0
    3.0667   -6.8500    0.0000 O   0  0  0  0  0  0  0  0  0  0  0  0
  2  1  1  0
  3  2  1  0
  4  9  1  0
  5  4  1  0
  6  5  2  0
  7  1  1  0
  8  1  1  0
  9  8  1  0
  2 10  1  0
  3 11  1  0
 12  5  1  0
 13 11  1  0
 14  6  1  0
 15  7  1  0
 16  7  2  0
 17 18  1  0
 18 12  2  0
  1 19  1  0
 20 17  1  0
 15 10  1  0
  4  3  1  0
 13  6  1  0
 17 14  2  0
M  END
>  <Classification>  (415) 
1

>  <pchembl>  (415) 
5.52

>  <InChI_steorem>  (415) 
InChI=1S/C18H22O2/c1-18-9-8-14-13-5-3-12(19)10-11(13)2-4-15(14)16(18)6-7-17(18)20/h3,5,10,14-16,19H,2,4,6-9H2,1H3

>  <source>  (415) 
ChEMBL25

>  <source_id>  (415) 
25

>  <optional_reference>  (415) 
None

>  <optional_origin>  (415) 
None

>  <target>  (415) 
BCRP

$$$$

     RDKit          2D

 22 24  0  0  0  0  0  0  0  0999 V2000
    2.3383   -1.3500    0.0000 O   0  0  0  0  0  0  0  0  0  0  0  0
    1.2990   -0.7500    0.0000 C   0  0  0  0  0  0  0  0  0  0  0  0
    1.2990    0.7500    0.0000 C   0  0  0  0  0  0  0  0  0  0  0  0
    0.0000    1.5000    0.0000 O   0  0  0  0  0  0  0  0  0  0  0  0
   -1.2990    0.7500    0.0000 C   0  0  0  0  0  0  0  0  0  0  0  0
   -2.5981    1.5000    0.0000 C   0  0  0  0  0  0  0  0  0  0  0  0
   -3.8971    0.7500    0.0000 C   0  0  0  0  0  0  0  0  0  0  0  0
   -4.9364    1.3500    0.0000 O   0  0  0  0  0  0  0  0  0  0  0  0
   -3.8971   -0.7500    0.0000 C   0  0  0  0  0  0  0  0  0  0  0  0
   -2.5981   -1.5000    0.0000 C   0  0  0  0  0  0  0  0  0  0  0  0
   -2.5981   -2.7000    0.0000 O   0  0  0  0  0  0  0  0  0  0  0  0
   -1.2990   -0.7500    0.0000 C   0  0  0  0  0  0  0  0  0  0  0  0
    0.0000   -1.5000    0.0000 C   0  0  0  0  0  0  0  0  0  0  0  0
    0.0000   -2.7000    0.0000 O   0  0  0  0  0  0  0  0  0  0  0  0
    2.5987    1.5004    0.0000 C   0  0  0  0  0  0  0  0  0  0  0  0
    3.8991    0.7525    0.0000 C   0  0  0  0  0  0  0  0  0  0  0  0
    5.1969    1.5046    0.0000 C   0  0  0  0  0  0  0  0  0  0  0  0
    5.1945    3.0046    0.0000 C   0  0  0  0  0  0  0  0  0  0  0  0
    6.2328    3.6062    0.0000 O   0  0  0  0  0  0  0  0  0  0  0  0
    3.8943    3.7525    0.0000 C   0  0  0  0  0  0  0  0  0  0  0  0
    3.8924    4.9525    0.0000 O   0  0  0  0  0  0  0  0  0  0  0  0
    2.5964    3.0004    0.0000 C   0  0  0  0  0  0  0  0  0  0  0  0
  1  2  1  0
  2  3  2  0
  3  4  1  0
  4  5  1  0
  5  6  2  0
  6  7  1  0
  7  8  1  0
  7  9  2  0
  9 10  1  0
 10 11  1  0
 10 12  2  0
 12  5  1  0
 12 13  1  0
 13  2  1  0
 13 14  2  0
  3 15  1  0
 15 16  2  0
 16 17  1  0
 17 18  2  0
 18 19  1  0
 18 20  1  0
 20 21  1  0
 20 22  2  0
 22 15  1  0
M  END
>  <Classification>  (416) 
1

>  <pchembl>  (416) 
5.16

>  <InChI_steorem>  (416) 
InChI=1S/C15H10O7/c16-7-4-10(19)12-11(5-7)22-15(14(21)13(12)20)6-1-2-8(17)9(18)3-6/h1-5,16-19,21H

>  <source>  (416) 
ChEMBL25

>  <source_id>  (416) 
25

>  <optional_reference>  (416) 
10.1016/j.bmc.2010.12.043

>  <optional_origin>  (416) 
None

>  <target>  (416) 
BCRP

$$$$

     RDKit          2D

 29 31  0  0  0  0  0  0  0  0999 V2000
    7.5395   -1.3388    0.0000 C   0  0  0  0  0  0  0  0  0  0  0  0
    6.4990   -0.7409    0.0000 O   0  0  0  0  0  0  0  0  0  0  0  0
    5.2003   -1.4932    0.0000 C   0  0  0  0  0  0  0  0  0  0  0  0
    3.8990   -0.7455    0.0000 C   0  0  0  0  0  0  0  0  0  0  0  0
    2.6003   -1.4977    0.0000 O   0  0  0  0  0  0  0  0  0  0  0  0
    1.2990   -0.7500    0.0000 C   0  0  0  0  0  0  0  0  0  0  0  0
    1.2990    0.7500    0.0000 C   0  0  0  0  0  0  0  0  0  0  0  0
    0.0000    1.5000    0.0000 C   0  0  0  0  0  0  0  0  0  0  0  0
    0.0000    3.0000    0.0000 N   0  0  0  0  0  0  0  0  0  0  0  0
   -1.2991    3.7500    0.0000 C   0  0  0  0  0  0  0  0  0  0  0  0
   -2.5981    3.0000    0.0000 N   0  0  0  0  0  0  0  0  0  0  0  0
   -2.5981    1.5000    0.0000 C   0  0  0  0  0  0  0  0  0  0  0  0
   -3.8994    0.7522    0.0000 N   0  0  0  0  0  0  0  0  0  0  0  0
   -5.1981    1.5045    0.0000 C   0  0  0  0  0  0  0  0  0  0  0  0
   -6.4998    0.7590    0.0000 C   0  0  0  0  0  0  0  0  0  0  0  0
   -7.7962    1.5135    0.0000 C   0  0  0  0  0  0  0  0  0  0  0  0
   -7.7910    3.0135    0.0000 C   0  0  0  0  0  0  0  0  0  0  0  0
   -6.4894    3.7590    0.0000 C   0  0  0  0  0  0  0  0  0  0  0  0
   -5.1930    3.0045    0.0000 C   0  0  0  0  0  0  0  0  0  0  0  0
   -6.4842    5.2598    0.0000 C   0  0  0  0  0  0  0  0  0  0  0  0
   -6.4801    6.4598    0.0000 C   0  0  0  0  0  0  0  0  0  0  0  0
   -1.2990    0.7500    0.0000 C   0  0  0  0  0  0  0  0  0  0  0  0
   -1.2990   -0.7500    0.0000 C   0  0  0  0  0  0  0  0  0  0  0  0
    0.0000   -1.5000    0.0000 C   0  0  0  0  0  0  0  0  0  0  0  0
   -0.0031   -3.0008    0.0000 O   0  0  0  0  0  0  0  0  0  0  0  0
   -1.3039   -3.7494    0.0000 C   0  0  0  0  0  0  0  0  0  0  0  0
   -1.3070   -5.2502    0.0000 C   0  0  0  0  0  0  0  0  0  0  0  0
   -2.6078   -5.9988    0.0000 O   0  0  0  0  0  0  0  0  0  0  0  0
   -2.6103   -7.1988    0.0000 C   0  0  0  0  0  0  0  0  0  0  0  0
  1  2  1  0
  2  3  1  0
  3  4  1  0
  4  5  1  0
  5  6  1  0
  6  7  2  0
  7  8  1  0
  8  9  2  0
  9 10  1  0
 10 11  2  0
 11 12  1  0
 12 13  1  0
 13 14  1  0
 14 15  2  0
 15 16  1  0
 16 17  2  0
 17 18  1  0
 18 19  2  0
 19 14  1  0
 18 20  1  0
 20 21  3  0
 12 22  2  0
 22  8  1  0
 22 23  1  0
 23 24  2  0
 24  6  1  0
 24 25  1  0
 25 26  1  0
 26 27  1  0
 27 28  1  0
 28 29  1  0
M  END
>  <Classification>  (417) 
0

>  <pchembl>  (417) 
4.3

>  <InChI_steorem>  (417) 
InChI=1S/C22H23N3O4/c1-4-16-6-5-7-17(12-16)25-22-18-13-20(28-10-8-26-2)21(29-11-9-27-3)14-19(18)23-15-24-22/h1,5-7,12-15H,8-11H2,2-3H3,(H,23,24,25)

>  <source>  (417) 
ChEMBL25

>  <source_id>  (417) 
25

>  <optional_reference>  (417) 
10.1021/jm300212s

>  <optional_origin>  (417) 
None

>  <target>  (417) 
BCRP

$$$$

     RDKit          2D

 23 24  0  0  0  0  0  0  0  0999 V2000
    0.2552   -3.1461    0.0000 C   0  0  0  0  0  0  0  0  0  0  0  0
    1.2925   -3.7494    0.0000 O   0  0  0  0  0  0  0  0  0  0  0  0
    2.5951   -3.0039    0.0000 C   0  0  0  0  0  0  0  0  0  0  0  0
    2.5973   -1.5031    0.0000 C   0  0  0  0  0  0  0  0  0  0  0  0
    1.2990   -0.7500    0.0000 C   0  0  0  0  0  0  0  0  0  0  0  0
    1.2990    0.7500    0.0000 C   0  0  0  0  0  0  0  0  0  0  0  0
    0.0000    1.5000    0.0000 C   0  0  0  0  0  0  0  0  0  0  0  0
   -1.2990    0.7500    0.0000 C   0  0  0  0  0  0  0  0  0  0  0  0
   -2.3383    1.3500    0.0000 O   0  0  0  0  0  0  0  0  0  0  0  0
   -1.2990   -0.7500    0.0000 C   0  0  0  0  0  0  0  0  0  0  0  0
    0.0000   -1.5000    0.0000 C   0  0  0  0  0  0  0  0  0  0  0  0
    3.8933   -3.7570    0.0000 C   0  0  0  0  0  0  0  0  0  0  0  0
    4.9336   -3.1588    0.0000 O   0  0  0  0  0  0  0  0  0  0  0  0
    3.8912   -5.2578    0.0000 N   0  0  0  0  0  0  0  0  0  0  0  0
    5.1894   -6.0109    0.0000 C   0  0  0  0  0  0  0  0  0  0  0  0
    5.1873   -7.5117    0.0000 C   0  0  0  0  0  0  0  0  0  0  0  0
    6.4855   -8.2648    0.0000 C   0  0  0  0  0  0  0  0  0  0  0  0
    6.4855   -9.7648    0.0000 C   0  0  0  0  0  0  0  0  0  0  0  0
    7.7846  -10.5149    0.0000 C   0  0  0  0  0  0  0  0  0  0  0  0
    9.0836   -9.7649    0.0000 C   0  0  0  0  0  0  0  0  0  0  0  0
   10.1228  -10.3649    0.0000 O   0  0  0  0  0  0  0  0  0  0  0  0
    9.0836   -8.2649    0.0000 C   0  0  0  0  0  0  0  0  0  0  0  0
    7.7846   -7.5149    0.0000 C   0  0  0  0  0  0  0  0  0  0  0  0
  1  2  1  0
  2  3  1  0
  3  4  2  3
  4  5  1  0
  5  6  2  0
  6  7  1  0
  7  8  2  0
  8  9  1  0
  8 10  1  0
 10 11  2  0
 11  5  1  0
  3 12  1  0
 12 13  2  0
 12 14  1  0
 14 15  1  0
 15 16  2  3
 16 17  1  0
 17 18  2  0
 18 19  1  0
 19 20  2  0
 20 21  1  0
 20 22  1  0
 22 23  2  0
 23 17  1  0
M  END
>  <Classification>  (418) 
0

>  <pchembl>  (418) 
4.78

>  <InChI_steorem>  (418) 
InChI=1S/C18H17NO4/c1-23-17(12-14-4-8-16(21)9-5-14)18(22)19-11-10-13-2-6-15(20)7-3-13/h2-12,20-21H,1H3,(H,19,22)

>  <source>  (418) 
ChEMBL25

>  <source_id>  (418) 
25

>  <optional_reference>  (418) 
None

>  <optional_origin>  (418) 
None

>  <target>  (418) 
BCRP

$$$$

     RDKit          2D

 22 24  0  0  0  0  0  0  0  0999 V2000
    3.6387   -0.8963    0.0000 C   0  0  0  0  0  0  0  0  0  0  0  0
    2.6003   -1.4977    0.0000 O   0  0  0  0  0  0  0  0  0  0  0  0
    1.2990   -0.7500    0.0000 C   0  0  0  0  0  0  0  0  0  0  0  0
    1.2990    0.7500    0.0000 C   0  0  0  0  0  0  0  0  0  0  0  0
    0.0000    1.5000    0.0000 C   0  0  0  0  0  0  0  0  0  0  0  0
    0.0000    3.0000    0.0000 N   0  0  0  0  0  0  0  0  0  0  0  0
   -1.2991    3.7500    0.0000 C   0  0  0  0  0  0  0  0  0  0  0  0
   -2.5981    3.0000    0.0000 N   0  0  0  0  0  0  0  0  0  0  0  0
   -2.5981    1.5000    0.0000 C   0  0  0  0  0  0  0  0  0  0  0  0
   -3.8994    0.7522    0.0000 N   0  0  0  0  0  0  0  0  0  0  0  0
   -5.1981    1.5045    0.0000 C   0  0  0  0  0  0  0  0  0  0  0  0
   -6.4998    0.7590    0.0000 C   0  0  0  0  0  0  0  0  0  0  0  0
   -7.7962    1.5135    0.0000 C   0  0  0  0  0  0  0  0  0  0  0  0
   -7.7910    3.0135    0.0000 C   0  0  0  0  0  0  0  0  0  0  0  0
   -6.4894    3.7590    0.0000 C   0  0  0  0  0  0  0  0  0  0  0  0
   -6.4853    4.9590    0.0000 Br  0  0  0  0  0  0  0  0  0  0  0  0
   -5.1930    3.0045    0.0000 C   0  0  0  0  0  0  0  0  0  0  0  0
   -1.2990    0.7500    0.0000 C   0  0  0  0  0  0  0  0  0  0  0  0
   -1.2990   -0.7500    0.0000 C   0  0  0  0  0  0  0  0  0  0  0  0
    0.0000   -1.5000    0.0000 C   0  0  0  0  0  0  0  0  0  0  0  0
   -0.0031   -3.0008    0.0000 O   0  0  0  0  0  0  0  0  0  0  0  0
   -1.0432   -3.5994    0.0000 C   0  0  0  0  0  0  0  0  0  0  0  0
  1  2  1  0
  2  3  1  0
  3  4  2  0
  4  5  1  0
  5  6  2  0
  6  7  1  0
  7  8  2  0
  8  9  1  0
  9 10  1  0
 10 11  1  0
 11 12  2  0
 12 13  1  0
 13 14  2  0
 14 15  1  0
 15 16  1  0
 15 17  2  0
 17 11  1  0
  9 18  2  0
 18  5  1  0
 18 19  1  0
 19 20  2  0
 20  3  1  0
 20 21  1  0
 21 22  1  0
M  END
>  <Classification>  (419) 
1

>  <pchembl>  (419) 
5.63

>  <InChI_steorem>  (419) 
InChI=1S/C16H14BrN3O2/c1-21-14-7-12-13(8-15(14)22-2)18-9-19-16(12)20-11-5-3-4-10(17)6-11/h3-9H,1-2H3,(H,18,19,20)

>  <source>  (419) 
ChEMBL25

>  <source_id>  (419) 
25

>  <optional_reference>  (419) 
10.1016/j.bmc.2013.10.007

>  <optional_origin>  (419) 
None

>  <target>  (419) 
BCRP

$$$$

     RDKit          2D

 26 27  0  0  0  0  0  0  0  0999 V2000
    0.2552   -3.1461    0.0000 C   0  0  0  0  0  0  0  0  0  0  0  0
    1.2925   -3.7494    0.0000 O   0  0  0  0  0  0  0  0  0  0  0  0
    2.5951   -3.0039    0.0000 C   0  0  0  0  0  0  0  0  0  0  0  0
    2.5973   -1.5031    0.0000 C   0  0  0  0  0  0  0  0  0  0  0  0
    1.2990   -0.7500    0.0000 C   0  0  0  0  0  0  0  0  0  0  0  0
    1.2990    0.7500    0.0000 C   0  0  0  0  0  0  0  0  0  0  0  0
    0.0000    1.5000    0.0000 C   0  0  0  0  0  0  0  0  0  0  0  0
   -1.2990    0.7500    0.0000 C   0  0  0  0  0  0  0  0  0  0  0  0
   -2.3383    1.3500    0.0000 O   0  0  0  0  0  0  0  0  0  0  0  0
   -1.2990   -0.7500    0.0000 C   0  0  0  0  0  0  0  0  0  0  0  0
    0.0000   -1.5000    0.0000 C   0  0  0  0  0  0  0  0  0  0  0  0
    3.8933   -3.7570    0.0000 C   0  0  0  0  0  0  0  0  0  0  0  0
    4.9336   -3.1588    0.0000 O   0  0  0  0  0  0  0  0  0  0  0  0
    3.8912   -5.2578    0.0000 N   0  0  0  0  0  0  0  0  0  0  0  0
    5.1894   -6.0109    0.0000 C   0  0  0  0  0  0  0  0  0  0  0  0
    5.1873   -7.5117    0.0000 C   0  0  0  0  0  0  0  0  0  0  0  0
    6.4855   -8.2648    0.0000 C   0  0  0  0  0  0  0  0  0  0  0  0
    6.4855   -9.7648    0.0000 C   0  0  0  0  0  0  0  0  0  0  0  0
    7.7846  -10.5149    0.0000 C   0  0  0  0  0  0  0  0  0  0  0  0
    7.7845  -11.7149    0.0000 Br  0  0  0  0  0  0  0  0  0  0  0  0
    9.0836   -9.7649    0.0000 C   0  0  0  0  0  0  0  0  0  0  0  0
   10.3849  -10.5127    0.0000 O   0  0  0  0  0  0  0  0  0  0  0  0
   11.4233   -9.9112    0.0000 C   0  0  0  0  0  0  0  0  0  0  0  0
    9.0836   -8.2649    0.0000 C   0  0  0  0  0  0  0  0  0  0  0  0
   10.1229   -7.6649    0.0000 Br  0  0  0  0  0  0  0  0  0  0  0  0
    7.7846   -7.5149    0.0000 C   0  0  0  0  0  0  0  0  0  0  0  0
  1  2  1  0
  2  3  1  0
  3  4  2  3
  4  5  1  0
  5  6  2  0
  6  7  1  0
  7  8  2  0
  8  9  1  0
  8 10  1  0
 10 11  2  0
 11  5  1  0
  3 12  1  0
 12 13  2  0
 12 14  1  0
 14 15  1  0
 15 16  2  3
 16 17  1  0
 17 18  2  0
 18 19  1  0
 19 20  1  0
 19 21  2  0
 21 22  1  0
 22 23  1  0
 21 24  1  0
 24 25  1  0
 24 26  2  0
 26 17  1  0
M  END
>  <Classification>  (420) 
0

>  <pchembl>  (420) 
4.48

>  <InChI_steorem>  (420) 
InChI=1S/C19H17Br2NO4/c1-25-17(11-12-3-5-14(23)6-4-12)19(24)22-8-7-13-9-15(20)18(26-2)16(21)10-13/h3-11,23H,1-2H3,(H,22,24)

>  <source>  (420) 
ChEMBL25

>  <source_id>  (420) 
25

>  <optional_reference>  (420) 
None

>  <optional_origin>  (420) 
None

>  <target>  (420) 
BCRP

$$$$

     RDKit          2D

 85 85  0  0  0  0  0  0  0  0999 V2000
    2.7490    9.6727    0.0000 C   0  0  0  0  0  0  0  0  0  0  0  0
    3.4920    8.7304    0.0000 C   0  0  0  0  0  0  0  0  0  0  0  0
    2.9324    7.3249    0.0000 C   0  0  0  0  0  0  0  0  0  0  0  0
    1.4932    7.7475    0.0000 N   0  0  0  0  0  0  0  0  0  0  0  0
    0.0000    7.8901    0.0000 C   0  0  0  0  0  0  0  0  0  0  0  0
    0.0000    9.0901    0.0000 O   0  0  0  0  0  0  0  0  0  0  0  0
   -1.4932    7.7475    0.0000 C   0  0  0  0  0  0  0  0  0  0  0  0
   -1.7775    9.2333    0.0000 C   0  0  0  0  0  0  0  0  0  0  0  0
   -0.8692   10.0176    0.0000 O   0  0  0  0  0  0  0  0  0  0  0  0
   -3.1947    9.7271    0.0000 C   0  0  0  0  0  0  0  0  0  0  0  0
   -4.1030    8.9428    0.0000 C   0  0  0  0  0  0  0  0  0  0  0  0
   -3.4767   11.2012    0.0000 C   0  0  0  0  0  0  0  0  0  0  0  0
   -4.8940   11.6949    0.0000 C   0  0  0  0  0  0  0  0  0  0  0  0
   -5.1760   13.1690    0.0000 C   0  0  0  0  0  0  0  0  0  0  0  0
   -6.3092   13.5638    0.0000 C   0  0  0  0  0  0  0  0  0  0  0  0
   -2.9325    7.3249    0.0000 N   0  0  0  0  0  0  0  0  0  0  0  0
   -3.3785    8.4389    0.0000 C   0  0  0  0  0  0  0  0  0  0  0  0
   -4.2657    6.6375    0.0000 C   0  0  0  0  0  0  0  0  0  0  0  0
   -4.9145    7.6470    0.0000 O   0  0  0  0  0  0  0  0  0  0  0  0
   -5.4448    5.7103    0.0000 C   0  0  0  0  0  0  0  0  0  0  0  0
   -6.4866    6.8071    0.0000 C   0  0  0  0  0  0  0  0  0  0  0  0
   -6.1470    7.9581    0.0000 C   0  0  0  0  0  0  0  0  0  0  0  0
   -7.6532    6.5261    0.0000 C   0  0  0  0  0  0  0  0  0  0  0  0
   -6.4271    4.5767    0.0000 N   0  0  0  0  0  0  0  0  0  0  0  0
   -7.4046    5.2727    0.0000 C   0  0  0  0  0  0  0  0  0  0  0  0
   -7.1771    3.2776    0.0000 C   0  0  0  0  0  0  0  0  0  0  0  0
   -8.2687    3.7761    0.0000 O   0  0  0  0  0  0  0  0  0  0  0  0
   -7.6677    1.8601    0.0000 C   0  0  0  0  0  0  0  0  0  0  0  0
   -9.1371    2.2196    0.0000 C   0  0  0  0  0  0  0  0  0  0  0  0
   -9.5580    3.6602    0.0000 C   0  0  0  0  0  0  0  0  0  0  0  0
  -10.7237    3.9454    0.0000 C   0  0  0  0  0  0  0  0  0  0  0  0
   -8.7285    4.5273    0.0000 C   0  0  0  0  0  0  0  0  0  0  0  0
   -7.8812    0.3754    0.0000 N   0  0  0  0  0  0  0  0  0  0  0  0
   -9.0798    0.4325    0.0000 C   0  0  0  0  0  0  0  0  0  0  0  0
   -7.8098   -1.1229    0.0000 C   0  0  0  0  0  0  0  0  0  0  0  0
   -8.9976   -1.2937    0.0000 O   0  0  0  0  0  0  0  0  0  0  0  0
   -7.4561   -2.5806    0.0000 C   0  0  0  0  0  0  0  0  0  0  0  0
   -8.8866   -3.0726    0.0000 C   0  0  0  0  0  0  0  0  0  0  0  0
  -10.0196   -2.0883    0.0000 C   0  0  0  0  0  0  0  0  0  0  0  0
  -11.1543   -2.4786    0.0000 C   0  0  0  0  0  0  0  0  0  0  0  0
   -9.7906   -0.9104    0.0000 C   0  0  0  0  0  0  0  0  0  0  0  0
   -6.8330   -3.9451    0.0000 N   0  0  0  0  0  0  0  0  0  0  0  0
   -7.8722   -4.5451    0.0000 C   0  0  0  0  0  0  0  0  0  0  0  0
   -5.9629   -5.1669    0.0000 C   0  0  0  0  0  0  0  0  0  0  0  0
   -6.8698   -5.9528    0.0000 O   0  0  0  0  0  0  0  0  0  0  0  0
   -4.8773   -6.2020    0.0000 C   0  0  0  0  0  0  0  0  0  0  0  0
   -5.6191   -7.1453    0.0000 C   0  0  0  0  0  0  0  0  0  0  0  0
   -3.6154   -7.0130    0.0000 N   0  0  0  0  0  0  0  0  0  0  0  0
   -2.2229   -7.5705    0.0000 C   0  0  0  0  0  0  0  0  0  0  0  0
   -2.5609   -8.7219    0.0000 O   0  0  0  0  0  0  0  0  0  0  0  0
   -0.7500   -7.8544    0.0000 C   0  0  0  0  0  0  0  0  0  0  0  0
   -0.8640   -9.0489    0.0000 C   0  0  0  0  0  0  0  0  0  0  0  0
    0.7500   -7.8544    0.0000 N   0  0  0  0  0  0  0  0  0  0  0  0
    2.2229   -7.5705    0.0000 C   0  0  0  0  0  0  0  0  0  0  0  0
    2.5610   -8.7219    0.0000 O   0  0  0  0  0  0  0  0  0  0  0  0
    3.6155   -7.0130    0.0000 C   0  0  0  0  0  0  0  0  0  0  0  0
    4.3061   -8.3589    0.0000 C   0  0  0  0  0  0  0  0  0  0  0  0
    3.4930   -9.6204    0.0000 C   0  0  0  0  0  0  0  0  0  0  0  0
    4.0408  -10.6881    0.0000 C   0  0  0  0  0  0  0  0  0  0  0  0
    2.2944   -9.5614    0.0000 C   0  0  0  0  0  0  0  0  0  0  0  0
    4.8773   -6.2020    0.0000 N   0  0  0  0  0  0  0  0  0  0  0  0
    5.6191   -7.1453    0.0000 C   0  0  0  0  0  0  0  0  0  0  0  0
    5.9629   -5.1669    0.0000 C   0  0  0  0  0  0  0  0  0  0  0  0
    6.8698   -5.9527    0.0000 O   0  0  0  0  0  0  0  0  0  0  0  0
    6.8330   -3.9450    0.0000 C   0  0  0  0  0  0  0  0  0  0  0  0
    7.4561   -2.5806    0.0000 N   0  0  0  0  0  0  0  0  0  0  0  0
    7.8098   -1.1229    0.0000 C   0  0  0  0  0  0  0  0  0  0  0  0
    8.9976   -1.2936    0.0000 O   0  0  0  0  0  0  0  0  0  0  0  0
    7.8812    0.3754    0.0000 C   0  0  0  0  0  0  0  0  0  0  0  0
    9.3923    0.4445    0.0000 C   0  0  0  0  0  0  0  0  0  0  0  0
   10.2021   -0.8191    0.0000 C   0  0  0  0  0  0  0  0  0  0  0  0
   11.4008   -0.7644    0.0000 C   0  0  0  0  0  0  0  0  0  0  0  0
    9.6505   -1.8848    0.0000 C   0  0  0  0  0  0  0  0  0  0  0  0
    7.6677    1.8602    0.0000 N   0  0  0  0  0  0  0  0  0  0  0  0
    8.8339    2.1431    0.0000 C   0  0  0  0  0  0  0  0  0  0  0  0
    7.1771    3.2777    0.0000 C   0  0  0  0  0  0  0  0  0  0  0  0
    8.2686    3.7762    0.0000 O   0  0  0  0  0  0  0  0  0  0  0  0
    6.4271    4.5767    0.0000 C   0  0  0  0  0  0  0  0  0  0  0  0
    5.4448    5.7103    0.0000 N   0  0  0  0  0  0  0  0  0  0  0  0
    6.2729    6.5788    0.0000 C   0  0  0  0  0  0  0  0  0  0  0  0
    4.2657    6.6376    0.0000 C   0  0  0  0  0  0  0  0  0  0  0  0
    4.9145    7.6471    0.0000 O   0  0  0  0  0  0  0  0  0  0  0  0
    8.1416   -4.7039    0.0000 C   0  0  0  0  0  0  0  0  0  0  0  0
    8.1401   -5.9039    0.0000 C   0  0  0  0  0  0  0  0  0  0  0  0
    9.1818   -4.1056    0.0000 C   0  0  0  0  0  0  0  0  0  0  0  0
  1  2  1  0
  3  2  1  0
  3  4  1  0
  4  5  1  0
  5  6  2  0
  7  5  1  0
  7  8  1  0
  8  9  1  0
  8 10  1  0
 10 11  1  0
 10 12  1  0
 12 13  1  0
 13 14  2  3
 14 15  1  0
  7 16  1  0
 16 17  1  0
 16 18  1  0
 18 19  2  0
 18 20  1  0
 20 21  1  0
 21 22  1  0
 21 23  1  0
 20 24  1  0
 24 25  1  0
 24 26  1  0
 26 27  2  0
 26 28  1  0
 28 29  1  0
 29 30  1  0
 30 31  1  0
 30 32  1  0
 28 33  1  0
 33 34  1  0
 33 35  1  0
 35 36  2  0
 35 37  1  0
 37 38  1  0
 38 39  1  0
 39 40  1  0
 39 41  1  0
 37 42  1  0
 42 43  1  0
 42 44  1  0
 44 45  2  0
 44 46  1  0
 46 47  1  0
 46 48  1  0
 48 49  1  0
 49 50  2  0
 49 51  1  0
 51 52  1  0
 51 53  1  0
 53 54  1  0
 54 55  2  0
 54 56  1  0
 56 57  1  0
 57 58  1  0
 58 59  1  0
 58 60  1  0
 56 61  1  0
 61 62  1  0
 61 63  1  0
 63 64  2  0
 63 65  1  0
 65 66  1  0
 66 67  1  0
 67 68  2  0
 67 69  1  0
 69 70  1  0
 70 71  1  0
 71 72  1  0
 71 73  1  0
 69 74  1  0
 74 75  1  0
 74 76  1  0
 76 77  2  0
 76 78  1  0
 78 79  1  0
 79 80  1  0
 79 81  1  0
 81  3  1  0
 81 82  2  0
 65 83  1  0
 83 84  1  0
 83 85  1  0
M  END
>  <Classification>  (421) 
0

>  <pchembl>  (421) 
4.2

>  <InChI_steorem>  (421) 
InChI=1S/C62H111N11O12/c1-25-27-28-40(15)52(75)51-56(79)65-43(26-2)58(81)67(18)33-48(74)68(19)44(29-34(3)4)55(78)66-49(38(11)12)61(84)69(20)45(30-35(5)6)54(77)63-41(16)53(76)64-42(17)57(80)70(21)46(31-36(7)8)59(82)71(22)47(32-37(9)10)60(83)72(23)50(39(13)14)62(85)73(51)24/h25,27,34-47,49-52,75H,26,28-33H2,1-24H3,(H,63,77)(H,64,76)(H,65,79)(H,66,78)

>  <source>  (421) 
ChEMBL25

>  <source_id>  (421) 
25

>  <optional_reference>  (421) 
10.1016/j.bmc.2008.07.034

>  <optional_origin>  (421) 
None

>  <target>  (421) 
BCRP

$$$$

     RDKit          2D

 31 34  0  0  0  0  0  0  0  0999 V2000
    3.6387   -0.8963    0.0000 C   0  0  0  0  0  0  0  0  0  0  0  0
    2.6003   -1.4977    0.0000 O   0  0  0  0  0  0  0  0  0  0  0  0
    1.2990   -0.7500    0.0000 C   0  0  0  0  0  0  0  0  0  0  0  0
    1.2990    0.7500    0.0000 C   0  0  0  0  0  0  0  0  0  0  0  0
    0.0000    1.5000    0.0000 C   0  0  0  0  0  0  0  0  0  0  0  0
    0.0000    3.0000    0.0000 N   0  0  0  0  0  0  0  0  0  0  0  0
   -1.2991    3.7500    0.0000 C   0  0  0  0  0  0  0  0  0  0  0  0
   -2.5981    3.0000    0.0000 N   0  0  0  0  0  0  0  0  0  0  0  0
   -2.5981    1.5000    0.0000 C   0  0  0  0  0  0  0  0  0  0  0  0
   -3.8994    0.7522    0.0000 N   0  0  0  0  0  0  0  0  0  0  0  0
   -5.1981    1.5045    0.0000 C   0  0  0  0  0  0  0  0  0  0  0  0
   -6.4998    0.7590    0.0000 C   0  0  0  0  0  0  0  0  0  0  0  0
   -7.7962    1.5135    0.0000 C   0  0  0  0  0  0  0  0  0  0  0  0
   -7.7910    3.0135    0.0000 C   0  0  0  0  0  0  0  0  0  0  0  0
   -8.8282    3.6171    0.0000 F   0  0  0  0  0  0  0  0  0  0  0  0
   -6.4894    3.7590    0.0000 C   0  0  0  0  0  0  0  0  0  0  0  0
   -6.4853    4.9590    0.0000 Cl  0  0  0  0  0  0  0  0  0  0  0  0
   -5.1930    3.0045    0.0000 C   0  0  0  0  0  0  0  0  0  0  0  0
   -1.2990    0.7500    0.0000 C   0  0  0  0  0  0  0  0  0  0  0  0
   -1.2990   -0.7500    0.0000 C   0  0  0  0  0  0  0  0  0  0  0  0
    0.0000   -1.5000    0.0000 C   0  0  0  0  0  0  0  0  0  0  0  0
   -0.0031   -3.0008    0.0000 O   0  0  0  0  0  0  0  0  0  0  0  0
   -1.3039   -3.7494    0.0000 C   0  0  0  0  0  0  0  0  0  0  0  0
   -1.3070   -5.2502    0.0000 C   0  0  0  0  0  0  0  0  0  0  0  0
   -2.6078   -5.9988    0.0000 C   0  0  0  0  0  0  0  0  0  0  0  0
   -2.6109   -7.4996    0.0000 N   0  0  0  0  0  0  0  0  0  0  0  0
   -3.9099   -8.2497    0.0000 C   0  0  0  0  0  0  0  0  0  0  0  0
   -3.9099   -9.7497    0.0000 C   0  0  0  0  0  0  0  0  0  0  0  0
   -2.6109  -10.4997    0.0000 O   0  0  0  0  0  0  0  0  0  0  0  0
   -1.3119   -9.7497    0.0000 C   0  0  0  0  0  0  0  0  0  0  0  0
   -1.3118   -8.2497    0.0000 C   0  0  0  0  0  0  0  0  0  0  0  0
  1  2  1  0
  2  3  1  0
  3  4  2  0
  4  5  1  0
  5  6  2  0
  6  7  1  0
  7  8  2  0
  8  9  1  0
  9 10  1  0
 10 11  1  0
 11 12  2  0
 12 13  1  0
 13 14  2  0
 14 15  1  0
 14 16  1  0
 16 17  1  0
 16 18  2  0
 18 11  1  0
  9 19  2  0
 19  5  1  0
 19 20  1  0
 20 21  2  0
 21  3  1  0
 21 22  1  0
 22 23  1  0
 23 24  1  0
 24 25  1  0
 25 26  1  0
 26 27  1  0
 27 28  1  0
 28 29  1  0
 29 30  1  0
 30 31  1  0
 31 26  1  0
M  END
>  <Classification>  (422) 
1

>  <pchembl>  (422) 
5.96

>  <InChI_steorem>  (422) 
InChI=1S/C22H24ClFN4O3/c1-29-20-13-19-16(12-21(20)31-8-2-5-28-6-9-30-10-7-28)22(26-14-25-19)27-15-3-4-18(24)17(23)11-15/h3-4,11-14H,2,5-10H2,1H3,(H,25,26,27)

>  <source>  (422) 
ChEMBL25

>  <source_id>  (422) 
25

>  <optional_reference>  (422) 
10.1016/j.bmcl.2009.11.004

>  <optional_origin>  (422) 
None

>  <target>  (422) 
BCRP

$$$$

     RDKit          2D

 24 25  0  0  0  0  0  0  0  0999 V2000
    2.8522    1.3521    0.0000 C   0  0  0  0  0  0  0  0  0  0  0  0
    3.8933    0.7554    0.0000 O   0  0  0  0  0  0  0  0  0  0  0  0
    3.8990   -0.7455    0.0000 C   0  0  0  0  0  0  0  0  0  0  0  0
    2.6003   -1.4977    0.0000 C   0  0  0  0  0  0  0  0  0  0  0  0
    1.2990   -0.7500    0.0000 C   0  0  0  0  0  0  0  0  0  0  0  0
    1.2990    0.7500    0.0000 C   0  0  0  0  0  0  0  0  0  0  0  0
    0.0000    1.5000    0.0000 C   0  0  0  0  0  0  0  0  0  0  0  0
   -1.2990    0.7500    0.0000 C   0  0  0  0  0  0  0  0  0  0  0  0
   -1.2990   -0.7500    0.0000 C   0  0  0  0  0  0  0  0  0  0  0  0
   -2.3383   -1.3500    0.0000 O   0  0  0  0  0  0  0  0  0  0  0  0
    0.0000   -1.5000    0.0000 C   0  0  0  0  0  0  0  0  0  0  0  0
    0.0000   -3.0008    0.0000 C   0  0  0  0  0  0  0  0  0  0  0  0
    0.0000   -4.2008    0.0000 N   0  0  0  0  0  0  0  0  0  0  0  0
    5.2003   -1.4932    0.0000 C   0  0  0  0  0  0  0  0  0  0  0  0
    5.2024   -2.6932    0.0000 O   0  0  0  0  0  0  0  0  0  0  0  0
    6.4990   -0.7409    0.0000 N   0  0  0  0  0  0  0  0  0  0  0  0
    7.8003   -1.4887    0.0000 C   0  0  0  0  0  0  0  0  0  0  0  0
    9.0990   -0.7364    0.0000 C   0  0  0  0  0  0  0  0  0  0  0  0
   10.4003   -1.4841    0.0000 C   0  0  0  0  0  0  0  0  0  0  0  0
   11.6994   -0.7342    0.0000 C   0  0  0  0  0  0  0  0  0  0  0  0
   12.9984   -1.4841    0.0000 C   0  0  0  0  0  0  0  0  0  0  0  0
   12.9985   -2.9841    0.0000 C   0  0  0  0  0  0  0  0  0  0  0  0
   11.6994   -3.7342    0.0000 C   0  0  0  0  0  0  0  0  0  0  0  0
   10.4004   -2.9842    0.0000 C   0  0  0  0  0  0  0  0  0  0  0  0
  1  2  1  0
  2  3  1  0
  3  4  2  3
  4  5  1  0
  5  6  2  0
  6  7  1  0
  7  8  2  0
  8  9  1  0
  9 10  1  0
  9 11  2  0
 11  5  1  0
 11 12  1  0
 12 13  3  0
  3 14  1  0
 14 15  2  0
 14 16  1  0
 16 17  1  0
 17 18  2  3
 18 19  1  0
 19 20  2  0
 20 21  1  0
 21 22  2  0
 22 23  1  0
 23 24  2  0
 24 19  1  0
M  END
>  <Classification>  (423) 
0

>  <pchembl>  (423) 
4.57

>  <InChI_steorem>  (423) 
InChI=1S/C19H16N2O3/c1-24-18(12-15-8-5-9-17(22)16(15)13-20)19(23)21-11-10-14-6-3-2-4-7-14/h2-12,22H,1H3,(H,21,23)

>  <source>  (423) 
ChEMBL25

>  <source_id>  (423) 
25

>  <optional_reference>  (423) 
None

>  <optional_origin>  (423) 
None

>  <target>  (423) 
BCRP

$$$$

     RDKit          2D

 20 22  0  0  0  0  0  0  0  0999 V2000
    6.2328   -3.6062    0.0000 O   0  0  0  0  0  0  0  0  0  0  0  0
    5.1945   -3.0045    0.0000 C   0  0  0  0  0  0  0  0  0  0  0  0
    5.1969   -1.5045    0.0000 C   0  0  0  0  0  0  0  0  0  0  0  0
    3.8991   -0.7525    0.0000 C   0  0  0  0  0  0  0  0  0  0  0  0
    2.5987   -1.5004    0.0000 C   0  0  0  0  0  0  0  0  0  0  0  0
    2.5965   -3.0004    0.0000 C   0  0  0  0  0  0  0  0  0  0  0  0
    3.8943   -3.7525    0.0000 C   0  0  0  0  0  0  0  0  0  0  0  0
    1.2990   -0.7500    0.0000 C   0  0  0  0  0  0  0  0  0  0  0  0
    1.2990    0.7500    0.0000 C   0  0  0  0  0  0  0  0  0  0  0  0
    0.0000    1.5000    0.0000 C   0  0  0  0  0  0  0  0  0  0  0  0
    0.0000    2.7000    0.0000 O   0  0  0  0  0  0  0  0  0  0  0  0
   -1.2990    0.7500    0.0000 C   0  0  0  0  0  0  0  0  0  0  0  0
   -2.5981    1.5000    0.0000 C   0  0  0  0  0  0  0  0  0  0  0  0
   -2.5981    2.7000    0.0000 O   0  0  0  0  0  0  0  0  0  0  0  0
   -3.8971    0.7500    0.0000 C   0  0  0  0  0  0  0  0  0  0  0  0
   -3.8971   -0.7500    0.0000 C   0  0  0  0  0  0  0  0  0  0  0  0
   -4.9363   -1.3500    0.0000 O   0  0  0  0  0  0  0  0  0  0  0  0
   -2.5981   -1.5000    0.0000 C   0  0  0  0  0  0  0  0  0  0  0  0
   -1.2990   -0.7500    0.0000 C   0  0  0  0  0  0  0  0  0  0  0  0
    0.0000   -1.5000    0.0000 O   0  0  0  0  0  0  0  0  0  0  0  0
  1  2  1  0
  2  3  2  0
  3  4  1  0
  4  5  2  0
  5  6  1  0
  6  7  2  0
  7  2  1  0
  5  8  1  0
  8  9  2  0
  9 10  1  0
 10 11  2  0
 10 12  1  0
 12 13  2  0
 13 14  1  0
 13 15  1  0
 15 16  2  0
 16 17  1  0
 16 18  1  0
 18 19  2  0
 19 12  1  0
 19 20  1  0
 20  8  1  0
M  END
>  <Classification>  (424) 
1

>  <pchembl>  (424) 
5.51

>  <InChI_steorem>  (424) 
InChI=1S/C15H10O5/c16-9-3-1-8(2-4-9)13-7-12(19)15-11(18)5-10(17)6-14(15)20-13/h1-7,16-18H

>  <source>  (424) 
ChEMBL25

>  <source_id>  (424) 
25

>  <optional_reference>  (424) 
10.1016/j.bmc.2010.12.043

>  <optional_origin>  (424) 
None

>  <target>  (424) 
BCRP

$$$$

     RDKit          2D

 25 26  0  0  0  0  0  0  0  0999 V2000
    0.2552   -3.1461    0.0000 C   0  0  0  0  0  0  0  0  0  0  0  0
    1.2925   -3.7494    0.0000 O   0  0  0  0  0  0  0  0  0  0  0  0
    2.5951   -3.0039    0.0000 C   0  0  0  0  0  0  0  0  0  0  0  0
    2.5973   -1.5031    0.0000 C   0  0  0  0  0  0  0  0  0  0  0  0
    1.2990   -0.7500    0.0000 C   0  0  0  0  0  0  0  0  0  0  0  0
    1.2990    0.7500    0.0000 C   0  0  0  0  0  0  0  0  0  0  0  0
    0.0000    1.5000    0.0000 C   0  0  0  0  0  0  0  0  0  0  0  0
   -1.2990    0.7500    0.0000 C   0  0  0  0  0  0  0  0  0  0  0  0
   -2.3383    1.3500    0.0000 O   0  0  0  0  0  0  0  0  0  0  0  0
   -1.2990   -0.7500    0.0000 C   0  0  0  0  0  0  0  0  0  0  0  0
    0.0000   -1.5000    0.0000 C   0  0  0  0  0  0  0  0  0  0  0  0
    3.8933   -3.7570    0.0000 C   0  0  0  0  0  0  0  0  0  0  0  0
    4.9336   -3.1588    0.0000 O   0  0  0  0  0  0  0  0  0  0  0  0
    3.8912   -5.2578    0.0000 N   0  0  0  0  0  0  0  0  0  0  0  0
    5.1894   -6.0109    0.0000 C   0  0  0  0  0  0  0  0  0  0  0  0
    5.1873   -7.5117    0.0000 C   0  0  0  0  0  0  0  0  0  0  0  0
    6.4855   -8.2648    0.0000 C   0  0  0  0  0  0  0  0  0  0  0  0
    6.4855   -9.7648    0.0000 C   0  0  0  0  0  0  0  0  0  0  0  0
    7.7846  -10.5149    0.0000 C   0  0  0  0  0  0  0  0  0  0  0  0
    9.0836   -9.7649    0.0000 C   0  0  0  0  0  0  0  0  0  0  0  0
   10.3818  -10.5180    0.0000 O   0  0  0  0  0  0  0  0  0  0  0  0
   10.3801  -11.7180    0.0000 C   0  0  0  0  0  0  0  0  0  0  0  0
    9.0836   -8.2649    0.0000 C   0  0  0  0  0  0  0  0  0  0  0  0
   10.1229   -7.6649    0.0000 Br  0  0  0  0  0  0  0  0  0  0  0  0
    7.7846   -7.5149    0.0000 C   0  0  0  0  0  0  0  0  0  0  0  0
  1  2  1  0
  2  3  1  0
  3  4  2  3
  4  5  1  0
  5  6  2  0
  6  7  1  0
  7  8  2  0
  8  9  1  0
  8 10  1  0
 10 11  2  0
 11  5  1  0
  3 12  1  0
 12 13  2  0
 12 14  1  0
 14 15  1  0
 15 16  2  3
 16 17  1  0
 17 18  2  0
 18 19  1  0
 19 20  2  0
 20 21  1  0
 21 22  1  0
 20 23  1  0
 23 24  1  0
 23 25  2  0
 25 17  1  0
M  END
>  <Classification>  (425) 
0

>  <pchembl>  (425) 
4.79

>  <InChI_steorem>  (425) 
InChI=1S/C19H18BrNO4/c1-24-17-8-5-14(11-16(17)20)9-10-21-19(23)18(25-2)12-13-3-6-15(22)7-4-13/h3-12,22H,1-2H3,(H,21,23)

>  <source>  (425) 
ChEMBL25

>  <source_id>  (425) 
25

>  <optional_reference>  (425) 
None

>  <optional_origin>  (425) 
None

>  <target>  (425) 
BCRP

$$$$

     RDKit          2D

 20 22  0  0  0  0  0  0  0  0999 V2000
    6.2328   -3.6062    0.0000 O   0  0  0  0  0  0  0  0  0  0  0  0
    5.1945   -3.0045    0.0000 C   0  0  0  0  0  0  0  0  0  0  0  0
    5.1969   -1.5045    0.0000 C   0  0  0  0  0  0  0  0  0  0  0  0
    3.8991   -0.7525    0.0000 C   0  0  0  0  0  0  0  0  0  0  0  0
    2.5987   -1.5004    0.0000 C   0  0  0  0  0  0  0  0  0  0  0  0
    2.5965   -3.0004    0.0000 C   0  0  0  0  0  0  0  0  0  0  0  0
    3.8943   -3.7525    0.0000 C   0  0  0  0  0  0  0  0  0  0  0  0
    1.2990   -0.7500    0.0000 C   0  0  0  0  0  0  0  0  0  0  0  0
    1.2990    0.7500    0.0000 C   0  0  0  0  0  0  0  0  0  0  0  0
    0.0000    1.5000    0.0000 O   0  0  0  0  0  0  0  0  0  0  0  0
   -1.2990    0.7500    0.0000 C   0  0  0  0  0  0  0  0  0  0  0  0
   -2.5981    1.5000    0.0000 C   0  0  0  0  0  0  0  0  0  0  0  0
   -3.8971    0.7500    0.0000 C   0  0  0  0  0  0  0  0  0  0  0  0
   -4.9364    1.3500    0.0000 O   0  0  0  0  0  0  0  0  0  0  0  0
   -3.8971   -0.7500    0.0000 C   0  0  0  0  0  0  0  0  0  0  0  0
   -2.5981   -1.5000    0.0000 C   0  0  0  0  0  0  0  0  0  0  0  0
   -2.5981   -2.7000    0.0000 O   0  0  0  0  0  0  0  0  0  0  0  0
   -1.2990   -0.7500    0.0000 C   0  0  0  0  0  0  0  0  0  0  0  0
    0.0000   -1.5000    0.0000 C   0  0  0  0  0  0  0  0  0  0  0  0
    0.0000   -2.7000    0.0000 O   0  0  0  0  0  0  0  0  0  0  0  0
  1  2  1  0
  2  3  2  0
  3  4  1  0
  4  5  2  0
  5  6  1  0
  6  7  2  0
  7  2  1  0
  5  8  1  0
  8  9  2  0
  9 10  1  0
 10 11  1  0
 11 12  2  0
 12 13  1  0
 13 14  1  0
 13 15  2  0
 15 16  1  0
 16 17  1  0
 16 18  2  0
 18 11  1  0
 18 19  1  0
 19  8  1  0
 19 20  2  0
M  END
>  <Classification>  (426) 
1

>  <pchembl>  (426) 
5.16

>  <InChI_steorem>  (426) 
InChI=1S/C15H10O5/c16-9-3-1-8(2-4-9)11-7-20-13-6-10(17)5-12(18)14(13)15(11)19/h1-7,16-18H

>  <source>  (426) 
ChEMBL25

>  <source_id>  (426) 
25

>  <optional_reference>  (426) 
10.1016/j.bmc.2010.12.043

>  <optional_origin>  (426) 
None

>  <target>  (426) 
BCRP

$$$$

     RDKit          2D

 25 26  0  0  0  0  0  0  0  0999 V2000
    0.2552   -3.1461    0.0000 C   0  0  0  0  0  0  0  0  0  0  0  0
    1.2925   -3.7494    0.0000 O   0  0  0  0  0  0  0  0  0  0  0  0
    2.5951   -3.0039    0.0000 C   0  0  0  0  0  0  0  0  0  0  0  0
    2.5973   -1.5031    0.0000 C   0  0  0  0  0  0  0  0  0  0  0  0
    1.2990   -0.7500    0.0000 C   0  0  0  0  0  0  0  0  0  0  0  0
    1.2990    0.7500    0.0000 C   0  0  0  0  0  0  0  0  0  0  0  0
    0.0000    1.5000    0.0000 C   0  0  0  0  0  0  0  0  0  0  0  0
   -1.2990    0.7500    0.0000 C   0  0  0  0  0  0  0  0  0  0  0  0
   -2.3383    1.3500    0.0000 O   0  0  0  0  0  0  0  0  0  0  0  0
   -1.2990   -0.7500    0.0000 C   0  0  0  0  0  0  0  0  0  0  0  0
    0.0000   -1.5000    0.0000 C   0  0  0  0  0  0  0  0  0  0  0  0
    3.8933   -3.7570    0.0000 C   0  0  0  0  0  0  0  0  0  0  0  0
    4.9336   -3.1588    0.0000 O   0  0  0  0  0  0  0  0  0  0  0  0
    3.8912   -5.2578    0.0000 N   0  0  0  0  0  0  0  0  0  0  0  0
    5.1894   -6.0109    0.0000 C   0  0  0  0  0  0  0  0  0  0  0  0
    5.1873   -7.5117    0.0000 C   0  0  0  0  0  0  0  0  0  0  0  0
    6.4855   -8.2648    0.0000 C   0  0  0  0  0  0  0  0  0  0  0  0
    6.4855   -9.7648    0.0000 C   0  0  0  0  0  0  0  0  0  0  0  0
    7.7846  -10.5149    0.0000 C   0  0  0  0  0  0  0  0  0  0  0  0
    7.7845  -11.7149    0.0000 Br  0  0  0  0  0  0  0  0  0  0  0  0
    9.0836   -9.7649    0.0000 C   0  0  0  0  0  0  0  0  0  0  0  0
   10.1228  -10.3649    0.0000 O   0  0  0  0  0  0  0  0  0  0  0  0
    9.0836   -8.2649    0.0000 C   0  0  0  0  0  0  0  0  0  0  0  0
   10.1229   -7.6649    0.0000 Br  0  0  0  0  0  0  0  0  0  0  0  0
    7.7846   -7.5149    0.0000 C   0  0  0  0  0  0  0  0  0  0  0  0
  1  2  1  0
  2  3  1  0
  3  4  2  3
  4  5  1  0
  5  6  2  0
  6  7  1  0
  7  8  2  0
  8  9  1  0
  8 10  1  0
 10 11  2  0
 11  5  1  0
  3 12  1  0
 12 13  2  0
 12 14  1  0
 14 15  1  0
 15 16  2  3
 16 17  1  0
 17 18  2  0
 18 19  1  0
 19 20  1  0
 19 21  2  0
 21 22  1  0
 21 23  1  0
 23 24  1  0
 23 25  2  0
 25 17  1  0
M  END
>  <Classification>  (427) 
1

>  <pchembl>  (427) 
5.16

>  <InChI_steorem>  (427) 
InChI=1S/C18H15Br2NO4/c1-25-16(10-11-2-4-13(22)5-3-11)18(24)21-7-6-12-8-14(19)17(23)15(20)9-12/h2-10,22-23H,1H3,(H,21,24)

>  <source>  (427) 
ChEMBL25

>  <source_id>  (427) 
25

>  <optional_reference>  (427) 
None

>  <optional_origin>  (427) 
None

>  <target>  (427) 
BCRP

$$$$

     RDKit          2D

 24 25  0  0  0  0  0  0  0  0999 V2000
    0.2552   -3.1461    0.0000 C   0  0  0  0  0  0  0  0  0  0  0  0
    1.2925   -3.7494    0.0000 O   0  0  0  0  0  0  0  0  0  0  0  0
    2.5951   -3.0039    0.0000 C   0  0  0  0  0  0  0  0  0  0  0  0
    2.5973   -1.5031    0.0000 C   0  0  0  0  0  0  0  0  0  0  0  0
    1.2990   -0.7500    0.0000 C   0  0  0  0  0  0  0  0  0  0  0  0
    1.2990    0.7500    0.0000 C   0  0  0  0  0  0  0  0  0  0  0  0
    0.0000    1.5000    0.0000 C   0  0  0  0  0  0  0  0  0  0  0  0
   -1.2990    0.7500    0.0000 C   0  0  0  0  0  0  0  0  0  0  0  0
   -2.3383    1.3500    0.0000 O   0  0  0  0  0  0  0  0  0  0  0  0
   -1.2990   -0.7500    0.0000 C   0  0  0  0  0  0  0  0  0  0  0  0
    0.0000   -1.5000    0.0000 C   0  0  0  0  0  0  0  0  0  0  0  0
    3.8933   -3.7570    0.0000 C   0  0  0  0  0  0  0  0  0  0  0  0
    4.9336   -3.1588    0.0000 O   0  0  0  0  0  0  0  0  0  0  0  0
    3.8912   -5.2578    0.0000 N   0  0  0  0  0  0  0  0  0  0  0  0
    5.1894   -6.0109    0.0000 C   0  0  0  0  0  0  0  0  0  0  0  0
    5.1873   -7.5117    0.0000 C   0  0  0  0  0  0  0  0  0  0  0  0
    6.4855   -8.2648    0.0000 C   0  0  0  0  0  0  0  0  0  0  0  0
    6.4855   -9.7648    0.0000 C   0  0  0  0  0  0  0  0  0  0  0  0
    7.7846  -10.5149    0.0000 C   0  0  0  0  0  0  0  0  0  0  0  0
    9.0836   -9.7649    0.0000 C   0  0  0  0  0  0  0  0  0  0  0  0
   10.3849  -10.5127    0.0000 O   0  0  0  0  0  0  0  0  0  0  0  0
   11.4233   -9.9112    0.0000 C   0  0  0  0  0  0  0  0  0  0  0  0
    9.0836   -8.2649    0.0000 C   0  0  0  0  0  0  0  0  0  0  0  0
    7.7846   -7.5149    0.0000 C   0  0  0  0  0  0  0  0  0  0  0  0
  1  2  1  0
  2  3  1  0
  3  4  2  3
  4  5  1  0
  5  6  2  0
  6  7  1  0
  7  8  2  0
  8  9  1  0
  8 10  1  0
 10 11  2  0
 11  5  1  0
  3 12  1  0
 12 13  2  0
 12 14  1  0
 14 15  1  0
 15 16  2  3
 16 17  1  0
 17 18  2  0
 18 19  1  0
 19 20  2  0
 20 21  1  0
 21 22  1  0
 20 23  1  0
 23 24  2  0
 24 17  1  0
M  END
>  <Classification>  (428) 
0

>  <pchembl>  (428) 
4.38

>  <InChI_steorem>  (428) 
InChI=1S/C19H19NO4/c1-23-17-9-5-14(6-10-17)11-12-20-19(22)18(24-2)13-15-3-7-16(21)8-4-15/h3-13,21H,1-2H3,(H,20,22)

>  <source>  (428) 
ChEMBL25

>  <source_id>  (428) 
25

>  <optional_reference>  (428) 
None

>  <optional_origin>  (428) 
None

>  <target>  (428) 
BCRP

$$$$

     RDKit          2D

 37 41  0  0  0  0  0  0  0  0999 V2000
    2.3383   -1.3500    0.0000 C   0  0  0  0  0  0  0  0  0  0  0  0
    1.2990   -0.7500    0.0000 N   0  0  0  0  0  0  0  0  0  0  0  0
    1.2990    0.7500    0.0000 C   0  0  0  0  0  0  0  0  0  0  0  0
    0.0000    1.5000    0.0000 C   0  0  0  0  0  0  0  0  0  0  0  0
   -1.2990    0.7500    0.0000 N   0  0  0  0  0  0  0  0  0  0  0  0
   -2.6003    1.4977    0.0000 C   0  0  0  0  0  0  0  0  0  0  0  0
   -3.8990    0.7455    0.0000 C   0  0  0  0  0  0  0  0  0  0  0  0
   -5.2007    1.4909    0.0000 C   0  0  0  0  0  0  0  0  0  0  0  0
   -6.4972    0.7364    0.0000 C   0  0  0  0  0  0  0  0  0  0  0  0
   -6.4920   -0.7636    0.0000 C   0  0  0  0  0  0  0  0  0  0  0  0
   -5.1903   -1.5091    0.0000 C   0  0  0  0  0  0  0  0  0  0  0  0
   -3.8939   -0.7546    0.0000 C   0  0  0  0  0  0  0  0  0  0  0  0
   -7.7876   -1.5212    0.0000 C   0  0  0  0  0  0  0  0  0  0  0  0
   -8.8299   -0.9266    0.0000 O   0  0  0  0  0  0  0  0  0  0  0  0
   -7.7802   -3.0220    0.0000 N   0  0  0  0  0  0  0  0  0  0  0  0
   -9.0758   -3.7796    0.0000 C   0  0  0  0  0  0  0  0  0  0  0  0
   -9.0707   -5.2796    0.0000 C   0  0  0  0  0  0  0  0  0  0  0  0
  -10.3671   -6.0341    0.0000 C   0  0  0  0  0  0  0  0  0  0  0  0
  -11.6687   -5.2886    0.0000 C   0  0  0  0  0  0  0  0  0  0  0  0
  -12.7059   -5.8922    0.0000 C   0  0  0  0  0  0  0  0  0  0  0  0
  -11.6740   -3.7886    0.0000 C   0  0  0  0  0  0  0  0  0  0  0  0
  -12.9748   -3.0401    0.0000 N   0  0  0  0  0  0  0  0  0  0  0  0
  -12.9779   -1.5393    0.0000 C   0  0  0  0  0  0  0  0  0  0  0  0
  -14.2769   -0.7892    0.0000 N   0  0  0  0  0  0  0  0  0  0  0  0
  -14.2770    0.7108    0.0000 C   0  0  0  0  0  0  0  0  0  0  0  0
  -12.9780    1.4608    0.0000 C   0  0  0  0  0  0  0  0  0  0  0  0
  -11.6789    0.7109    0.0000 C   0  0  0  0  0  0  0  0  0  0  0  0
  -11.6789   -0.7891    0.0000 N   0  0  0  0  0  0  0  0  0  0  0  0
  -10.3792    1.4613    0.0000 C   0  0  0  0  0  0  0  0  0  0  0  0
  -10.3768    2.9613    0.0000 C   0  0  0  0  0  0  0  0  0  0  0  0
   -9.0766    3.7093    0.0000 C   0  0  0  0  0  0  0  0  0  0  0  0
   -7.7787    2.9573    0.0000 C   0  0  0  0  0  0  0  0  0  0  0  0
   -7.7811    1.4573    0.0000 N   0  0  0  0  0  0  0  0  0  0  0  0
   -9.0813    0.7093    0.0000 C   0  0  0  0  0  0  0  0  0  0  0  0
  -10.3776   -3.0341    0.0000 C   0  0  0  0  0  0  0  0  0  0  0  0
   -1.2990   -0.7500    0.0000 C   0  0  0  0  0  0  0  0  0  0  0  0
    0.0000   -1.5000    0.0000 C   0  0  0  0  0  0  0  0  0  0  0  0
  1  2  1  0
  2  3  1  0
  3  4  1  0
  4  5  1  0
  5  6  1  0
  6  7  1  0
  7  8  2  0
  8  9  1  0
  9 10  2  0
 10 11  1  0
 11 12  2  0
 12  7  1  0
 10 13  1  0
 13 14  2  0
 13 15  1  0
 15 16  1  0
 16 17  2  0
 17 18  1  0
 18 19  2  0
 19 20  1  0
 19 21  1  0
 21 22  1  0
 22 23  1  0
 23 24  2  0
 24 25  1  0
 25 26  2  0
 26 27  1  0
 27 28  2  0
 28 23  1  0
 27 29  1  0
 29 30  2  0
 30 31  1  0
 31 32  2  0
 32 33  1  0
 33 34  2  0
 34 29  1  0
 21 35  2  0
 35 16  1  0
  5 36  1  0
 36 37  1  0
 37  2  1  0
M  END
>  <Classification>  (429) 
1

>  <pchembl>  (429) 
5.31

>  <InChI_steorem>  (429) 
InChI=1S/C29H31N7O/c1-21-5-10-25(18-27(21)34-29-31-13-11-26(33-29)24-4-3-12-30-19-24)32-28(37)23-8-6-22(7-9-23)20-36-16-14-35(2)15-17-36/h3-13,18-19H,14-17,20H2,1-2H3,(H,32,37)(H,31,33,34)

>  <source>  (429) 
ChEMBL25

>  <source_id>  (429) 
25

>  <optional_reference>  (429) 
10.1016/j.bmc.2008.07.034

>  <optional_origin>  (429) 
None

>  <target>  (429) 
BCRP

$$$$

     RDKit          2D

 86 86  0  0  0  0  0  0  0  0999 V2000
    0.0837    1.5703    0.0000 C   0  0  0  0  0  0  0  0  0  0  0  0
    0.7976    1.9806    0.0000 C   0  0  0  0  0  0  0  0  0  0  0  0
    1.5114    1.5703    0.0000 N   0  0  0  0  0  0  0  0  0  0  0  0
    0.7976    2.8056    0.0000 O   0  0  0  0  0  0  0  0  0  0  0  0
    1.5114    0.7454    0.0000 C   0  0  0  0  0  0  0  0  0  0  0  0
    2.2253    1.9806    0.0000 C   0  0  0  0  0  0  0  0  0  0  0  0
    2.2253    0.3308    0.0000 C   0  0  0  0  0  0  0  0  0  0  0  0
    2.9392    1.5703    0.0000 C   0  0  0  0  0  0  0  0  0  0  0  0
    2.2253    2.8056    0.0000 C   0  0  0  0  0  0  0  0  0  0  0  0
    2.9392    3.2202    0.0000 C   0  0  0  0  0  0  0  0  0  0  0  0
    1.5114    3.2202    0.0000 C   0  0  0  0  0  0  0  0  0  0  0  0
    2.9392    0.7454    0.0000 O   0  0  0  0  0  0  0  0  0  0  0  0
    3.6572    1.9806    0.0000 N   0  0  0  0  0  0  0  0  0  0  0  0
    4.3710    1.5703    0.0000 C   0  0  0  0  0  0  0  0  0  0  0  0
    5.0849    1.9806    0.0000 C   0  0  0  0  0  0  0  0  0  0  0  0
    4.3710    0.7454    0.0000 C   0  0  0  0  0  0  0  0  0  0  0  0
    3.6572    0.3308    0.0000 O   0  0  0  0  0  0  0  0  0  0  0  0
    5.0849    0.3308    0.0000 N   0  0  0  0  0  0  0  0  0  0  0  0
    5.0849   -0.4942    0.0000 C   0  0  0  0  0  0  0  0  0  0  0  0
    5.7987    0.7454    0.0000 C   0  0  0  0  0  0  0  0  0  0  0  0
    4.3710   -0.9045    0.0000 C   0  0  0  0  0  0  0  0  0  0  0  0
    5.7987   -0.9045    0.0000 C   0  0  0  0  0  0  0  0  0  0  0  0
    5.7987   -1.7294    0.0000 N   0  0  0  0  0  0  0  0  0  0  0  0
    6.5126   -0.4942    0.0000 O   0  0  0  0  0  0  0  0  0  0  0  0
    6.5126   -2.1440    0.0000 C   0  0  0  0  0  0  0  0  0  0  0  0
    6.5126   -2.9690    0.0000 C   0  0  0  0  0  0  0  0  0  0  0  0
    7.2264   -1.7294    0.0000 C   0  0  0  0  0  0  0  0  0  0  0  0
    5.7987   -3.3793    0.0000 N   0  0  0  0  0  0  0  0  0  0  0  0
    7.2264   -3.3793    0.0000 O   0  0  0  0  0  0  0  0  0  0  0  0
    5.7987   -4.2042    0.0000 C   0  0  0  0  0  0  0  0  0  0  0  0
    5.0849   -4.6188    0.0000 C   0  0  0  0  0  0  0  0  0  0  0  0
    6.5126   -4.6188    0.0000 C   0  0  0  0  0  0  0  0  0  0  0  0
    4.3710   -4.2042    0.0000 N   0  0  0  0  0  0  0  0  0  0  0  0
    5.0849   -5.4438    0.0000 O   0  0  0  0  0  0  0  0  0  0  0  0
    4.3710   -3.3793    0.0000 C   0  0  0  0  0  0  0  0  0  0  0  0
    3.6572   -4.6188    0.0000 C   0  0  0  0  0  0  0  0  0  0  0  0
    2.9392   -4.2042    0.0000 C   0  0  0  0  0  0  0  0  0  0  0  0
    3.6572   -5.4438    0.0000 C   0  0  0  0  0  0  0  0  0  0  0  0
    2.9392   -3.3793    0.0000 O   0  0  0  0  0  0  0  0  0  0  0  0
    2.2253   -4.6188    0.0000 N   0  0  0  0  0  0  0  0  0  0  0  0
    1.5114   -4.2042    0.0000 C   0  0  0  0  0  0  0  0  0  0  0  0
    2.2253   -5.4438    0.0000 C   0  0  0  0  0  0  0  0  0  0  0  0
    1.5114   -3.3793    0.0000 C   0  0  0  0  0  0  0  0  0  0  0  0
    0.7976   -4.6188    0.0000 C   0  0  0  0  0  0  0  0  0  0  0  0
    0.0837   -4.2042    0.0000 N   0  0  0  0  0  0  0  0  0  0  0  0
    0.7976   -5.4438    0.0000 O   0  0  0  0  0  0  0  0  0  0  0  0
    1.9178   -2.6590    0.0000 C   0  0  0  0  0  0  0  0  0  0  0  0
    1.4944   -1.9504    0.0000 C   0  0  0  0  0  0  0  0  0  0  0  0
    2.7427   -2.6488    0.0000 C   0  0  0  0  0  0  0  0  0  0  0  0
    0.0837   -3.3793    0.0000 C   0  0  0  0  0  0  0  0  0  0  0  0
   -0.6301   -4.6188    0.0000 C   0  0  0  0  0  0  0  0  0  0  0  0
    0.7976   -2.9690    0.0000 C   0  0  0  0  0  0  0  0  0  0  0  0
   -0.6301   -2.9690    0.0000 C   0  0  0  0  0  0  0  0  0  0  0  0
    0.7976   -2.1440    0.0000 C   0  0  0  0  0  0  0  0  0  0  0  0
    1.6206   -2.9647    0.0000 C   0  0  0  0  0  0  0  0  0  0  0  0
   -0.6301   -2.1440    0.0000 N   0  0  0  0  0  0  0  0  0  0  0  0
   -1.3440   -3.3793    0.0000 O   0  0  0  0  0  0  0  0  0  0  0  0
    0.0837   -1.7294    0.0000 C   0  0  0  0  0  0  0  0  0  0  0  0
   -1.3440   -1.7294    0.0000 C   0  0  0  0  0  0  0  0  0  0  0  0
   -1.3440   -0.9045    0.0000 C   0  0  0  0  0  0  0  0  0  0  0  0
   -2.0619   -2.1440    0.0000 C   0  0  0  0  0  0  0  0  0  0  0  0
   -2.7759   -1.7294    0.0000 C   0  0  0  0  0  0  0  0  0  0  0  0
   -2.0619   -2.9690    0.0000 O   0  0  0  0  0  0  0  0  0  0  0  0
   -2.7758   -0.9045    0.0000 C   0  0  0  0  0  0  0  0  0  0  0  0
   -3.4897   -2.1440    0.0000 C   0  0  0  0  0  0  0  0  0  0  0  0
   -4.1966   -1.7294    0.0000 C   0  0  0  0  0  0  0  0  0  0  0  0
   -4.9121   -2.1409    0.0000 C   0  0  0  0  0  0  0  0  0  0  0  0
   -5.6243   -1.7233    0.0000 C   0  0  0  0  0  0  0  0  0  0  0  0
   -2.0619   -0.4942    0.0000 N   0  0  0  0  0  0  0  0  0  0  0  0
   -0.6301   -0.4942    0.0000 O   0  0  0  0  0  0  0  0  0  0  0  0
   -2.0619    0.3308    0.0000 C   0  0  0  0  0  0  0  0  0  0  0  0
   -0.6301    1.9806    0.0000 N   0  0  0  0  0  0  0  0  0  0  0  0
    0.0837    0.7454    0.0000 C   0  0  0  0  0  0  0  0  0  0  0  0
   -0.6301    2.8056    0.0000 C   0  0  0  0  0  0  0  0  0  0  0  0
   -1.3440    1.5703    0.0000 C   0  0  0  0  0  0  0  0  0  0  0  0
   -1.9302    2.1524    0.0000 O   0  0  0  0  0  0  0  0  0  0  0  0
    2.9392   -5.8541    0.0000 C   0  0  0  0  0  0  0  0  0  0  0  0
    2.1105   -5.8458    0.0000 C   0  0  0  0  0  0  0  0  0  0  0  0
    2.9313   -6.6749    0.0000 C   0  0  0  0  0  0  0  0  0  0  0  0
    5.7987    1.5703    0.0000 C   0  0  0  0  0  0  0  0  0  0  0  0
    5.0849    2.8056    0.0000 C   0  0  0  0  0  0  0  0  0  0  0  0
    4.3710   -1.7294    0.0000 C   0  0  0  0  0  0  0  0  0  0  0  0
    3.6572   -2.1440    0.0000 C   0  0  0  0  0  0  0  0  0  0  0  0
    5.0849   -2.1440    0.0000 C   0  0  0  0  0  0  0  0  0  0  0  0
   -2.8894    0.3392    0.0000 C   0  0  0  0  0  0  0  0  0  0  0  0
   -3.2925    1.0572    0.0000 C   0  0  0  0  0  0  0  0  0  0  0  0
 19 22  1  0
 41 44  1  0
  3  6  1  0
 44 45  1  0
 22 23  1  0
 44 46  2  0
  8 12  2  0
 43 47  1  0
 22 24  2  0
 47 48  1  0
  1  2  1  0
 47 49  1  0
 23 25  1  0
 45 50  1  0
  8 13  1  0
 45 51  1  0
 25 26  1  0
 50 52  1  0
  5  7  1  0
 50 53  1  0
 25 27  1  0
 52 54  1  0
 13 14  1  0
 52 55  1  0
 26 28  1  0
 53 56  1  0
  2  4  2  0
 53 57  2  0
 26 29  2  0
 56 58  1  0
 14 15  1  0
 59 56  1  0
 28 30  1  0
 59 60  1  0
  6  8  1  0
 59 61  1  0
 30 31  1  0
 61 62  1  0
 14 16  1  0
 61 63  1  0
 30 32  1  0
 62 64  1  0
 62 65  1  0
 31 33  1  0
 65 66  1  0
 16 17  2  0
 66 67  2  3
 31 34  2  0
 67 68  1  0
  6  9  1  0
 60 69  1  0
 33 35  1  0
 60 70  2  0
 16 18  1  0
 69 71  1  0
 33 36  1  0
  1 72  1  0
  3  5  1  0
  1 73  1  0
 36 37  1  0
 72 74  1  0
 18 19  1  0
 72 75  1  0
 71 75  1  0
 36 38  1  0
 75 76  2  0
  9 10  1  0
 38 77  1  0
 37 39  2  0
 77 78  1  0
 18 20  1  0
 77 79  1  0
 37 40  1  0
 15 80  1  0
  2  3  1  0
 15 81  1  0
 40 41  1  0
 21 82  1  0
 19 21  1  0
 82 83  1  0
 40 42  1  0
 82 84  1  0
  9 11  1  0
 71 85  1  0
 41 43  1  0
 85 86  1  0
M  END
>  <Classification>  (430) 
1

>  <pchembl>  (430) 
5.6

>  <InChI_steorem>  (430) 
InChI=1S/C63H113N11O12/c1-26-29-30-40(16)52(75)51-56(79)66-44(27-2)59(82)68(20)43(19)58(81)74(28-3)49(38(12)13)55(78)67-48(37(10)11)62(85)69(21)45(31-34(4)5)54(77)64-41(17)53(76)65-42(18)57(80)70(22)46(32-35(6)7)60(83)71(23)47(33-36(8)9)61(84)72(24)50(39(14)15)63(86)73(51)25/h26,29,34-52,75H,27-28,30-33H2,1-25H3,(H,64,77)(H,65,76)(H,66,79)(H,67,78)

>  <source>  (430) 
ChEMBL25

>  <source_id>  (430) 
25

>  <optional_reference>  (430) 
10.1021/jm500862r

>  <optional_origin>  (430) 
None

>  <target>  (430) 
BCRP

$$$$

     RDKit          2D

 20 22  0  0  0  0  0  0  0  0999 V2000
    0.5846    0.3953    0.0000 O   0  0  0  0  0  0  0  0  0  0  0  0
    2.0136   -2.0797    0.0000 O   0  0  0  0  0  0  0  0  0  0  0  0
    0.5846   -2.0797    0.0000 O   0  0  0  0  0  0  0  0  0  0  0  0
    3.4425    0.3953    0.0000 O   0  0  0  0  0  0  0  0  0  0  0  0
    1.2991   -0.8422    0.0000 C   0  0  0  0  0  0  0  0  0  0  0  0
    1.2991   -0.0172    0.0000 C   0  0  0  0  0  0  0  0  0  0  0  0
    2.0136   -1.2547    0.0000 C   0  0  0  0  0  0  0  0  0  0  0  0
    0.5846   -1.2547    0.0000 C   0  0  0  0  0  0  0  0  0  0  0  0
   -0.1298   -0.0172    0.0000 C   0  0  0  0  0  0  0  0  0  0  0  0
    2.7281   -0.8422    0.0000 C   0  0  0  0  0  0  0  0  0  0  0  0
    2.7281   -0.0172    0.0000 C   0  0  0  0  0  0  0  0  0  0  0  0
    2.0136    0.3953    0.0000 C   0  0  0  0  0  0  0  0  0  0  0  0
   -0.1298   -0.8422    0.0000 C   0  0  0  0  0  0  0  0  0  0  0  0
   -0.8443    0.3953    0.0000 C   0  0  0  0  0  0  0  0  0  0  0  0
    3.4425   -1.2547    0.0000 C   0  0  0  0  0  0  0  0  0  0  0  0
   -1.5588   -0.0172    0.0000 C   0  0  0  0  0  0  0  0  0  0  0  0
   -0.8443    1.2203    0.0000 C   0  0  0  0  0  0  0  0  0  0  0  0
   -2.2732    0.3953    0.0000 C   0  0  0  0  0  0  0  0  0  0  0  0
   -1.5588    1.6328    0.0000 C   0  0  0  0  0  0  0  0  0  0  0  0
   -2.2732    1.2203    0.0000 C   0  0  0  0  0  0  0  0  0  0  0  0
  1  6  1  0
  1  9  1  0
  2  7  1  0
  3  8  2  0
  4 11  1  0
  5  6  2  0
  5  7  1  0
  5  8  1  0
  6 12  1  0
  7 10  2  0
  8 13  1  0
  9 13  1  0
  9 14  1  0
 10 11  1  0
 10 15  1  0
 11 12  2  0
 14 16  2  0
 14 17  1  0
 16 18  1  0
 17 19  2  0
 18 20  2  0
 19 20  1  0
M  END
>  <Classification>  (431) 
0

>  <pchembl>  (431) 
4.96

>  <InChI_steorem>  (431) 
InChI=1S/C16H14O4/c1-9-11(17)7-14-15(16(9)19)12(18)8-13(20-14)10-5-3-2-4-6-10/h2-7,13,17,19H,8H2,1H3

>  <source>  (431) 
ChEMBL25

>  <source_id>  (431) 
25

>  <optional_reference>  (431) 
10.1016/j.bmc.2010.12.043

>  <optional_origin>  (431) 
None

>  <target>  (431) 
BCRP

$$$$

     RDKit          2D

 40 43  0  0  0  0  0  0  0  0999 V2000
    7.6000   -2.8000    0.0000 N   0  0  0  0  0  0  0  0  0  0  0  0
    8.2417   -2.4250    0.0000 C   0  0  0  0  0  0  0  0  0  0  0  0
    4.5417   -2.4542    0.0000 C   0  0  0  0  0  0  0  0  0  0  0  0
    8.2417   -1.6667    0.0000 C   0  0  0  0  0  0  0  0  0  0  0  0
    5.1792   -2.8000    0.0000 N   0  0  0  0  0  0  0  0  0  0  0  0
    3.8917   -2.8125    0.0000 C   0  0  0  0  0  0  0  0  0  0  0  0
    8.8292   -2.8000    0.0000 C   0  0  0  0  0  0  0  0  0  0  0  0
    7.0167   -2.4542    0.0000 C   0  0  0  0  0  0  0  0  0  0  0  0
    3.2542   -2.4542    0.0000 C   0  0  0  0  0  0  0  0  0  0  0  0
    7.5875   -3.4917    0.0000 C   0  0  0  0  0  0  0  0  0  0  0  0
    5.8042   -2.4542    0.0000 C   0  0  0  0  0  0  0  0  0  0  0  0
    8.8167   -1.3167    0.0000 N   0  0  0  0  0  0  0  0  0  0  0  0
    6.4250   -2.8000    0.0000 C   0  0  0  0  0  0  0  0  0  0  0  0
    8.8292   -3.5042    0.0000 C   0  0  0  0  0  0  0  0  0  0  0  0
    8.2292   -3.8667    0.0000 C   0  0  0  0  0  0  0  0  0  0  0  0
    4.5417   -1.7417    0.0000 O   0  0  0  0  0  0  0  0  0  0  0  0
    7.6250   -1.3167    0.0000 O   0  0  0  0  0  0  0  0  0  0  0  0
    2.6250   -2.8125    0.0000 C   0  0  0  0  0  0  0  0  0  0  0  0
    5.8042   -1.7625    0.0000 C   0  0  0  0  0  0  0  0  0  0  0  0
    9.4042   -1.6417    0.0000 C   0  0  0  0  0  0  0  0  0  0  0  0
    6.3917   -1.4000    0.0000 S   0  0  0  0  0  0  0  0  0  0  0  0
    6.4250   -3.5167    0.0000 O   0  0  0  0  0  0  0  0  0  0  0  0
    6.3917   -0.7042    0.0000 C   0  0  0  0  0  0  0  0  0  0  0  0
    1.9917   -2.4542    0.0000 O   0  0  0  0  0  0  0  0  0  0  0  0
    3.8917   -3.5417    0.0000 C   0  0  0  0  0  0  0  0  0  0  0  0
    3.2542   -1.7625    0.0000 C   0  0  0  0  0  0  0  0  0  0  0  0
    3.2542   -3.9250    0.0000 C   0  0  0  0  0  0  0  0  0  0  0  0
    2.6250   -3.5417    0.0000 C   0  0  0  0  0  0  0  0  0  0  0  0
    9.4625   -3.8417    0.0000 C   0  0  0  0  0  0  0  0  0  0  0  0
    8.2292   -4.5750    0.0000 C   0  0  0  0  0  0  0  0  0  0  0  0
    9.7542   -2.2542    0.0000 C   0  0  0  0  0  0  0  0  0  0  0  0
   10.0167   -1.3167    0.0000 C   0  0  0  0  0  0  0  0  0  0  0  0
    9.0500   -2.2542    0.0000 C   0  0  0  0  0  0  0  0  0  0  0  0
    5.8000   -0.3417    0.0000 C   0  0  0  0  0  0  0  0  0  0  0  0
    6.9667   -0.3417    0.0000 C   0  0  0  0  0  0  0  0  0  0  0  0
    9.4625   -4.5750    0.0000 C   0  0  0  0  0  0  0  0  0  0  0  0
    8.8500   -4.9292    0.0000 C   0  0  0  0  0  0  0  0  0  0  0  0
    6.9667    0.3208    0.0000 C   0  0  0  0  0  0  0  0  0  0  0  0
    5.8000    0.3208    0.0000 C   0  0  0  0  0  0  0  0  0  0  0  0
    6.3917    0.6750    0.0000 C   0  0  0  0  0  0  0  0  0  0  0  0
  2  1  1  0
  3  5  1  0
  2  4  1  0
  5 11  1  0
  6  3  1  0
  7  2  1  0
  8  1  1  0
  9  6  2  0
 10  1  1  0
 11 13  1  0
 12  4  1  0
 13  8  1  0
 14 15  1  0
 15 10  1  0
 16  3  2  0
 17  4  2  0
 18  9  1  0
 11 19  1  0
 20 12  1  0
 21 19  1  0
 13 22  1  0
 23 21  1  0
 24 18  1  0
 25  6  1  0
 26  9  1  0
 27 25  2  0
 28 18  2  0
 29 14  1  0
 30 15  1  0
 31 20  1  0
 32 20  1  0
 33 20  1  0
 34 23  2  0
 35 23  1  0
 36 37  1  0
 37 30  1  0
 38 35  2  0
 39 34  1  0
 40 39  2  0
 14  7  1  0
 36 29  1  0
 27 28  1  0
 40 38  1  0
M  END
>  <Classification>  (432) 
0

>  <pchembl>  (432) 
4.9

>  <InChI_steorem>  (432) 
InChI=1S/C32H45N3O4S/c1-21-25(15-10-16-28(21)36)30(38)33-26(20-40-24-13-6-5-7-14-24)29(37)19-35-18-23-12-9-8-11-22(23)17-27(35)31(39)34-32(2,3)4/h5-7,10,13-16,22-23,26-27,29,36-37H,8-9,11-12,17-20H2,1-4H3,(H,33,38)(H,34,39)

>  <source>  (432) 
ChEMBL25

>  <source_id>  (432) 
25

>  <optional_reference>  (432) 
10.1124/jpet.104.065342

>  <optional_origin>  (432) 
None

>  <target>  (432) 
BCRP

$$$$

     RDKit          2D

 35 37  0  0  0  0  0  0  0  0999 V2000
    3.8167   -3.9417    0.0000 C   0  0  0  0  0  0  0  0  0  0  0  0
    2.5875   -3.9542    0.0000 C   0  0  0  0  0  0  0  0  0  0  0  0
    3.2042   -4.3042    0.0000 C   0  0  0  0  0  0  0  0  0  0  0  0
    3.8167   -3.2292    0.0000 C   0  0  0  0  0  0  0  0  0  0  0  0
    2.5875   -3.2292    0.0000 C   0  0  0  0  0  0  0  0  0  0  0  0
    3.2042   -2.8667    0.0000 N   0  0  0  0  0  0  0  0  0  0  0  0
    4.4667   -6.4417    0.0000 N   0  0  0  0  0  0  0  0  0  0  0  0
    3.2042   -5.0125    0.0000 C   0  0  0  0  0  0  0  0  0  0  0  0
    4.4667   -4.3042    0.0000 C   0  0  0  0  0  0  0  0  0  0  0  0
    1.9792   -4.3167    0.0000 C   0  0  0  0  0  0  0  0  0  0  0  0
    3.8042   -6.0750    0.0000 C   0  0  0  0  0  0  0  0  0  0  0  0
    3.8167   -5.3542    0.0000 C   0  0  0  0  0  0  0  0  0  0  0  0
    4.4542   -7.1667    0.0000 O   0  0  0  0  0  0  0  0  0  0  0  0
    4.9542   -6.1667    0.0000 O   0  0  0  0  0  0  0  0  0  0  0  0
    1.9667   -5.0292    0.0000 O   0  0  0  0  0  0  0  0  0  0  0  0
    4.4542   -5.0125    0.0000 O   0  0  0  0  0  0  0  0  0  0  0  0
    6.9250   -4.2375    0.0000 N   0  0  0  0  0  0  0  0  0  0  0  0
    5.0542   -3.9292    0.0000 O   0  0  0  0  0  0  0  0  0  0  0  0
    7.5417   -3.8542    0.0000 C   0  0  0  0  0  0  0  0  0  0  0  0
    1.3625   -3.9667    0.0000 O   0  0  0  0  0  0  0  0  0  0  0  0
    1.9500   -2.8542    0.0000 C   0  0  0  0  0  0  0  0  0  0  0  0
    4.4375   -2.8542    0.0000 C   0  0  0  0  0  0  0  0  0  0  0  0
    2.5875   -5.3625    0.0000 C   0  0  0  0  0  0  0  0  0  0  0  0
    8.1625   -4.1875    0.0000 C   0  0  0  0  0  0  0  0  0  0  0  0
    5.6917   -4.2667    0.0000 C   0  0  0  0  0  0  0  0  0  0  0  0
    3.2042   -6.4375    0.0000 C   0  0  0  0  0  0  0  0  0  0  0  0
    2.5875   -6.0750    0.0000 C   0  0  0  0  0  0  0  0  0  0  0  0
    6.3042   -3.9000    0.0000 C   0  0  0  0  0  0  0  0  0  0  0  0
    6.9250   -4.9375    0.0000 C   0  0  0  0  0  0  0  0  0  0  0  0
    0.7542   -4.3042    0.0000 C   0  0  0  0  0  0  0  0  0  0  0  0
    8.1750   -4.9042    0.0000 C   0  0  0  0  0  0  0  0  0  0  0  0
    8.7667   -3.8250    0.0000 C   0  0  0  0  0  0  0  0  0  0  0  0
    8.7792   -5.2542    0.0000 C   0  0  0  0  0  0  0  0  0  0  0  0
    9.3792   -4.1625    0.0000 C   0  0  0  0  0  0  0  0  0  0  0  0
    9.3917   -4.8667    0.0000 C   0  0  0  0  0  0  0  0  0  0  0  0
  2  3  1  0
  3  1  1  0
  4  1  2  0
  5  6  1  0
  6  4  1  0
  7 11  1  0
  8  3  1  0
  9  1  1  0
 10  2  1  0
 11 12  2  0
 12  8  1  0
 13  7  1  0
 14  7  2  0
 15 10  2  0
 16  9  2  0
 17 28  1  0
 18  9  1  0
 19 17  1  0
 20 10  1  0
 21  5  1  0
 22  4  1  0
 23  8  2  0
 24 19  1  0
 25 18  1  0
 26 27  2  0
 27 23  1  0
 28 25  1  0
 29 17  1  0
 30 20  1  0
 31 24  2  0
 32 24  1  0
 33 31  1  0
 34 32  2  0
 35 33  2  0
  5  2  2  0
 26 11  1  0
 35 34  1  0
M  CHG  2   7   1  13  -1
M  END
>  <Classification>  (433) 
0

>  <pchembl>  (433) 
4.78

>  <InChI_steorem>  (433) 
InChI=1S/C26H29N3O6/c1-17-22(25(30)34-4)24(20-11-8-12-21(15-20)29(32)33)23(18(2)27-17)26(31)35-14-13-28(3)16-19-9-6-5-7-10-19/h5-12,15,24,27H,13-14,16H2,1-4H3

>  <source>  (433) 
ChEMBL25

>  <source_id>  (433) 
25

>  <optional_reference>  (433) 
10.1016/j.bmc.2008.07.034

>  <optional_origin>  (433) 
None

>  <target>  (433) 
BCRP

$$$$

     RDKit          2D

 26 29  0  0  0  0  0  0  0  0999 V2000
   -3.7800    1.8600    0.0000 C   0  0  0  0  0  0  0  0  0  0  0  0
   -3.7800    0.4000    0.0000 C   0  0  0  0  0  0  0  0  0  0  0  0
   -2.5200   -0.3300    0.0000 C   0  0  0  0  0  0  0  0  0  0  0  0
   -2.5200    2.6000    0.0000 C   0  0  0  0  0  0  0  0  0  0  0  0
   -1.2800    1.8600    0.0000 C   0  0  0  0  0  0  0  0  0  0  0  0
   -1.2800    0.4000    0.0000 C   0  0  0  0  0  0  0  0  0  0  0  0
    0.0000   -0.3300    0.0000 N   0  0  0  0  0  0  0  0  0  0  0  0
    1.2600    1.8600    0.0000 C   0  0  0  0  0  0  0  0  0  0  0  0
    1.2600    0.4000    0.0000 C   0  0  0  0  0  0  0  0  0  0  0  0
    2.5200   -0.3300    0.0000 C   0  0  0  0  0  0  0  0  0  0  0  0
    2.5200    2.6000    0.0000 C   0  0  0  0  0  0  0  0  0  0  0  0
    3.8000    1.8600    0.0000 C   0  0  0  0  0  0  0  0  0  0  0  0
    3.8000    0.4000    0.0000 N   0  0  0  0  0  0  0  0  0  0  0  0
    5.0500   -0.3600    0.0000 C   0  0  0  0  0  0  0  0  0  0  0  0
    6.3600    0.4000    0.0000 C   0  0  0  0  0  0  0  0  0  0  0  0
    6.3600    1.8600    0.0000 N   0  0  0  0  0  0  0  0  0  0  0  0
    5.0500    2.5700    0.0000 C   0  0  0  0  0  0  0  0  0  0  0  0
   -5.0786   -0.3532    0.0000 O   0  0  0  0  0  0  0  0  0  0  0  0
   -5.0770   -1.5532    0.0000 C   0  0  0  0  0  0  0  0  0  0  0  0
    5.0381    3.7699    0.0000 O   0  0  0  0  0  0  0  0  0  0  0  0
    5.0377   -1.5599    0.0000 O   0  0  0  0  0  0  0  0  0  0  0  0
    7.3999   -0.1989    0.0000 C   0  0  0  0  0  0  0  0  0  0  0  0
    2.5070   -1.8312    0.0000 C   0  0  0  0  0  0  0  0  0  0  0  0
    1.2012   -2.5710    0.0000 C   0  0  0  0  0  0  0  0  0  0  0  0
    1.1907   -3.7710    0.0000 C   0  0  0  0  0  0  0  0  0  0  0  0
    0.1670   -1.9623    0.0000 C   0  0  0  0  0  0  0  0  0  0  0  0
  1  2  2  0
  2  3  1  0
  3  6  2  0
  5  4  2  0
  4  1  1  0
  5  6  1  0
  6  7  1  0
  7  9  1  0
  8  5  1  0
  8  9  2  0
  8 11  1  0
  9 10  1  0
 10 13  1  0
 12 11  1  0
 12 13  1  0
 12 17  1  0
 13 14  1  0
 14 15  1  0
 15 16  1  0
 16 17  1  0
  2 18  1  0
 18 19  1  0
 17 20  2  0
 14 21  2  0
 15 22  1  0
 10 23  1  0
 23 24  1  0
 24 25  1  0
 24 26  1  0
M  END
>  <Classification>  (434) 
1

>  <pchembl>  (434) 
6.21

>  <InChI_steorem>  (434) 
InChI=1S/C20H25N3O3/c1-10(2)7-16-18-14(13-6-5-12(26-4)8-15(13)22-18)9-17-19(24)21-11(3)20(25)23(16)17/h5-6,8,10-11,16-17,22H,7,9H2,1-4H3,(H,21,24)

>  <source>  (434) 
ChEMBL25

>  <source_id>  (434) 
25

>  <optional_reference>  (434) 
10.1016/j.bmcl.2015.11.077

>  <optional_origin>  (434) 
None

>  <target>  (434) 
BCRP

$$$$

     RDKit          2D

 27 30  0  0  0  0  0  0  0  0999 V2000
   -3.7800    1.8600    0.0000 C   0  0  0  0  0  0  0  0  0  0  0  0
   -3.7800    0.4000    0.0000 C   0  0  0  0  0  0  0  0  0  0  0  0
   -2.5200   -0.3300    0.0000 C   0  0  0  0  0  0  0  0  0  0  0  0
   -2.5200    2.6000    0.0000 C   0  0  0  0  0  0  0  0  0  0  0  0
   -1.2800    1.8600    0.0000 C   0  0  0  0  0  0  0  0  0  0  0  0
   -1.2800    0.4000    0.0000 C   0  0  0  0  0  0  0  0  0  0  0  0
    0.0000   -0.3300    0.0000 N   0  0  0  0  0  0  0  0  0  0  0  0
    1.2600    1.8600    0.0000 C   0  0  0  0  0  0  0  0  0  0  0  0
    1.2600    0.4000    0.0000 C   0  0  0  0  0  0  0  0  0  0  0  0
    2.5200   -0.3300    0.0000 C   0  0  0  0  0  0  0  0  0  0  0  0
    2.5200    2.6000    0.0000 C   0  0  0  0  0  0  0  0  0  0  0  0
    3.8000    1.8600    0.0000 C   0  0  0  0  0  0  0  0  0  0  0  0
    3.8000    0.4000    0.0000 N   0  0  0  0  0  0  0  0  0  0  0  0
    5.0500   -0.3600    0.0000 C   0  0  0  0  0  0  0  0  0  0  0  0
    6.3600    0.4000    0.0000 C   0  0  0  0  0  0  0  0  0  0  0  0
    6.3600    1.8600    0.0000 N   0  0  0  0  0  0  0  0  0  0  0  0
    5.0500    2.5700    0.0000 C   0  0  0  0  0  0  0  0  0  0  0  0
   -5.0786   -0.3532    0.0000 O   0  0  0  0  0  0  0  0  0  0  0  0
   -5.0770   -1.5532    0.0000 C   0  0  0  0  0  0  0  0  0  0  0  0
    5.0381    3.7699    0.0000 O   0  0  0  0  0  0  0  0  0  0  0  0
    5.0377   -1.5599    0.0000 O   0  0  0  0  0  0  0  0  0  0  0  0
    7.3999   -0.1989    0.0000 C   0  0  0  0  0  0  0  0  0  0  0  0
    2.5070   -1.8312    0.0000 C   0  0  0  0  0  0  0  0  0  0  0  0
    1.2012   -2.5710    0.0000 C   0  0  0  0  0  0  0  0  0  0  0  0
    1.1907   -3.7710    0.0000 C   0  0  0  0  0  0  0  0  0  0  0  0
    0.1670   -1.9623    0.0000 C   0  0  0  0  0  0  0  0  0  0  0  0
   -4.8215    2.4561    0.0000 C   0  0  0  0  0  0  0  0  0  0  0  0
  1  2  2  0
  2  3  1  0
  3  6  2  0
  5  4  2  0
  4  1  1  0
  5  6  1  0
  6  7  1  0
  7  9  1  0
  8  5  1  0
  8  9  2  0
  8 11  1  0
  9 10  1  0
 10 13  1  0
 12 11  1  0
 12 13  1  0
 12 17  1  0
 13 14  1  0
 14 15  1  0
 15 16  1  0
 16 17  1  0
  2 18  1  0
 18 19  1  0
 17 20  2  0
 14 21  2  0
 15 22  1  0
 10 23  1  0
 23 24  1  0
 24 25  1  0
 24 26  1  0
  1 27  1  0
M  END
>  <Classification>  (435) 
1

>  <pchembl>  (435) 
5.74

>  <InChI_steorem>  (435) 
InChI=1S/C21H27N3O3/c1-10(2)6-16-19-14(8-17-20(25)22-12(4)21(26)24(16)17)13-7-11(3)18(27-5)9-15(13)23-19/h7,9-10,12,16-17,23H,6,8H2,1-5H3,(H,22,25)

>  <source>  (435) 
ChEMBL25

>  <source_id>  (435) 
25

>  <optional_reference>  (435) 
10.1016/j.bmcl.2015.11.077

>  <optional_origin>  (435) 
None

>  <target>  (435) 
BCRP

$$$$

     RDKit          2D

 28 31  0  0  0  0  0  0  0  0999 V2000
   -3.7800    1.8600    0.0000 C   0  0  0  0  0  0  0  0  0  0  0  0
   -3.7800    0.4000    0.0000 C   0  0  0  0  0  0  0  0  0  0  0  0
   -2.5200   -0.3300    0.0000 C   0  0  0  0  0  0  0  0  0  0  0  0
   -2.5200    2.6000    0.0000 C   0  0  0  0  0  0  0  0  0  0  0  0
   -1.2800    1.8600    0.0000 C   0  0  0  0  0  0  0  0  0  0  0  0
   -1.2800    0.4000    0.0000 C   0  0  0  0  0  0  0  0  0  0  0  0
    0.0000   -0.3300    0.0000 N   0  0  0  0  0  0  0  0  0  0  0  0
    1.2600    1.8600    0.0000 C   0  0  0  0  0  0  0  0  0  0  0  0
    1.2600    0.4000    0.0000 C   0  0  0  0  0  0  0  0  0  0  0  0
    2.5200   -0.3300    0.0000 C   0  0  0  0  0  0  0  0  0  0  0  0
    2.5200    2.6000    0.0000 C   0  0  0  0  0  0  0  0  0  0  0  0
    3.8000    1.8600    0.0000 C   0  0  0  0  0  0  0  0  0  0  0  0
    3.8000    0.4000    0.0000 N   0  0  0  0  0  0  0  0  0  0  0  0
    5.0500   -0.3600    0.0000 C   0  0  0  0  0  0  0  0  0  0  0  0
    6.3600    0.4000    0.0000 C   0  0  0  0  0  0  0  0  0  0  0  0
    6.3600    1.8600    0.0000 N   0  0  0  0  0  0  0  0  0  0  0  0
    5.0500    2.5700    0.0000 C   0  0  0  0  0  0  0  0  0  0  0  0
   -5.0786   -0.3532    0.0000 O   0  0  0  0  0  0  0  0  0  0  0  0
   -5.0770   -1.5532    0.0000 C   0  0  0  0  0  0  0  0  0  0  0  0
    5.0381    3.7699    0.0000 O   0  0  0  0  0  0  0  0  0  0  0  0
    5.0377   -1.5599    0.0000 O   0  0  0  0  0  0  0  0  0  0  0  0
    7.3999   -0.1989    0.0000 C   0  0  0  0  0  0  0  0  0  0  0  0
    2.5070   -1.8312    0.0000 C   0  0  0  0  0  0  0  0  0  0  0  0
    1.2012   -2.5710    0.0000 C   0  0  0  0  0  0  0  0  0  0  0  0
    1.1907   -3.7710    0.0000 C   0  0  0  0  0  0  0  0  0  0  0  0
    0.1670   -1.9623    0.0000 C   0  0  0  0  0  0  0  0  0  0  0  0
   -5.0816    2.6082    0.0000 O   0  0  0  0  0  0  0  0  0  0  0  0
   -5.0846    3.8082    0.0000 C   0  0  0  0  0  0  0  0  0  0  0  0
  1  2  2  0
  2  3  1  0
  3  6  2  0
  5  4  2  0
  4  1  1  0
  5  6  1  0
  6  7  1  0
  7  9  1  0
  8  5  1  0
  8  9  2  0
  8 11  1  0
  9 10  1  0
 10 13  1  0
 12 11  1  0
 12 13  1  0
 12 17  1  0
 13 14  1  0
 14 15  1  0
 15 16  1  0
 16 17  1  0
  2 18  1  0
 18 19  1  0
 17 20  2  0
 14 21  2  0
 15 22  1  0
 10 23  1  0
 23 24  1  0
 24 25  1  0
 24 26  1  0
  1 27  1  0
 27 28  1  0
M  END
>  <Classification>  (436) 
1

>  <pchembl>  (436) 
5.77

>  <InChI_steorem>  (436) 
InChI=1S/C21H27N3O4/c1-10(2)6-15-19-13(7-16-20(25)22-11(3)21(26)24(15)16)12-8-17(27-4)18(28-5)9-14(12)23-19/h8-11,15-16,23H,6-7H2,1-5H3,(H,22,25)

>  <source>  (436) 
ChEMBL25

>  <source_id>  (436) 
25

>  <optional_reference>  (436) 
10.1016/j.bmcl.2015.11.077

>  <optional_origin>  (436) 
None

>  <target>  (436) 
BCRP

$$$$

     RDKit          2D

 28 31  0  0  0  0  0  0  0  0999 V2000
   -3.7800    1.8600    0.0000 C   0  0  0  0  0  0  0  0  0  0  0  0
   -3.7800    0.4000    0.0000 C   0  0  0  0  0  0  0  0  0  0  0  0
   -2.5200   -0.3300    0.0000 C   0  0  0  0  0  0  0  0  0  0  0  0
   -2.5200    2.6000    0.0000 C   0  0  0  0  0  0  0  0  0  0  0  0
   -1.2800    1.8600    0.0000 C   0  0  0  0  0  0  0  0  0  0  0  0
   -1.2800    0.4000    0.0000 C   0  0  0  0  0  0  0  0  0  0  0  0
    0.0000   -0.3300    0.0000 N   0  0  0  0  0  0  0  0  0  0  0  0
    1.2600    1.8600    0.0000 C   0  0  0  0  0  0  0  0  0  0  0  0
    1.2600    0.4000    0.0000 C   0  0  0  0  0  0  0  0  0  0  0  0
    2.5200   -0.3300    0.0000 C   0  0  0  0  0  0  0  0  0  0  0  0
    2.5200    2.6000    0.0000 C   0  0  0  0  0  0  0  0  0  0  0  0
    3.8000    1.8600    0.0000 C   0  0  0  0  0  0  0  0  0  0  0  0
    3.8000    0.4000    0.0000 N   0  0  0  0  0  0  0  0  0  0  0  0
    5.0500   -0.3600    0.0000 C   0  0  0  0  0  0  0  0  0  0  0  0
    6.3600    0.4000    0.0000 C   0  0  0  0  0  0  0  0  0  0  0  0
    6.3600    1.8600    0.0000 N   0  0  0  0  0  0  0  0  0  0  0  0
    5.0500    2.5700    0.0000 C   0  0  0  0  0  0  0  0  0  0  0  0
    5.0381    3.7699    0.0000 O   0  0  0  0  0  0  0  0  0  0  0  0
    5.0377   -1.5599    0.0000 O   0  0  0  0  0  0  0  0  0  0  0  0
    7.6665   -0.3389    0.0000 C   0  0  0  0  0  0  0  0  0  0  0  0
    7.6812   -1.8396    0.0000 C   0  0  0  0  0  0  0  0  0  0  0  0
    8.9878   -2.5781    0.0000 C   0  0  0  0  0  0  0  0  0  0  0  0
    8.9995   -3.7781    0.0000 O   0  0  0  0  0  0  0  0  0  0  0  0
   10.0213   -1.9683    0.0000 O   0  0  0  0  0  0  0  0  0  0  0  0
    2.5070   -1.8312    0.0000 C   0  0  0  0  0  0  0  0  0  0  0  0
    1.2012   -2.5710    0.0000 C   0  0  0  0  0  0  0  0  0  0  0  0
    1.1907   -3.7710    0.0000 C   0  0  0  0  0  0  0  0  0  0  0  0
    0.1670   -1.9623    0.0000 C   0  0  0  0  0  0  0  0  0  0  0  0
  1  2  2  0
  2  3  1  0
  3  6  2  0
  5  4  2  0
  4  1  1  0
  5  6  1  0
  6  7  1  0
  7  9  1  0
  8  5  1  0
  8  9  2  0
  8 11  1  0
  9 10  1  0
 10 13  1  0
 12 11  1  0
 12 13  1  0
 12 17  1  0
 13 14  1  0
 14 15  1  0
 15 16  1  0
 16 17  1  0
 17 18  2  0
 14 19  2  0
 15 20  1  0
 20 21  1  0
 21 22  1  0
 22 23  2  0
 22 24  1  0
 10 25  1  0
 25 26  1  0
 26 27  1  0
 26 28  1  0
M  END
>  <Classification>  (437) 
1

>  <pchembl>  (437) 
6.64

>  <InChI_steorem>  (437) 
InChI=1S/C21H25N3O4/c1-11(2)9-16-19-13(12-5-3-4-6-14(12)22-19)10-17-20(27)23-15(7-8-18(25)26)21(28)24(16)17/h3-6,11,15-17,22H,7-10H2,1-2H3,(H,23,27)(H,25,26)

>  <source>  (437) 
ChEMBL25

>  <source_id>  (437) 
25

>  <optional_reference>  (437) 
10.1016/j.bmcl.2015.11.077

>  <optional_origin>  (437) 
None

>  <target>  (437) 
BCRP

$$$$

     RDKit          2D

 32 35  0  0  0  0  0  0  0  0999 V2000
   -3.7800    1.8600    0.0000 C   0  0  0  0  0  0  0  0  0  0  0  0
   -3.7800    0.4000    0.0000 C   0  0  0  0  0  0  0  0  0  0  0  0
   -2.5200   -0.3300    0.0000 C   0  0  0  0  0  0  0  0  0  0  0  0
   -2.5200    2.6000    0.0000 C   0  0  0  0  0  0  0  0  0  0  0  0
   -1.2800    1.8600    0.0000 C   0  0  0  0  0  0  0  0  0  0  0  0
   -1.2800    0.4000    0.0000 C   0  0  0  0  0  0  0  0  0  0  0  0
    0.0000   -0.3300    0.0000 N   0  0  0  0  0  0  0  0  0  0  0  0
    1.2600    1.8600    0.0000 C   0  0  0  0  0  0  0  0  0  0  0  0
    1.2600    0.4000    0.0000 C   0  0  0  0  0  0  0  0  0  0  0  0
    2.5200   -0.3300    0.0000 C   0  0  0  0  0  0  0  0  0  0  0  0
    2.5200    2.6000    0.0000 C   0  0  0  0  0  0  0  0  0  0  0  0
    3.8000    1.8600    0.0000 C   0  0  0  0  0  0  0  0  0  0  0  0
    3.8000    0.4000    0.0000 N   0  0  0  0  0  0  0  0  0  0  0  0
    5.0500   -0.3600    0.0000 C   0  0  0  0  0  0  0  0  0  0  0  0
    6.3600    0.4000    0.0000 C   0  0  0  0  0  0  0  0  0  0  0  0
    6.3600    1.8600    0.0000 N   0  0  0  0  0  0  0  0  0  0  0  0
    5.0500    2.5700    0.0000 C   0  0  0  0  0  0  0  0  0  0  0  0
    5.0381    3.7699    0.0000 O   0  0  0  0  0  0  0  0  0  0  0  0
    5.0377   -1.5599    0.0000 O   0  0  0  0  0  0  0  0  0  0  0  0
    7.6665   -0.3389    0.0000 C   0  0  0  0  0  0  0  0  0  0  0  0
    7.6812   -1.8396    0.0000 C   0  0  0  0  0  0  0  0  0  0  0  0
    8.9878   -2.5781    0.0000 C   0  0  0  0  0  0  0  0  0  0  0  0
   10.0213   -1.9683    0.0000 O   0  0  0  0  0  0  0  0  0  0  0  0
    9.0024   -4.0789    0.0000 N   0  0  0  0  0  0  0  0  0  0  0  0
   10.3090   -4.8174    0.0000 C   0  0  0  0  0  0  0  0  0  0  0  0
   10.3207   -6.0173    0.0000 C   0  0  0  0  0  0  0  0  0  0  0  0
   11.3539   -5.4074    0.0000 C   0  0  0  0  0  0  0  0  0  0  0  0
   11.3425   -4.2076    0.0000 C   0  0  0  0  0  0  0  0  0  0  0  0
    2.5070   -1.8312    0.0000 C   0  0  0  0  0  0  0  0  0  0  0  0
    1.2012   -2.5710    0.0000 C   0  0  0  0  0  0  0  0  0  0  0  0
    1.1907   -3.7710    0.0000 C   0  0  0  0  0  0  0  0  0  0  0  0
    0.1670   -1.9623    0.0000 C   0  0  0  0  0  0  0  0  0  0  0  0
  1  2  2  0
  2  3  1  0
  3  6  2  0
  5  4  2  0
  4  1  1  0
  5  6  1  0
  6  7  1  0
  7  9  1  0
  8  5  1  0
  8  9  2  0
  8 11  1  0
  9 10  1  0
 10 13  1  0
 12 11  1  0
 12 13  1  0
 12 17  1  0
 13 14  1  0
 14 15  1  0
 15 16  1  0
 16 17  1  0
 17 18  2  0
 14 19  2  0
 15 20  1  0
 20 21  1  0
 21 22  1  0
 22 23  2  0
 22 24  1  0
 24 25  1  0
 25 26  1  0
 25 27  1  0
 25 28  1  0
 10 29  1  0
 29 30  1  0
 30 31  1  0
 30 32  1  0
M  END
>  <Classification>  (438) 
1

>  <pchembl>  (438) 
5.41

>  <InChI_steorem>  (438) 
InChI=1S/C25H34N4O3/c1-14(2)12-19-22-16(15-8-6-7-9-17(15)26-22)13-20-23(31)27-18(24(32)29(19)20)10-11-21(30)28-25(3,4)5/h6-9,14,18-20,26H,10-13H2,1-5H3,(H,27,31)(H,28,30)

>  <source>  (438) 
ChEMBL25

>  <source_id>  (438) 
25

>  <optional_reference>  (438) 
10.1016/j.bmcl.2015.11.077

>  <optional_origin>  (438) 
None

>  <target>  (438) 
BCRP

$$$$

     RDKit          2D

 32 35  0  0  0  0  0  0  0  0999 V2000
   -3.7800    1.8600    0.0000 C   0  0  0  0  0  0  0  0  0  0  0  0
   -3.7800    0.4000    0.0000 C   0  0  0  0  0  0  0  0  0  0  0  0
   -2.5200   -0.3300    0.0000 C   0  0  0  0  0  0  0  0  0  0  0  0
   -2.5200    2.6000    0.0000 C   0  0  0  0  0  0  0  0  0  0  0  0
   -1.2800    1.8600    0.0000 C   0  0  0  0  0  0  0  0  0  0  0  0
   -1.2800    0.4000    0.0000 C   0  0  0  0  0  0  0  0  0  0  0  0
    0.0000   -0.3300    0.0000 N   0  0  0  0  0  0  0  0  0  0  0  0
    1.2600    1.8600    0.0000 C   0  0  0  0  0  0  0  0  0  0  0  0
    1.2600    0.4000    0.0000 C   0  0  0  0  0  0  0  0  0  0  0  0
    2.5200   -0.3300    0.0000 C   0  0  0  0  0  0  0  0  0  0  0  0
    2.5200    2.6000    0.0000 C   0  0  0  0  0  0  0  0  0  0  0  0
    3.8000    1.8600    0.0000 C   0  0  0  0  0  0  0  0  0  0  0  0
    3.8000    0.4000    0.0000 N   0  0  0  0  0  0  0  0  0  0  0  0
    5.0500   -0.3600    0.0000 C   0  0  0  0  0  0  0  0  0  0  0  0
    6.3600    0.4000    0.0000 C   0  0  0  0  0  0  0  0  0  0  0  0
    6.3600    1.8600    0.0000 N   0  0  0  0  0  0  0  0  0  0  0  0
    5.0500    2.5700    0.0000 C   0  0  0  0  0  0  0  0  0  0  0  0
    5.0381    3.7699    0.0000 O   0  0  0  0  0  0  0  0  0  0  0  0
    5.0377   -1.5599    0.0000 O   0  0  0  0  0  0  0  0  0  0  0  0
    7.6665   -0.3389    0.0000 C   0  0  0  0  0  0  0  0  0  0  0  0
    7.6812   -1.8396    0.0000 C   0  0  0  0  0  0  0  0  0  0  0  0
    8.9878   -2.5781    0.0000 C   0  0  0  0  0  0  0  0  0  0  0  0
   10.0213   -1.9683    0.0000 O   0  0  0  0  0  0  0  0  0  0  0  0
    9.0024   -4.0789    0.0000 O   0  0  0  0  0  0  0  0  0  0  0  0
   10.3090   -4.8174    0.0000 C   0  0  0  0  0  0  0  0  0  0  0  0
   10.3207   -6.0173    0.0000 C   0  0  0  0  0  0  0  0  0  0  0  0
   11.3539   -5.4074    0.0000 C   0  0  0  0  0  0  0  0  0  0  0  0
   11.3425   -4.2076    0.0000 C   0  0  0  0  0  0  0  0  0  0  0  0
    2.5070   -1.8312    0.0000 C   0  0  0  0  0  0  0  0  0  0  0  0
    1.2012   -2.5710    0.0000 C   0  0  0  0  0  0  0  0  0  0  0  0
    1.1907   -3.7710    0.0000 C   0  0  0  0  0  0  0  0  0  0  0  0
    0.1670   -1.9623    0.0000 C   0  0  0  0  0  0  0  0  0  0  0  0
  1  2  2  0
  2  3  1  0
  3  6  2  0
  5  4  2  0
  4  1  1  0
  5  6  1  0
  6  7  1  0
  7  9  1  0
  8  5  1  0
  8  9  2  0
  8 11  1  0
  9 10  1  0
 10 13  1  0
 12 11  1  0
 12 13  1  0
 12 17  1  0
 13 14  1  0
 14 15  1  0
 15 16  1  0
 16 17  1  0
 17 18  2  0
 14 19  2  0
 15 20  1  0
 20 21  1  0
 21 22  1  0
 22 23  2  0
 22 24  1  0
 24 25  1  0
 25 26  1  0
 25 27  1  0
 25 28  1  0
 10 29  1  0
 29 30  1  0
 30 31  1  0
 30 32  1  0
M  END
>  <Classification>  (439) 
1

>  <pchembl>  (439) 
5.49

>  <InChI_steorem>  (439) 
InChI=1S/C25H33N3O4/c1-14(2)12-19-22-16(15-8-6-7-9-17(15)26-22)13-20-23(30)27-18(24(31)28(19)20)10-11-21(29)32-25(3,4)5/h6-9,14,18-20,26H,10-13H2,1-5H3,(H,27,30)

>  <source>  (439) 
ChEMBL25

>  <source_id>  (439) 
25

>  <optional_reference>  (439) 
10.1016/j.bmcl.2015.11.077

>  <optional_origin>  (439) 
None

>  <target>  (439) 
BCRP

$$$$

     RDKit          2D

 30 33  0  0  0  0  0  0  0  0999 V2000
   -2.6111    0.7486    0.0000 C   0  0  0  0  0  0  0  0  0  0  0  0
   -2.6111   -0.7486    0.0000 C   0  0  0  0  0  0  0  0  0  0  0  0
   -1.2964   -1.4973    0.0000 C   0  0  0  0  0  0  0  0  0  0  0  0
    0.0000   -0.7486    0.0000 C   0  0  0  0  0  0  0  0  0  0  0  0
    1.2964   -1.4973    0.0000 C   0  0  0  0  0  0  0  0  0  0  0  0
    2.5929   -0.7486    0.0000 C   0  0  0  0  0  0  0  0  0  0  0  0
    2.5929    0.7486    0.0000 C   0  0  0  0  0  0  0  0  0  0  0  0
    1.2964    1.4973    0.0000 C   0  0  0  0  0  0  0  0  0  0  0  0
    0.0000    0.7486    0.0000 C   0  0  0  0  0  0  0  0  0  0  0  0
   -1.2964    1.4973    0.0000 O   0  0  0  0  0  0  0  0  0  0  0  0
   -1.2928   -2.6973    0.0000 O   0  0  0  0  0  0  0  0  0  0  0  0
    3.8911    1.5017    0.0000 O   0  0  0  0  0  0  0  0  0  0  0  0
    3.8894    2.7017    0.0000 C   0  0  0  0  0  0  0  0  0  0  0  0
    1.2995   -2.9981    0.0000 O   0  0  0  0  0  0  0  0  0  0  0  0
    2.3396   -3.5967    0.0000 C   0  0  0  0  0  0  0  0  0  0  0  0
   -3.9086    1.5029    0.0000 N   0  0  0  0  0  0  0  0  0  0  0  0
   -3.9097    3.0028    0.0000 C   0  0  0  0  0  0  0  0  0  0  0  0
   -5.2093    3.7519    0.0000 C   0  0  0  0  0  0  0  0  0  0  0  0
   -6.5078    3.0010    0.0000 N   0  0  0  0  0  0  0  0  0  0  0  0
   -6.5067    1.5010    0.0000 C   0  0  0  0  0  0  0  0  0  0  0  0
   -5.2071    0.7519    0.0000 C   0  0  0  0  0  0  0  0  0  0  0  0
   -7.8096    3.7478    0.0000 C   0  0  0  0  0  0  0  0  0  0  0  0
   -9.1077    2.9946    0.0000 C   0  0  0  0  0  0  0  0  0  0  0  0
  -10.4100    3.7391    0.0000 C   0  0  0  0  0  0  0  0  0  0  0  0
  -11.7059    2.9837    0.0000 C   0  0  0  0  0  0  0  0  0  0  0  0
  -11.6996    1.4837    0.0000 C   0  0  0  0  0  0  0  0  0  0  0  0
  -10.3975    0.7391    0.0000 C   0  0  0  0  0  0  0  0  0  0  0  0
   -9.1016    1.4945    0.0000 C   0  0  0  0  0  0  0  0  0  0  0  0
  -10.3925   -0.4608    0.0000 F   0  0  0  0  0  0  0  0  0  0  0  0
  -12.7363    0.8794    0.0000 F   0  0  0  0  0  0  0  0  0  0  0  0
  1  2  2  0
  2  3  1  0
  3  4  1  0
  4  5  2  0
  5  6  1  0
  6  7  2  0
  7  8  1  0
  8  9  2  0
  4  9  1  0
  9 10  1  0
  1 10  1  0
  3 11  2  0
 12 13  1  0
  7 12  1  0
 14 15  1  0
  5 14  1  0
 16 17  1  0
 17 18  1  0
 18 19  1  0
 19 20  1  0
 20 21  1  0
 16 21  1  0
 22 23  1  0
 23 24  2  0
 24 25  1  0
 25 26  2  0
 26 27  1  0
 27 28  2  0
 23 28  1  0
 19 22  1  0
  1 16  1  0
 27 29  1  0
 26 30  1  0
M  END
>  <Classification>  (440) 
0

>  <pchembl>  (440) 
4.18

>  <InChI_steorem>  (440) 
InChI=1S/C22H22F2N2O4/c1-28-15-10-19(29-2)22-18(27)12-21(30-20(22)11-15)26-7-5-25(6-8-26)13-14-3-4-16(23)17(24)9-14/h3-4,9-12H,5-8,13H2,1-2H3

>  <source>  (440) 
ChEMBL25

>  <source_id>  (440) 
25

>  <optional_reference>  (440) 
10.1016/j.ejmech.2015.12.010

>  <optional_origin>  (440) 
None

>  <target>  (440) 
BCRP

$$$$

     RDKit          2D

 31 34  0  0  0  0  0  0  0  0999 V2000
   -2.6111    0.7486    0.0000 C   0  0  0  0  0  0  0  0  0  0  0  0
   -2.6111   -0.7486    0.0000 C   0  0  0  0  0  0  0  0  0  0  0  0
   -1.2964   -1.4973    0.0000 C   0  0  0  0  0  0  0  0  0  0  0  0
    0.0000   -0.7486    0.0000 C   0  0  0  0  0  0  0  0  0  0  0  0
    1.2964   -1.4973    0.0000 C   0  0  0  0  0  0  0  0  0  0  0  0
    2.5929   -0.7486    0.0000 C   0  0  0  0  0  0  0  0  0  0  0  0
    2.5929    0.7486    0.0000 C   0  0  0  0  0  0  0  0  0  0  0  0
    1.2964    1.4973    0.0000 C   0  0  0  0  0  0  0  0  0  0  0  0
    0.0000    0.7486    0.0000 C   0  0  0  0  0  0  0  0  0  0  0  0
   -1.2964    1.4973    0.0000 O   0  0  0  0  0  0  0  0  0  0  0  0
   -1.2928   -2.6973    0.0000 O   0  0  0  0  0  0  0  0  0  0  0  0
   -3.9086    1.5029    0.0000 N   0  0  0  0  0  0  0  0  0  0  0  0
   -3.9097    3.0028    0.0000 C   0  0  0  0  0  0  0  0  0  0  0  0
   -5.2093    3.7519    0.0000 C   0  0  0  0  0  0  0  0  0  0  0  0
   -6.5078    3.0010    0.0000 N   0  0  0  0  0  0  0  0  0  0  0  0
   -6.5067    1.5010    0.0000 C   0  0  0  0  0  0  0  0  0  0  0  0
   -5.2071    0.7519    0.0000 C   0  0  0  0  0  0  0  0  0  0  0  0
   -7.8096    3.7478    0.0000 C   0  0  0  0  0  0  0  0  0  0  0  0
   -9.1077    2.9946    0.0000 C   0  0  0  0  0  0  0  0  0  0  0  0
  -10.4100    3.7391    0.0000 C   0  0  0  0  0  0  0  0  0  0  0  0
  -11.7059    2.9837    0.0000 C   0  0  0  0  0  0  0  0  0  0  0  0
  -11.6996    1.4837    0.0000 C   0  0  0  0  0  0  0  0  0  0  0  0
  -10.3975    0.7391    0.0000 C   0  0  0  0  0  0  0  0  0  0  0  0
   -9.1016    1.4945    0.0000 C   0  0  0  0  0  0  0  0  0  0  0  0
  -12.9947    0.7252    0.0000 N   0  0  0  0  0  0  0  0  0  0  0  0
  -12.9880   -0.4747    0.0000 O   0  0  0  0  0  0  0  0  0  0  0  0
  -14.0374    1.3191    0.0000 O   0  0  0  0  0  0  0  0  0  0  0  0
    1.2995   -2.9981    0.0000 O   0  0  0  0  0  0  0  0  0  0  0  0
    2.3396   -3.5967    0.0000 C   0  0  0  0  0  0  0  0  0  0  0  0
    3.8911    1.5017    0.0000 O   0  0  0  0  0  0  0  0  0  0  0  0
    3.8894    2.7017    0.0000 C   0  0  0  0  0  0  0  0  0  0  0  0
  1  2  2  0
  2  3  1  0
  3  4  1  0
  4  5  2  0
  5  6  1  0
  6  7  2  0
  7  8  1  0
  8  9  2  0
  4  9  1  0
  9 10  1  0
  1 10  1  0
  3 11  2  0
 12 13  1  0
 13 14  1  0
 14 15  1  0
 15 16  1  0
 16 17  1  0
 12 17  1  0
 18 19  1  0
 19 20  2  0
 20 21  1  0
 21 22  2  0
 22 23  1  0
 23 24  2  0
 19 24  1  0
 25 26  2  0
 25 27  1  0
 22 25  1  0
 15 18  1  0
  1 12  1  0
 28 29  1  0
  5 28  1  0
 30 31  1  0
  7 30  1  0
M  CHG  2  25   1  27  -1
M  END
>  <Classification>  (441) 
0

>  <pchembl>  (441) 
4.06

>  <InChI_steorem>  (441) 
InChI=1S/C22H23N3O6/c1-29-17-11-19(30-2)22-18(26)13-21(31-20(22)12-17)24-9-7-23(8-10-24)14-15-3-5-16(6-4-15)25(27)28/h3-6,11-13H,7-10,14H2,1-2H3

>  <source>  (441) 
ChEMBL25

>  <source_id>  (441) 
25

>  <optional_reference>  (441) 
10.1016/j.ejmech.2015.12.010

>  <optional_origin>  (441) 
None

>  <target>  (441) 
BCRP

$$$$

     RDKit          2D

 32 35  0  0  0  0  0  0  0  0999 V2000
   -2.6111    0.7486    0.0000 C   0  0  0  0  0  0  0  0  0  0  0  0
   -2.6111   -0.7486    0.0000 C   0  0  0  0  0  0  0  0  0  0  0  0
   -1.2964   -1.4973    0.0000 C   0  0  0  0  0  0  0  0  0  0  0  0
    0.0000   -0.7486    0.0000 C   0  0  0  0  0  0  0  0  0  0  0  0
    1.2964   -1.4973    0.0000 C   0  0  0  0  0  0  0  0  0  0  0  0
    2.5929   -0.7486    0.0000 C   0  0  0  0  0  0  0  0  0  0  0  0
    2.5929    0.7486    0.0000 C   0  0  0  0  0  0  0  0  0  0  0  0
    1.2964    1.4973    0.0000 C   0  0  0  0  0  0  0  0  0  0  0  0
    0.0000    0.7486    0.0000 C   0  0  0  0  0  0  0  0  0  0  0  0
   -1.2964    1.4973    0.0000 O   0  0  0  0  0  0  0  0  0  0  0  0
   -1.2928   -2.6973    0.0000 O   0  0  0  0  0  0  0  0  0  0  0  0
   -3.9086    1.5029    0.0000 N   0  0  0  0  0  0  0  0  0  0  0  0
   -3.9097    3.0028    0.0000 C   0  0  0  0  0  0  0  0  0  0  0  0
   -5.2093    3.7519    0.0000 C   0  0  0  0  0  0  0  0  0  0  0  0
   -6.5078    3.0010    0.0000 N   0  0  0  0  0  0  0  0  0  0  0  0
   -6.5067    1.5010    0.0000 C   0  0  0  0  0  0  0  0  0  0  0  0
   -5.2071    0.7519    0.0000 C   0  0  0  0  0  0  0  0  0  0  0  0
   -7.8096    3.7478    0.0000 C   0  0  0  0  0  0  0  0  0  0  0  0
   -9.1077    2.9946    0.0000 C   0  0  0  0  0  0  0  0  0  0  0  0
  -10.4096    3.7414    0.0000 C   0  0  0  0  0  0  0  0  0  0  0  0
  -11.7081    2.9905    0.0000 C   0  0  0  0  0  0  0  0  0  0  0  0
  -13.0077    3.7396    0.0000 C   0  0  0  0  0  0  0  0  0  0  0  0
  -13.0088    5.2396    0.0000 C   0  0  0  0  0  0  0  0  0  0  0  0
  -11.7103    5.9905    0.0000 C   0  0  0  0  0  0  0  0  0  0  0  0
  -10.4107    5.2415    0.0000 C   0  0  0  0  0  0  0  0  0  0  0  0
    3.8911    1.5017    0.0000 O   0  0  0  0  0  0  0  0  0  0  0  0
    3.8894    2.7017    0.0000 C   0  0  0  0  0  0  0  0  0  0  0  0
    1.2995   -2.9981    0.0000 O   0  0  0  0  0  0  0  0  0  0  0  0
    2.3396   -3.5967    0.0000 C   0  0  0  0  0  0  0  0  0  0  0  0
  -14.3076    5.9917    0.0000 N   0  0  0  0  0  0  0  0  0  0  0  0
  -14.3067    7.1917    0.0000 O   0  0  0  0  0  0  0  0  0  0  0  0
  -15.3474    5.3928    0.0000 O   0  0  0  0  0  0  0  0  0  0  0  0
  1  2  2  0
  2  3  1  0
  3  4  1  0
  4  5  2  0
  5  6  1  0
  6  7  2  0
  7  8  1  0
  8  9  2  0
  4  9  1  0
  9 10  1  0
  1 10  1  0
  3 11  2  0
 12 13  1  0
 13 14  1  0
 14 15  1  0
 15 16  1  0
 16 17  1  0
 12 17  1  0
 18 19  1  0
 19 20  1  0
 20 21  2  0
 21 22  1  0
 22 23  2  0
 23 24  1  0
 24 25  2  0
 20 25  1  0
 15 18  1  0
  1 12  1  0
 26 27  1  0
  7 26  1  0
 28 29  1  0
  5 28  1  0
 30 31  2  0
 30 32  1  0
 23 30  1  0
M  CHG  2  30   1  32  -1
M  END
>  <Classification>  (442) 
0

>  <pchembl>  (442) 
4.43

>  <InChI_steorem>  (442) 
InChI=1S/C23H25N3O6/c1-30-18-13-20(31-2)23-19(27)15-22(32-21(23)14-18)25-11-9-24(10-12-25)8-7-16-3-5-17(6-4-16)26(28)29/h3-6,13-15H,7-12H2,1-2H3

>  <source>  (442) 
ChEMBL25

>  <source_id>  (442) 
25

>  <optional_reference>  (442) 
10.1016/j.ejmech.2015.12.010

>  <optional_origin>  (442) 
None

>  <target>  (442) 
BCRP

$$$$

     RDKit          2D

 30 33  0  0  0  0  0  0  0  0999 V2000
   -2.6111    0.7486    0.0000 C   0  0  0  0  0  0  0  0  0  0  0  0
   -2.6111   -0.7486    0.0000 C   0  0  0  0  0  0  0  0  0  0  0  0
   -1.2964   -1.4973    0.0000 C   0  0  0  0  0  0  0  0  0  0  0  0
    0.0000   -0.7486    0.0000 C   0  0  0  0  0  0  0  0  0  0  0  0
    1.2964   -1.4973    0.0000 C   0  0  0  0  0  0  0  0  0  0  0  0
    2.5929   -0.7486    0.0000 C   0  0  0  0  0  0  0  0  0  0  0  0
    2.5929    0.7486    0.0000 C   0  0  0  0  0  0  0  0  0  0  0  0
    1.2964    1.4973    0.0000 C   0  0  0  0  0  0  0  0  0  0  0  0
    0.0000    0.7486    0.0000 C   0  0  0  0  0  0  0  0  0  0  0  0
   -1.2964    1.4973    0.0000 O   0  0  0  0  0  0  0  0  0  0  0  0
   -1.2928   -2.6973    0.0000 O   0  0  0  0  0  0  0  0  0  0  0  0
    3.8911    1.5017    0.0000 O   0  0  0  0  0  0  0  0  0  0  0  0
    3.8894    2.7017    0.0000 C   0  0  0  0  0  0  0  0  0  0  0  0
    1.2995   -2.9981    0.0000 O   0  0  0  0  0  0  0  0  0  0  0  0
    2.3396   -3.5967    0.0000 C   0  0  0  0  0  0  0  0  0  0  0  0
   -3.9086    1.5029    0.0000 N   0  0  0  0  0  0  0  0  0  0  0  0
   -3.9097    3.0028    0.0000 C   0  0  0  0  0  0  0  0  0  0  0  0
   -5.2093    3.7519    0.0000 C   0  0  0  0  0  0  0  0  0  0  0  0
   -6.5078    3.0010    0.0000 N   0  0  0  0  0  0  0  0  0  0  0  0
   -6.5067    1.5010    0.0000 C   0  0  0  0  0  0  0  0  0  0  0  0
   -5.2071    0.7519    0.0000 C   0  0  0  0  0  0  0  0  0  0  0  0
   -7.8096    3.7478    0.0000 C   0  0  0  0  0  0  0  0  0  0  0  0
   -9.1077    2.9946    0.0000 C   0  0  0  0  0  0  0  0  0  0  0  0
  -10.4100    3.7391    0.0000 C   0  0  0  0  0  0  0  0  0  0  0  0
  -11.7059    2.9837    0.0000 C   0  0  0  0  0  0  0  0  0  0  0  0
  -11.6996    1.4837    0.0000 C   0  0  0  0  0  0  0  0  0  0  0  0
  -10.3975    0.7391    0.0000 C   0  0  0  0  0  0  0  0  0  0  0  0
   -9.1016    1.4945    0.0000 C   0  0  0  0  0  0  0  0  0  0  0  0
  -12.9962    0.7279    0.0000 C   0  0  0  0  0  0  0  0  0  0  0  0
  -14.0330    0.1236    0.0000 N   0  0  0  0  0  0  0  0  0  0  0  0
  1  2  2  0
  2  3  1  0
  3  4  1  0
  4  5  2  0
  5  6  1  0
  6  7  2  0
  7  8  1  0
  8  9  2  0
  4  9  1  0
  9 10  1  0
  1 10  1  0
  3 11  2  0
 12 13  1  0
  7 12  1  0
 14 15  1  0
  5 14  1  0
 16 17  1  0
 17 18  1  0
 18 19  1  0
 19 20  1  0
 20 21  1  0
 16 21  1  0
 22 23  1  0
 23 24  2  0
 24 25  1  0
 25 26  2  0
 26 27  1  0
 27 28  2  0
 23 28  1  0
 19 22  1  0
  1 16  1  0
 29 30  3  0
 26 29  1  0
M  END
>  <Classification>  (443) 
0

>  <pchembl>  (443) 
4.0

>  <InChI_steorem>  (443) 
InChI=1S/C23H23N3O4/c1-28-18-11-20(29-2)23-19(27)13-22(30-21(23)12-18)26-9-7-25(8-10-26)15-17-5-3-16(14-24)4-6-17/h3-6,11-13H,7-10,15H2,1-2H3

>  <source>  (443) 
ChEMBL25

>  <source_id>  (443) 
25

>  <optional_reference>  (443) 
10.1016/j.ejmech.2015.12.010

>  <optional_origin>  (443) 
None

>  <target>  (443) 
BCRP

$$$$

     RDKit          2D

 30 33  0  0  0  0  0  0  0  0999 V2000
   -2.6111    0.7486    0.0000 C   0  0  0  0  0  0  0  0  0  0  0  0
   -2.6111   -0.7486    0.0000 C   0  0  0  0  0  0  0  0  0  0  0  0
   -1.2964   -1.4973    0.0000 C   0  0  0  0  0  0  0  0  0  0  0  0
    0.0000   -0.7486    0.0000 C   0  0  0  0  0  0  0  0  0  0  0  0
    1.2964   -1.4973    0.0000 C   0  0  0  0  0  0  0  0  0  0  0  0
    2.5929   -0.7486    0.0000 C   0  0  0  0  0  0  0  0  0  0  0  0
    2.5929    0.7486    0.0000 C   0  0  0  0  0  0  0  0  0  0  0  0
    1.2964    1.4973    0.0000 C   0  0  0  0  0  0  0  0  0  0  0  0
    0.0000    0.7486    0.0000 C   0  0  0  0  0  0  0  0  0  0  0  0
   -1.2964    1.4973    0.0000 O   0  0  0  0  0  0  0  0  0  0  0  0
   -1.2928   -2.6973    0.0000 O   0  0  0  0  0  0  0  0  0  0  0  0
   -3.9086    1.5029    0.0000 N   0  0  0  0  0  0  0  0  0  0  0  0
   -3.9097    3.0028    0.0000 C   0  0  0  0  0  0  0  0  0  0  0  0
   -5.2093    3.7519    0.0000 C   0  0  0  0  0  0  0  0  0  0  0  0
   -6.5078    3.0010    0.0000 N   0  0  0  0  0  0  0  0  0  0  0  0
   -6.5067    1.5010    0.0000 C   0  0  0  0  0  0  0  0  0  0  0  0
   -5.2071    0.7519    0.0000 C   0  0  0  0  0  0  0  0  0  0  0  0
   -7.8080    3.7504    0.0000 C   0  0  0  0  0  0  0  0  0  0  0  0
   -7.8115    5.2505    0.0000 C   0  0  0  0  0  0  0  0  0  0  0  0
   -9.1123    5.9975    0.0000 C   0  0  0  0  0  0  0  0  0  0  0  0
  -10.4096    5.2445    0.0000 C   0  0  0  0  0  0  0  0  0  0  0  0
  -10.4061    3.7445    0.0000 C   0  0  0  0  0  0  0  0  0  0  0  0
   -9.1054    2.9975    0.0000 C   0  0  0  0  0  0  0  0  0  0  0  0
  -11.7126    5.9893    0.0000 N   0  0  0  0  0  0  0  0  0  0  0  0
  -12.7496    5.3854    0.0000 O   0  0  0  0  0  0  0  0  0  0  0  0
  -11.7174    7.1893    0.0000 O   0  0  0  0  0  0  0  0  0  0  0  0
    3.8911    1.5017    0.0000 O   0  0  0  0  0  0  0  0  0  0  0  0
    3.8894    2.7017    0.0000 C   0  0  0  0  0  0  0  0  0  0  0  0
    1.2995   -2.9981    0.0000 O   0  0  0  0  0  0  0  0  0  0  0  0
    2.3396   -3.5967    0.0000 C   0  0  0  0  0  0  0  0  0  0  0  0
  1  2  2  0
  2  3  1  0
  3  4  1  0
  4  5  2  0
  5  6  1  0
  6  7  2  0
  7  8  1  0
  8  9  2  0
  4  9  1  0
  9 10  1  0
  1 10  1  0
  3 11  2  0
 12 13  1  0
 13 14  1  0
 14 15  1  0
 15 16  1  0
 16 17  1  0
 12 17  1  0
 18 19  2  0
 19 20  1  0
 20 21  2  0
 21 22  1  0
 22 23  2  0
 18 23  1  0
 24 25  2  0
 24 26  1  0
 21 24  1  0
 15 18  1  0
  1 12  1  0
 27 28  1  0
  7 27  1  0
 29 30  1  0
  5 29  1  0
M  CHG  2  24   1  26  -1
M  END
>  <Classification>  (444) 
0

>  <pchembl>  (444) 
4.91

>  <InChI_steorem>  (444) 
InChI=1S/C21H21N3O6/c1-28-16-11-18(29-2)21-17(25)13-20(30-19(21)12-16)23-9-7-22(8-10-23)14-3-5-15(6-4-14)24(26)27/h3-6,11-13H,7-10H2,1-2H3

>  <source>  (444) 
ChEMBL25

>  <source_id>  (444) 
25

>  <optional_reference>  (444) 
10.1016/j.ejmech.2015.12.010

>  <optional_origin>  (444) 
None

>  <target>  (444) 
BCRP

$$$$

     RDKit          2D

 31 34  0  0  0  0  0  0  0  0999 V2000
   -2.6111    0.7486    0.0000 C   0  0  0  0  0  0  0  0  0  0  0  0
   -2.6111   -0.7486    0.0000 C   0  0  0  0  0  0  0  0  0  0  0  0
   -1.2964   -1.4973    0.0000 C   0  0  0  0  0  0  0  0  0  0  0  0
    0.0000   -0.7486    0.0000 C   0  0  0  0  0  0  0  0  0  0  0  0
    1.2964   -1.4973    0.0000 C   0  0  0  0  0  0  0  0  0  0  0  0
    2.5929   -0.7486    0.0000 C   0  0  0  0  0  0  0  0  0  0  0  0
    2.5929    0.7486    0.0000 C   0  0  0  0  0  0  0  0  0  0  0  0
    1.2964    1.4973    0.0000 C   0  0  0  0  0  0  0  0  0  0  0  0
    0.0000    0.7486    0.0000 C   0  0  0  0  0  0  0  0  0  0  0  0
   -1.2964    1.4973    0.0000 O   0  0  0  0  0  0  0  0  0  0  0  0
   -1.2928   -2.6973    0.0000 O   0  0  0  0  0  0  0  0  0  0  0  0
    3.8911    1.5017    0.0000 O   0  0  0  0  0  0  0  0  0  0  0  0
    3.8894    2.7017    0.0000 C   0  0  0  0  0  0  0  0  0  0  0  0
    1.2995   -2.9981    0.0000 O   0  0  0  0  0  0  0  0  0  0  0  0
    2.3396   -3.5967    0.0000 C   0  0  0  0  0  0  0  0  0  0  0  0
   -3.9086    1.5029    0.0000 N   0  0  0  0  0  0  0  0  0  0  0  0
   -3.9097    3.0028    0.0000 C   0  0  0  0  0  0  0  0  0  0  0  0
   -5.2093    3.7519    0.0000 C   0  0  0  0  0  0  0  0  0  0  0  0
   -6.5078    3.0010    0.0000 N   0  0  0  0  0  0  0  0  0  0  0  0
   -6.5067    1.5010    0.0000 C   0  0  0  0  0  0  0  0  0  0  0  0
   -5.2071    0.7519    0.0000 C   0  0  0  0  0  0  0  0  0  0  0  0
   -7.8096    3.7478    0.0000 C   0  0  0  0  0  0  0  0  0  0  0  0
   -9.1077    2.9946    0.0000 C   0  0  0  0  0  0  0  0  0  0  0  0
  -10.4100    3.7391    0.0000 C   0  0  0  0  0  0  0  0  0  0  0  0
  -11.7059    2.9837    0.0000 C   0  0  0  0  0  0  0  0  0  0  0  0
  -11.6996    1.4837    0.0000 C   0  0  0  0  0  0  0  0  0  0  0  0
  -10.3975    0.7391    0.0000 C   0  0  0  0  0  0  0  0  0  0  0  0
   -9.1016    1.4945    0.0000 C   0  0  0  0  0  0  0  0  0  0  0  0
  -10.3881   -0.7617    0.0000 N   0  0  0  0  0  0  0  0  0  0  0  0
   -9.3456   -1.3558    0.0000 O   0  0  0  0  0  0  0  0  0  0  0  0
  -11.4238   -1.3678    0.0000 O   0  0  0  0  0  0  0  0  0  0  0  0
  1  2  2  0
  2  3  1  0
  3  4  1  0
  4  5  2  0
  5  6  1  0
  6  7  2  0
  7  8  1  0
  8  9  2  0
  4  9  1  0
  9 10  1  0
  1 10  1  0
  3 11  2  0
 12 13  1  0
  7 12  1  0
 14 15  1  0
  5 14  1  0
 16 17  1  0
 17 18  1  0
 18 19  1  0
 19 20  1  0
 20 21  1  0
 16 21  1  0
 22 23  1  0
 23 24  2  0
 24 25  1  0
 25 26  2  0
 26 27  1  0
 27 28  2  0
 23 28  1  0
 19 22  1  0
  1 16  1  0
 29 30  2  0
 29 31  1  0
 27 29  1  0
M  CHG  2  29   1  31  -1
M  END
>  <Classification>  (445) 
0

>  <pchembl>  (445) 
4.42

>  <InChI_steorem>  (445) 
InChI=1S/C22H23N3O6/c1-29-17-11-19(30-2)22-18(26)13-21(31-20(22)12-17)24-8-6-23(7-9-24)14-15-4-3-5-16(10-15)25(27)28/h3-5,10-13H,6-9,14H2,1-2H3

>  <source>  (445) 
ChEMBL25

>  <source_id>  (445) 
25

>  <optional_reference>  (445) 
10.1016/j.ejmech.2015.12.010

>  <optional_origin>  (445) 
None

>  <target>  (445) 
BCRP

$$$$

     RDKit          2D

 31 34  0  0  0  0  0  0  0  0999 V2000
   -2.6111    0.7486    0.0000 C   0  0  0  0  0  0  0  0  0  0  0  0
   -2.6111   -0.7486    0.0000 C   0  0  0  0  0  0  0  0  0  0  0  0
   -1.2964   -1.4973    0.0000 C   0  0  0  0  0  0  0  0  0  0  0  0
    0.0000   -0.7486    0.0000 C   0  0  0  0  0  0  0  0  0  0  0  0
    1.2964   -1.4973    0.0000 C   0  0  0  0  0  0  0  0  0  0  0  0
    2.5929   -0.7486    0.0000 C   0  0  0  0  0  0  0  0  0  0  0  0
    2.5929    0.7486    0.0000 C   0  0  0  0  0  0  0  0  0  0  0  0
    1.2964    1.4973    0.0000 C   0  0  0  0  0  0  0  0  0  0  0  0
    0.0000    0.7486    0.0000 C   0  0  0  0  0  0  0  0  0  0  0  0
   -1.2964    1.4973    0.0000 O   0  0  0  0  0  0  0  0  0  0  0  0
   -1.2928   -2.6973    0.0000 O   0  0  0  0  0  0  0  0  0  0  0  0
    3.8911    1.5017    0.0000 O   0  0  0  0  0  0  0  0  0  0  0  0
    3.8894    2.7017    0.0000 C   0  0  0  0  0  0  0  0  0  0  0  0
    1.2995   -2.9981    0.0000 O   0  0  0  0  0  0  0  0  0  0  0  0
    2.3396   -3.5967    0.0000 C   0  0  0  0  0  0  0  0  0  0  0  0
   -3.9086    1.5029    0.0000 N   0  0  0  0  0  0  0  0  0  0  0  0
   -3.9097    3.0028    0.0000 C   0  0  0  0  0  0  0  0  0  0  0  0
   -5.2093    3.7519    0.0000 C   0  0  0  0  0  0  0  0  0  0  0  0
   -6.5078    3.0010    0.0000 N   0  0  0  0  0  0  0  0  0  0  0  0
   -6.5067    1.5010    0.0000 C   0  0  0  0  0  0  0  0  0  0  0  0
   -5.2071    0.7519    0.0000 C   0  0  0  0  0  0  0  0  0  0  0  0
   -7.8096    3.7478    0.0000 C   0  0  0  0  0  0  0  0  0  0  0  0
   -9.1077    2.9946    0.0000 C   0  0  0  0  0  0  0  0  0  0  0  0
  -10.4100    3.7391    0.0000 C   0  0  0  0  0  0  0  0  0  0  0  0
  -11.7059    2.9837    0.0000 C   0  0  0  0  0  0  0  0  0  0  0  0
  -11.6996    1.4837    0.0000 C   0  0  0  0  0  0  0  0  0  0  0  0
  -10.3975    0.7391    0.0000 C   0  0  0  0  0  0  0  0  0  0  0  0
   -9.1016    1.4945    0.0000 C   0  0  0  0  0  0  0  0  0  0  0  0
  -10.4194    5.2399    0.0000 N   0  0  0  0  0  0  0  0  0  0  0  0
  -11.4619    5.8341    0.0000 O   0  0  0  0  0  0  0  0  0  0  0  0
   -9.3837    5.8461    0.0000 O   0  0  0  0  0  0  0  0  0  0  0  0
  1  2  2  0
  2  3  1  0
  3  4  1  0
  4  5  2  0
  5  6  1  0
  6  7  2  0
  7  8  1  0
  8  9  2  0
  4  9  1  0
  9 10  1  0
  1 10  1  0
  3 11  2  0
 12 13  1  0
  7 12  1  0
 14 15  1  0
  5 14  1  0
 16 17  1  0
 17 18  1  0
 18 19  1  0
 19 20  1  0
 20 21  1  0
 16 21  1  0
 22 23  1  0
 23 24  2  0
 24 25  1  0
 25 26  2  0
 26 27  1  0
 27 28  2  0
 23 28  1  0
 19 22  1  0
  1 16  1  0
 29 30  2  0
 29 31  1  0
 24 29  1  0
M  CHG  2  29   1  31  -1
M  END
>  <Classification>  (446) 
0

>  <pchembl>  (446) 
4.42

>  <InChI_steorem>  (446) 
InChI=1S/C22H23N3O6/c1-29-16-11-19(30-2)22-18(26)13-21(31-20(22)12-16)24-9-7-23(8-10-24)14-15-5-3-4-6-17(15)25(27)28/h3-6,11-13H,7-10,14H2,1-2H3

>  <source>  (446) 
ChEMBL25

>  <source_id>  (446) 
25

>  <optional_reference>  (446) 
10.1016/j.ejmech.2015.12.010

>  <optional_origin>  (446) 
None

>  <target>  (446) 
BCRP

$$$$

     RDKit          2D

 32 35  0  0  0  0  0  0  0  0999 V2000
   -2.6111    0.7486    0.0000 C   0  0  0  0  0  0  0  0  0  0  0  0
   -2.6111   -0.7486    0.0000 C   0  0  0  0  0  0  0  0  0  0  0  0
   -1.2964   -1.4973    0.0000 C   0  0  0  0  0  0  0  0  0  0  0  0
    0.0000   -0.7486    0.0000 C   0  0  0  0  0  0  0  0  0  0  0  0
    1.2964   -1.4973    0.0000 C   0  0  0  0  0  0  0  0  0  0  0  0
    2.5929   -0.7486    0.0000 C   0  0  0  0  0  0  0  0  0  0  0  0
    2.5929    0.7486    0.0000 C   0  0  0  0  0  0  0  0  0  0  0  0
    1.2964    1.4973    0.0000 C   0  0  0  0  0  0  0  0  0  0  0  0
    0.0000    0.7486    0.0000 C   0  0  0  0  0  0  0  0  0  0  0  0
   -1.2964    1.4973    0.0000 O   0  0  0  0  0  0  0  0  0  0  0  0
   -1.2928   -2.6973    0.0000 O   0  0  0  0  0  0  0  0  0  0  0  0
   -3.9091    1.5019    0.0000 C   0  0  0  0  0  0  0  0  0  0  0  0
   -4.9494    0.9039    0.0000 O   0  0  0  0  0  0  0  0  0  0  0  0
   -3.9067    3.0027    0.0000 N   0  0  0  0  0  0  0  0  0  0  0  0
   -5.2030    3.7575    0.0000 C   0  0  0  0  0  0  0  0  0  0  0  0
   -5.1976    5.2575    0.0000 C   0  0  0  0  0  0  0  0  0  0  0  0
   -3.8958    6.0028    0.0000 N   0  0  0  0  0  0  0  0  0  0  0  0
   -2.5995    5.2481    0.0000 C   0  0  0  0  0  0  0  0  0  0  0  0
   -2.6050    3.7481    0.0000 C   0  0  0  0  0  0  0  0  0  0  0  0
   -3.8873    7.5036    0.0000 C   0  0  0  0  0  0  0  0  0  0  0  0
   -2.5838    8.2475    0.0000 C   0  0  0  0  0  0  0  0  0  0  0  0
    3.8911    1.5017    0.0000 O   0  0  0  0  0  0  0  0  0  0  0  0
    3.8894    2.7017    0.0000 C   0  0  0  0  0  0  0  0  0  0  0  0
    1.2964   -2.6973    0.0000 O   0  0  0  0  0  0  0  0  0  0  0  0
   -1.2900    7.4883    0.0000 C   0  0  0  0  0  0  0  0  0  0  0  0
    0.0143    8.2291    0.0000 C   0  0  0  0  0  0  0  0  0  0  0  0
    0.0250    9.7290    0.0000 C   0  0  0  0  0  0  0  0  0  0  0  0
   -1.2687   10.4882    0.0000 C   0  0  0  0  0  0  0  0  0  0  0  0
   -2.5730    9.7474    0.0000 C   0  0  0  0  0  0  0  0  0  0  0  0
   -3.8659   10.5098    0.0000 N   0  0  0  0  0  0  0  0  0  0  0  0
   -3.8556   11.7097    0.0000 O   0  0  0  0  0  0  0  0  0  0  0  0
   -4.9104    9.9190    0.0000 O   0  0  0  0  0  0  0  0  0  0  0  0
  1  2  2  0
  2  3  1  0
  3  4  1  0
  4  5  2  0
  5  6  1  0
  6  7  2  0
  7  8  1  0
  8  9  2  0
  4  9  1  0
  9 10  1  0
  1 10  1  0
  3 11  2  0
 12 13  2  0
 14 15  1  0
 15 16  1  0
 16 17  1  0
 17 18  1  0
 18 19  1  0
 14 19  1  0
 12 14  1  0
 20 21  1  0
 17 20  1  0
  1 12  1  0
 22 23  1  0
  7 22  1  0
  5 24  1  0
 21 25  2  0
 25 26  1  0
 26 27  2  0
 27 28  1  0
 28 29  2  0
 29 21  1  0
 30 31  2  0
 30 32  1  0
 29 30  1  0
M  CHG  2  30   1  32  -1
M  END
>  <Classification>  (447) 
0

>  <pchembl>  (447) 
4.46

>  <InChI_steorem>  (447) 
InChI=1S/C22H21N3O7/c1-31-15-10-17(26)21-18(27)12-20(32-19(21)11-15)22(28)24-8-6-23(7-9-24)13-14-4-2-3-5-16(14)25(29)30/h2-5,10-12,26H,6-9,13H2,1H3

>  <source>  (447) 
ChEMBL25

>  <source_id>  (447) 
25

>  <optional_reference>  (447) 
10.1016/j.ejmech.2015.12.010

>  <optional_origin>  (447) 
None

>  <target>  (447) 
BCRP

$$$$

     RDKit          2D

 32 35  0  0  0  0  0  0  0  0999 V2000
   -2.6111    0.7486    0.0000 C   0  0  0  0  0  0  0  0  0  0  0  0
   -2.6111   -0.7486    0.0000 C   0  0  0  0  0  0  0  0  0  0  0  0
   -1.2964   -1.4973    0.0000 C   0  0  0  0  0  0  0  0  0  0  0  0
    0.0000   -0.7486    0.0000 C   0  0  0  0  0  0  0  0  0  0  0  0
    1.2964   -1.4973    0.0000 C   0  0  0  0  0  0  0  0  0  0  0  0
    2.5929   -0.7486    0.0000 C   0  0  0  0  0  0  0  0  0  0  0  0
    2.5929    0.7486    0.0000 C   0  0  0  0  0  0  0  0  0  0  0  0
    1.2964    1.4973    0.0000 C   0  0  0  0  0  0  0  0  0  0  0  0
    0.0000    0.7486    0.0000 C   0  0  0  0  0  0  0  0  0  0  0  0
   -1.2964    1.4973    0.0000 O   0  0  0  0  0  0  0  0  0  0  0  0
   -1.2928   -2.6973    0.0000 O   0  0  0  0  0  0  0  0  0  0  0  0
   -3.9091    1.5019    0.0000 C   0  0  0  0  0  0  0  0  0  0  0  0
   -4.9494    0.9039    0.0000 O   0  0  0  0  0  0  0  0  0  0  0  0
   -3.9067    3.0027    0.0000 N   0  0  0  0  0  0  0  0  0  0  0  0
   -5.2030    3.7575    0.0000 C   0  0  0  0  0  0  0  0  0  0  0  0
   -5.1976    5.2575    0.0000 C   0  0  0  0  0  0  0  0  0  0  0  0
   -3.8958    6.0028    0.0000 N   0  0  0  0  0  0  0  0  0  0  0  0
   -2.5995    5.2481    0.0000 C   0  0  0  0  0  0  0  0  0  0  0  0
   -2.6050    3.7481    0.0000 C   0  0  0  0  0  0  0  0  0  0  0  0
   -3.8873    7.5036    0.0000 C   0  0  0  0  0  0  0  0  0  0  0  0
   -2.5838    8.2475    0.0000 C   0  0  0  0  0  0  0  0  0  0  0  0
    3.8911    1.5017    0.0000 O   0  0  0  0  0  0  0  0  0  0  0  0
    3.8894    2.7017    0.0000 C   0  0  0  0  0  0  0  0  0  0  0  0
    1.2964   -2.6973    0.0000 O   0  0  0  0  0  0  0  0  0  0  0  0
   -2.5730    9.7474    0.0000 C   0  0  0  0  0  0  0  0  0  0  0  0
   -1.2687   10.4882    0.0000 C   0  0  0  0  0  0  0  0  0  0  0  0
    0.0250    9.7290    0.0000 C   0  0  0  0  0  0  0  0  0  0  0  0
    0.0143    8.2291    0.0000 C   0  0  0  0  0  0  0  0  0  0  0  0
   -1.2900    7.4883    0.0000 C   0  0  0  0  0  0  0  0  0  0  0  0
    1.3315   10.4675    0.0000 N   0  0  0  0  0  0  0  0  0  0  0  0
    2.3656    9.8587    0.0000 O   0  0  0  0  0  0  0  0  0  0  0  0
    1.3421   11.6675    0.0000 O   0  0  0  0  0  0  0  0  0  0  0  0
  1  2  2  0
  2  3  1  0
  3  4  1  0
  4  5  2  0
  5  6  1  0
  6  7  2  0
  7  8  1  0
  8  9  2  0
  4  9  1  0
  9 10  1  0
  1 10  1  0
  3 11  2  0
 12 13  2  0
 14 15  1  0
 15 16  1  0
 16 17  1  0
 17 18  1  0
 18 19  1  0
 14 19  1  0
 12 14  1  0
 20 21  1  0
 17 20  1  0
  1 12  1  0
 22 23  1  0
  7 22  1  0
  5 24  1  0
 21 25  2  0
 25 26  1  0
 26 27  2  0
 27 28  1  0
 28 29  2  0
 29 21  1  0
 30 31  2  0
 30 32  1  0
 27 30  1  0
M  CHG  2  30   1  32  -1
M  END
>  <Classification>  (448) 
0

>  <pchembl>  (448) 
4.92

>  <InChI_steorem>  (448) 
InChI=1S/C22H21N3O7/c1-31-16-10-17(26)21-18(27)12-20(32-19(21)11-16)22(28)24-8-6-23(7-9-24)13-14-2-4-15(5-3-14)25(29)30/h2-5,10-12,26H,6-9,13H2,1H3

>  <source>  (448) 
ChEMBL25

>  <source_id>  (448) 
25

>  <optional_reference>  (448) 
10.1016/j.ejmech.2015.12.010

>  <optional_origin>  (448) 
None

>  <target>  (448) 
BCRP

$$$$

     RDKit          2D

 26 29  0  0  0  0  0  0  0  0999 V2000
   -6.4810   -6.0117    0.0000 C   0  0  0  0  0  0  0  0  0  0  0  0
   -5.1815   -5.2608    0.0000 C   0  0  0  0  0  0  0  0  0  0  0  0
   -3.8807   -6.0076    0.0000 C   0  0  0  0  0  0  0  0  0  0  0  0
   -2.5835   -5.2544    0.0000 C   0  0  0  0  0  0  0  0  0  0  0  0
   -2.5870   -3.7544    0.0000 C   0  0  0  0  0  0  0  0  0  0  0  0
   -3.8880   -3.0076    0.0000 C   0  0  0  0  0  0  0  0  0  0  0  0
   -5.1852   -3.7608    0.0000 C   0  0  0  0  0  0  0  0  0  0  0  0
   -7.5208   -5.4128    0.0000 O   0  0  0  0  0  0  0  0  0  0  0  0
   -6.4802   -7.2117    0.0000 O   0  0  0  0  0  0  0  0  0  0  0  0
   -1.2907   -2.9981    0.0000 N   0  0  0  0  0  0  0  0  0  0  0  0
   -1.2964    1.4973    0.0000 N   0  0  0  0  0  0  0  0  0  0  0  0
   -2.6111    0.7486    0.0000 C   0  0  0  0  0  0  0  0  0  0  0  0
   -2.6111   -0.7486    0.0000 N   0  0  0  0  0  0  0  0  0  0  0  0
   -1.2964   -1.4973    0.0000 C   0  0  0  0  0  0  0  0  0  0  0  0
    0.0000   -0.7486    0.0000 C   0  0  0  0  0  0  0  0  0  0  0  0
    1.2964   -1.4973    0.0000 C   0  0  0  0  0  0  0  0  0  0  0  0
    2.5929   -0.7486    0.0000 C   0  0  0  0  0  0  0  0  0  0  0  0
    2.5929    0.7486    0.0000 C   0  0  0  0  0  0  0  0  0  0  0  0
    1.2964    1.4973    0.0000 C   0  0  0  0  0  0  0  0  0  0  0  0
    0.0000    0.7486    0.0000 C   0  0  0  0  0  0  0  0  0  0  0  0
   -6.5065    1.5203    0.0000 C   0  0  0  0  0  0  0  0  0  0  0  0
   -5.2125    0.7617    0.0000 C   0  0  0  0  0  0  0  0  0  0  0  0
   -3.9086    1.5029    0.0000 C   0  0  0  0  0  0  0  0  0  0  0  0
   -3.8985    3.0029    0.0000 C   0  0  0  0  0  0  0  0  0  0  0  0
   -5.1925    3.7616    0.0000 C   0  0  0  0  0  0  0  0  0  0  0  0
   -6.4965    3.0203    0.0000 N   0  0  0  0  0  0  0  0  0  0  0  0
  1  2  1  0
  2  3  2  0
  3  4  1  0
  4  5  2  0
  5  6  1  0
  6  7  2  0
  2  7  1  0
  1  8  2  0
  1  9  1  0
 11 12  2  0
 12 13  1  0
 13 14  2  0
 14 15  1  0
 15 16  2  0
 16 17  1  0
 17 18  2  0
 18 19  1  0
 19 20  2  0
 11 20  1  0
 15 20  1  0
 21 22  2  0
 22 23  1  0
 23 24  2  0
 24 25  1  0
 25 26  2  0
 21 26  1  0
 12 23  1  0
 10 14  1  0
  5 10  1  0
M  END
>  <Classification>  (449) 
1

>  <pchembl>  (449) 
5.02

>  <InChI_steorem>  (449) 
InChI=1S/C20H14N4O2/c25-20(26)14-5-7-15(8-6-14)22-19-16-3-1-2-4-17(16)23-18(24-19)13-9-11-21-12-10-13/h1-12H,(H,25,26)(H,22,23,24)

>  <source>  (449) 
ChEMBL25

>  <source_id>  (449) 
25

>  <optional_reference>  (449) 
10.1021/acs.jmedchem.7b00441

>  <optional_origin>  (449) 
None

>  <target>  (449) 
BCRP

$$$$

     RDKit          2D

 21 23  0  0  0  0  0  0  0  0999 V2000
    7.9159   -7.4570    0.0000 C   0  0  0  0  0  0  0  0  0  0  0  0
    7.9159   -8.2820    0.0000 C   0  0  0  0  0  0  0  0  0  0  0  0
    7.2014   -8.6945    0.0000 C   0  0  0  0  0  0  0  0  0  0  0  0
    6.4870   -8.2820    0.0000 C   0  0  0  0  0  0  0  0  0  0  0  0
    5.7725   -8.6945    0.0000 C   0  0  0  0  0  0  0  0  0  0  0  0
    5.0580   -8.2820    0.0000 C   0  0  0  0  0  0  0  0  0  0  0  0
    5.0580   -7.4570    0.0000 C   0  0  0  0  0  0  0  0  0  0  0  0
    5.7725   -7.0445    0.0000 C   0  0  0  0  0  0  0  0  0  0  0  0
    6.4870   -7.4570    0.0000 C   0  0  0  0  0  0  0  0  0  0  0  0
    7.2014   -7.0445    0.0000 O   0  0  0  0  0  0  0  0  0  0  0  0
    7.2014   -9.5195    0.0000 O   0  0  0  0  0  0  0  0  0  0  0  0
    8.6304   -7.0445    0.0000 C   0  0  0  0  0  0  0  0  0  0  0  0
    8.6304   -6.2195    0.0000 C   0  0  0  0  0  0  0  0  0  0  0  0
    9.3449   -5.8070    0.0000 C   0  0  0  0  0  0  0  0  0  0  0  0
   10.0593   -6.2195    0.0000 C   0  0  0  0  0  0  0  0  0  0  0  0
   10.0593   -7.0445    0.0000 C   0  0  0  0  0  0  0  0  0  0  0  0
    9.3449   -7.4570    0.0000 C   0  0  0  0  0  0  0  0  0  0  0  0
   10.7738   -5.8070    0.0000 O   0  0  0  0  0  0  0  0  0  0  0  0
   10.7738   -4.9820    0.0000 C   0  0  0  0  0  0  0  0  0  0  0  0
    8.6304   -8.6945    0.0000 O   0  0  0  0  0  0  0  0  0  0  0  0
    8.6304   -9.5195    0.0000 C   0  0  0  0  0  0  0  0  0  0  0  0
  1  2  2  0
  2  3  1  0
  3  4  1  0
  4  5  2  0
  5  6  1  0
  6  7  2  0
  7  8  1  0
  8  9  2  0
  4  9  1  0
  9 10  1  0
  1 10  1  0
  3 11  2  0
 12 13  2  0
 13 14  1  0
 14 15  2  0
 15 16  1  0
 16 17  2  0
 12 17  1  0
 18 19  1  0
 15 18  1  0
  1 12  1  0
 20 21  1  0
  2 20  1  0
M  END
>  <Classification>  (450) 
1

>  <pchembl>  (450) 
5.19

>  <InChI_steorem>  (450) 
InChI=1S/C17H14O4/c1-19-12-9-7-11(8-10-12)16-17(20-2)15(18)13-5-3-4-6-14(13)21-16/h3-10H,1-2H3

>  <source>  (450) 
ChEMBL25

>  <source_id>  (450) 
25

>  <optional_reference>  (450) 
10.1016/j.ejmech.2013.06.035

>  <optional_origin>  (450) 
None

>  <target>  (450) 
BCRP

$$$$

     RDKit          2D

 22 25  0  0  0  0  0  0  0  0999 V2000
    6.4847   -6.6778    0.0000 C   0  0  0  0  0  0  0  0  0  0  0  0
    6.4847   -7.5028    0.0000 C   0  0  0  0  0  0  0  0  0  0  0  0
    5.7702   -7.9153    0.0000 C   0  0  0  0  0  0  0  0  0  0  0  0
    5.0558   -7.5028    0.0000 C   0  0  0  0  0  0  0  0  0  0  0  0
    4.3413   -7.9153    0.0000 C   0  0  0  0  0  0  0  0  0  0  0  0
    3.6268   -7.5028    0.0000 C   0  0  0  0  0  0  0  0  0  0  0  0
    3.6268   -6.6778    0.0000 C   0  0  0  0  0  0  0  0  0  0  0  0
    4.3413   -6.2653    0.0000 C   0  0  0  0  0  0  0  0  0  0  0  0
    5.0558   -6.6778    0.0000 C   0  0  0  0  0  0  0  0  0  0  0  0
    5.7702   -6.2653    0.0000 O   0  0  0  0  0  0  0  0  0  0  0  0
    2.9124   -7.9153    0.0000 C   0  0  0  0  0  0  0  0  0  0  0  0
    2.9124   -8.7403    0.0000 C   0  0  0  0  0  0  0  0  0  0  0  0
    3.6268   -9.1528    0.0000 C   0  0  0  0  0  0  0  0  0  0  0  0
    4.3413   -8.7403    0.0000 C   0  0  0  0  0  0  0  0  0  0  0  0
    5.7702   -8.7403    0.0000 O   0  0  0  0  0  0  0  0  0  0  0  0
    7.1992   -6.2653    0.0000 C   0  0  0  0  0  0  0  0  0  0  0  0
    7.1992   -5.4403    0.0000 C   0  0  0  0  0  0  0  0  0  0  0  0
    7.9137   -5.0278    0.0000 C   0  0  0  0  0  0  0  0  0  0  0  0
    8.6281   -5.4403    0.0000 C   0  0  0  0  0  0  0  0  0  0  0  0
    8.6281   -6.2653    0.0000 C   0  0  0  0  0  0  0  0  0  0  0  0
    7.9137   -6.6778    0.0000 C   0  0  0  0  0  0  0  0  0  0  0  0
    7.1992   -7.9153    0.0000 O   0  0  0  0  0  0  0  0  0  0  0  0
  1  2  2  0
  2  3  1  0
  3  4  1  0
  4  5  2  0
  5  6  1  0
  6  7  2  0
  7  8  1  0
  8  9  2  0
  4  9  1  0
  9 10  1  0
  1 10  1  0
 11 12  2  0
 12 13  1  0
 13 14  2  0
  5 14  1  0
  6 11  1  0
  3 15  2  0
 16 17  2  0
 17 18  1  0
 18 19  2  0
 19 20  1  0
 20 21  2  0
 16 21  1  0
  1 16  1  0
  2 22  1  0
M  END
>  <Classification>  (451) 
0

>  <pchembl>  (451) 
4.87

>  <InChI_steorem>  (451) 
InChI=1S/C19H12O3/c20-17-16-14-9-5-4-6-12(14)10-11-15(16)22-19(18(17)21)13-7-2-1-3-8-13/h1-11,21H

>  <source>  (451) 
ChEMBL25

>  <source_id>  (451) 
25

>  <optional_reference>  (451) 
10.1016/j.ejmech.2013.06.035

>  <optional_origin>  (451) 
None

>  <target>  (451) 
BCRP

$$$$

     RDKit          2D

 22 25  0  0  0  0  0  0  0  0999 V2000
    8.4684   -7.2869    0.0000 C   0  0  0  0  0  0  0  0  0  0  0  0
    8.4684   -8.1119    0.0000 C   0  0  0  0  0  0  0  0  0  0  0  0
    7.7539   -8.5244    0.0000 C   0  0  0  0  0  0  0  0  0  0  0  0
    7.0394   -8.1119    0.0000 C   0  0  0  0  0  0  0  0  0  0  0  0
    6.3250   -8.5244    0.0000 C   0  0  0  0  0  0  0  0  0  0  0  0
    5.6105   -8.1119    0.0000 C   0  0  0  0  0  0  0  0  0  0  0  0
    5.6105   -7.2869    0.0000 C   0  0  0  0  0  0  0  0  0  0  0  0
    6.3250   -6.8744    0.0000 C   0  0  0  0  0  0  0  0  0  0  0  0
    7.0394   -7.2869    0.0000 C   0  0  0  0  0  0  0  0  0  0  0  0
    7.7539   -6.8744    0.0000 O   0  0  0  0  0  0  0  0  0  0  0  0
    6.3250   -6.0494    0.0000 C   0  0  0  0  0  0  0  0  0  0  0  0
    5.6105   -5.6369    0.0000 C   0  0  0  0  0  0  0  0  0  0  0  0
    4.8960   -6.0494    0.0000 C   0  0  0  0  0  0  0  0  0  0  0  0
    4.8960   -6.8744    0.0000 C   0  0  0  0  0  0  0  0  0  0  0  0
    7.7539   -9.3494    0.0000 O   0  0  0  0  0  0  0  0  0  0  0  0
    9.1829   -6.8744    0.0000 C   0  0  0  0  0  0  0  0  0  0  0  0
    9.1829   -6.0494    0.0000 C   0  0  0  0  0  0  0  0  0  0  0  0
    9.8973   -5.6369    0.0000 C   0  0  0  0  0  0  0  0  0  0  0  0
   10.6118   -6.0494    0.0000 C   0  0  0  0  0  0  0  0  0  0  0  0
   10.6118   -6.8744    0.0000 C   0  0  0  0  0  0  0  0  0  0  0  0
    9.8973   -7.2869    0.0000 C   0  0  0  0  0  0  0  0  0  0  0  0
    9.1829   -8.5244    0.0000 O   0  0  0  0  0  0  0  0  0  0  0  0
  1  2  2  0
  2  3  1  0
  3  4  1  0
  4  5  2  0
  5  6  1  0
  6  7  2  0
  7  8  1  0
  8  9  2  0
  4  9  1  0
  9 10  1  0
  1 10  1  0
 11 12  2  0
 12 13  1  0
 13 14  2  0
  7 14  1  0
  8 11  1  0
  3 15  2  0
 16 17  2  0
 17 18  1  0
 18 19  2  0
 19 20  1  0
 20 21  2  0
 16 21  1  0
  1 16  1  0
  2 22  1  0
M  END
>  <Classification>  (452) 
1

>  <pchembl>  (452) 
5.8

>  <InChI_steorem>  (452) 
InChI=1S/C19H12O3/c20-16-15-11-10-12-6-4-5-9-14(12)19(15)22-18(17(16)21)13-7-2-1-3-8-13/h1-11,21H

>  <source>  (452) 
ChEMBL25

>  <source_id>  (452) 
25

>  <optional_reference>  (452) 
10.1016/j.ejmech.2013.06.035

>  <optional_origin>  (452) 
None

>  <target>  (452) 
BCRP

$$$$

     RDKit          2D

 23 25  0  0  0  0  0  0  0  0999 V2000
    5.9362   -6.7441    0.0000 C   0  0  0  0  0  0  0  0  0  0  0  0
    5.9362   -7.5691    0.0000 C   0  0  0  0  0  0  0  0  0  0  0  0
    5.2218   -7.9816    0.0000 C   0  0  0  0  0  0  0  0  0  0  0  0
    4.5073   -7.5691    0.0000 C   0  0  0  0  0  0  0  0  0  0  0  0
    3.7928   -7.9816    0.0000 C   0  0  0  0  0  0  0  0  0  0  0  0
    3.0783   -7.5691    0.0000 C   0  0  0  0  0  0  0  0  0  0  0  0
    3.0783   -6.7441    0.0000 C   0  0  0  0  0  0  0  0  0  0  0  0
    3.7928   -6.3316    0.0000 C   0  0  0  0  0  0  0  0  0  0  0  0
    4.5073   -6.7441    0.0000 C   0  0  0  0  0  0  0  0  0  0  0  0
    5.2218   -6.3316    0.0000 O   0  0  0  0  0  0  0  0  0  0  0  0
    5.2218   -8.8066    0.0000 O   0  0  0  0  0  0  0  0  0  0  0  0
    6.6507   -7.9816    0.0000 O   0  0  0  0  0  0  0  0  0  0  0  0
    6.6507   -8.8066    0.0000 C   0  0  0  0  0  0  0  0  0  0  0  0
    6.6507   -6.3316    0.0000 C   0  0  0  0  0  0  0  0  0  0  0  0
    6.6507   -5.5066    0.0000 C   0  0  0  0  0  0  0  0  0  0  0  0
    7.3652   -5.0941    0.0000 C   0  0  0  0  0  0  0  0  0  0  0  0
    8.0796   -5.5066    0.0000 C   0  0  0  0  0  0  0  0  0  0  0  0
    8.0796   -6.3316    0.0000 C   0  0  0  0  0  0  0  0  0  0  0  0
    7.3652   -6.7441    0.0000 C   0  0  0  0  0  0  0  0  0  0  0  0
    8.7941   -5.0941    0.0000 O   0  0  0  0  0  0  0  0  0  0  0  0
    9.5086   -5.5066    0.0000 C   0  0  0  0  0  0  0  0  0  0  0  0
    7.3652   -4.2691    0.0000 O   0  0  0  0  0  0  0  0  0  0  0  0
    8.0796   -3.8566    0.0000 C   0  0  0  0  0  0  0  0  0  0  0  0
  1  2  2  0
  2  3  1  0
  3  4  1  0
  4  5  2  0
  5  6  1  0
  6  7  2  0
  7  8  1  0
  8  9  2  0
  4  9  1  0
  9 10  1  0
  1 10  1  0
  3 11  2  0
 12 13  1  0
  2 12  1  0
 14 15  2  0
 15 16  1  0
 16 17  2  0
 17 18  1  0
 18 19  2  0
 14 19  1  0
 20 21  1  0
 17 20  1  0
 22 23  1  0
 16 22  1  0
  1 14  1  0
M  END
>  <Classification>  (453) 
1

>  <pchembl>  (453) 
5.87

>  <InChI_steorem>  (453) 
InChI=1S/C18H16O5/c1-20-14-9-8-11(10-15(14)21-2)17-18(22-3)16(19)12-6-4-5-7-13(12)23-17/h4-10H,1-3H3

>  <source>  (453) 
ChEMBL25

>  <source_id>  (453) 
25

>  <optional_reference>  (453) 
10.1016/j.ejmech.2013.06.035

>  <optional_origin>  (453) 
None

>  <target>  (453) 
BCRP

$$$$

     RDKit          2D

 23 26  0  0  0  0  0  0  0  0999 V2000
    7.4808   -6.0582    0.0000 C   0  0  0  0  0  0  0  0  0  0  0  0
    7.4808   -6.8832    0.0000 C   0  0  0  0  0  0  0  0  0  0  0  0
    6.7663   -7.2957    0.0000 C   0  0  0  0  0  0  0  0  0  0  0  0
    6.0518   -6.8832    0.0000 C   0  0  0  0  0  0  0  0  0  0  0  0
    5.3373   -7.2957    0.0000 C   0  0  0  0  0  0  0  0  0  0  0  0
    4.6229   -6.8832    0.0000 C   0  0  0  0  0  0  0  0  0  0  0  0
    4.6229   -6.0582    0.0000 C   0  0  0  0  0  0  0  0  0  0  0  0
    5.3373   -5.6457    0.0000 C   0  0  0  0  0  0  0  0  0  0  0  0
    6.0518   -6.0582    0.0000 C   0  0  0  0  0  0  0  0  0  0  0  0
    6.7663   -5.6457    0.0000 O   0  0  0  0  0  0  0  0  0  0  0  0
    3.9084   -7.2957    0.0000 C   0  0  0  0  0  0  0  0  0  0  0  0
    3.9084   -8.1207    0.0000 C   0  0  0  0  0  0  0  0  0  0  0  0
    4.6229   -8.5332    0.0000 C   0  0  0  0  0  0  0  0  0  0  0  0
    5.3373   -8.1207    0.0000 C   0  0  0  0  0  0  0  0  0  0  0  0
    6.7663   -8.1207    0.0000 O   0  0  0  0  0  0  0  0  0  0  0  0
    8.1952   -5.6457    0.0000 C   0  0  0  0  0  0  0  0  0  0  0  0
    8.1952   -4.8207    0.0000 C   0  0  0  0  0  0  0  0  0  0  0  0
    8.9097   -4.4082    0.0000 C   0  0  0  0  0  0  0  0  0  0  0  0
    9.6242   -4.8207    0.0000 C   0  0  0  0  0  0  0  0  0  0  0  0
    9.6242   -5.6457    0.0000 C   0  0  0  0  0  0  0  0  0  0  0  0
    8.9097   -6.0582    0.0000 C   0  0  0  0  0  0  0  0  0  0  0  0
   10.3386   -4.4082    0.0000 O   0  0  0  0  0  0  0  0  0  0  0  0
   11.0531   -4.8207    0.0000 C   0  0  0  0  0  0  0  0  0  0  0  0
  1  2  2  0
  2  3  1  0
  3  4  1  0
  4  5  2  0
  5  6  1  0
  6  7  2  0
  7  8  1  0
  8  9  2  0
  4  9  1  0
  9 10  1  0
  1 10  1  0
 11 12  2  0
 12 13  1  0
 13 14  2  0
  5 14  1  0
  6 11  1  0
  3 15  2  0
 16 17  2  0
 17 18  1  0
 18 19  2  0
 19 20  1  0
 20 21  2  0
 16 21  1  0
 22 23  1  0
 19 22  1  0
  1 16  1  0
M  END
>  <Classification>  (454) 
1

>  <pchembl>  (454) 
5.77

>  <InChI_steorem>  (454) 
InChI=1S/C20H14O3/c1-22-15-9-6-14(7-10-15)19-12-17(21)20-16-5-3-2-4-13(16)8-11-18(20)23-19/h2-12H,1H3

>  <source>  (454) 
ChEMBL25

>  <source_id>  (454) 
25

>  <optional_reference>  (454) 
10.1016/j.ejmech.2013.06.035

>  <optional_origin>  (454) 
None

>  <target>  (454) 
BCRP

$$$$

     RDKit          2D

 23 26  0  0  0  0  0  0  0  0999 V2000
    7.8899   -6.8857    0.0000 C   0  0  0  0  0  0  0  0  0  0  0  0
    7.8899   -7.7107    0.0000 C   0  0  0  0  0  0  0  0  0  0  0  0
    7.1755   -8.1232    0.0000 C   0  0  0  0  0  0  0  0  0  0  0  0
    6.4610   -7.7107    0.0000 C   0  0  0  0  0  0  0  0  0  0  0  0
    5.7465   -8.1232    0.0000 C   0  0  0  0  0  0  0  0  0  0  0  0
    5.0320   -7.7107    0.0000 C   0  0  0  0  0  0  0  0  0  0  0  0
    5.0320   -6.8857    0.0000 C   0  0  0  0  0  0  0  0  0  0  0  0
    5.7465   -6.4732    0.0000 C   0  0  0  0  0  0  0  0  0  0  0  0
    6.4610   -6.8857    0.0000 C   0  0  0  0  0  0  0  0  0  0  0  0
    7.1755   -6.4732    0.0000 O   0  0  0  0  0  0  0  0  0  0  0  0
    5.7465   -5.6482    0.0000 C   0  0  0  0  0  0  0  0  0  0  0  0
    5.0320   -5.2357    0.0000 C   0  0  0  0  0  0  0  0  0  0  0  0
    4.3176   -5.6482    0.0000 C   0  0  0  0  0  0  0  0  0  0  0  0
    4.3176   -6.4732    0.0000 C   0  0  0  0  0  0  0  0  0  0  0  0
    7.1755   -8.9482    0.0000 O   0  0  0  0  0  0  0  0  0  0  0  0
    8.6044   -6.4732    0.0000 C   0  0  0  0  0  0  0  0  0  0  0  0
    8.6044   -5.6482    0.0000 C   0  0  0  0  0  0  0  0  0  0  0  0
    9.3189   -5.2357    0.0000 C   0  0  0  0  0  0  0  0  0  0  0  0
   10.0333   -5.6482    0.0000 C   0  0  0  0  0  0  0  0  0  0  0  0
   10.0333   -6.4732    0.0000 C   0  0  0  0  0  0  0  0  0  0  0  0
    9.3189   -6.8857    0.0000 C   0  0  0  0  0  0  0  0  0  0  0  0
   10.7478   -5.2357    0.0000 O   0  0  0  0  0  0  0  0  0  0  0  0
   11.4623   -5.6482    0.0000 C   0  0  0  0  0  0  0  0  0  0  0  0
  1  2  2  0
  2  3  1  0
  3  4  1  0
  4  5  2  0
  5  6  1  0
  6  7  2  0
  7  8  1  0
  8  9  2  0
  4  9  1  0
  9 10  1  0
  1 10  1  0
 11 12  2  0
 12 13  1  0
 13 14  2  0
  7 14  1  0
  8 11  1  0
  3 15  2  0
 16 17  2  0
 17 18  1  0
 18 19  2  0
 19 20  1  0
 20 21  2  0
 16 21  1  0
 22 23  1  0
 19 22  1  0
  1 16  1  0
M  END
>  <Classification>  (455) 
1

>  <pchembl>  (455) 
5.89

>  <InChI_steorem>  (455) 
InChI=1S/C20H14O3/c1-22-15-9-6-14(7-10-15)19-12-18(21)17-11-8-13-4-2-3-5-16(13)20(17)23-19/h2-12H,1H3

>  <source>  (455) 
ChEMBL25

>  <source_id>  (455) 
25

>  <optional_reference>  (455) 
10.1016/j.ejmech.2013.06.035

>  <optional_origin>  (455) 
None

>  <target>  (455) 
BCRP

$$$$

     RDKit          2D

 23 26  0  0  0  0  0  0  0  0999 V2000
    8.1261   -6.3844    0.0000 C   0  0  0  0  0  0  0  0  0  0  0  0
    8.1261   -7.2094    0.0000 C   0  0  0  0  0  0  0  0  0  0  0  0
    7.4117   -7.6219    0.0000 C   0  0  0  0  0  0  0  0  0  0  0  0
    6.6972   -7.2094    0.0000 C   0  0  0  0  0  0  0  0  0  0  0  0
    5.9827   -7.6219    0.0000 C   0  0  0  0  0  0  0  0  0  0  0  0
    5.2683   -7.2094    0.0000 C   0  0  0  0  0  0  0  0  0  0  0  0
    5.2683   -6.3844    0.0000 C   0  0  0  0  0  0  0  0  0  0  0  0
    5.9827   -5.9719    0.0000 C   0  0  0  0  0  0  0  0  0  0  0  0
    6.6972   -6.3844    0.0000 C   0  0  0  0  0  0  0  0  0  0  0  0
    7.4117   -5.9719    0.0000 O   0  0  0  0  0  0  0  0  0  0  0  0
    4.5538   -7.6219    0.0000 C   0  0  0  0  0  0  0  0  0  0  0  0
    4.5538   -8.4469    0.0000 C   0  0  0  0  0  0  0  0  0  0  0  0
    5.2683   -8.8594    0.0000 C   0  0  0  0  0  0  0  0  0  0  0  0
    5.9827   -8.4469    0.0000 C   0  0  0  0  0  0  0  0  0  0  0  0
    7.4117   -8.4469    0.0000 O   0  0  0  0  0  0  0  0  0  0  0  0
    8.8406   -5.9719    0.0000 C   0  0  0  0  0  0  0  0  0  0  0  0
    8.8406   -5.1469    0.0000 C   0  0  0  0  0  0  0  0  0  0  0  0
    9.5551   -4.7344    0.0000 C   0  0  0  0  0  0  0  0  0  0  0  0
   10.2696   -5.1469    0.0000 C   0  0  0  0  0  0  0  0  0  0  0  0
   10.2696   -5.9719    0.0000 C   0  0  0  0  0  0  0  0  0  0  0  0
    9.5551   -6.3844    0.0000 C   0  0  0  0  0  0  0  0  0  0  0  0
    8.8406   -7.6219    0.0000 O   0  0  0  0  0  0  0  0  0  0  0  0
    8.8406   -8.4469    0.0000 C   0  0  0  0  0  0  0  0  0  0  0  0
  1  2  2  0
  2  3  1  0
  3  4  1  0
  4  5  2  0
  5  6  1  0
  6  7  2  0
  7  8  1  0
  8  9  2  0
  4  9  1  0
  9 10  1  0
  1 10  1  0
 11 12  2  0
 12 13  1  0
 13 14  2  0
  5 14  1  0
  6 11  1  0
  3 15  2  0
 16 17  2  0
 17 18  1  0
 18 19  2  0
 19 20  1  0
 20 21  2  0
 16 21  1  0
  1 16  1  0
 22 23  1  0
  2 22  1  0
M  END
>  <Classification>  (456) 
0

>  <pchembl>  (456) 
4.9

>  <InChI_steorem>  (456) 
InChI=1S/C20H14O3/c1-22-20-18(21)17-15-10-6-5-7-13(15)11-12-16(17)23-19(20)14-8-3-2-4-9-14/h2-12H,1H3

>  <source>  (456) 
ChEMBL25

>  <source_id>  (456) 
25

>  <optional_reference>  (456) 
10.1016/j.ejmech.2013.06.035

>  <optional_origin>  (456) 
None

>  <target>  (456) 
BCRP

$$$$

     RDKit          2D

 23 26  0  0  0  0  0  0  0  0999 V2000
    8.4182   -6.8107    0.0000 C   0  0  0  0  0  0  0  0  0  0  0  0
    8.4182   -7.6357    0.0000 C   0  0  0  0  0  0  0  0  0  0  0  0
    7.7037   -8.0482    0.0000 C   0  0  0  0  0  0  0  0  0  0  0  0
    6.9892   -7.6357    0.0000 C   0  0  0  0  0  0  0  0  0  0  0  0
    6.2747   -8.0482    0.0000 C   0  0  0  0  0  0  0  0  0  0  0  0
    5.5603   -7.6357    0.0000 C   0  0  0  0  0  0  0  0  0  0  0  0
    5.5603   -6.8107    0.0000 C   0  0  0  0  0  0  0  0  0  0  0  0
    6.2747   -6.3982    0.0000 C   0  0  0  0  0  0  0  0  0  0  0  0
    6.9892   -6.8107    0.0000 C   0  0  0  0  0  0  0  0  0  0  0  0
    7.7037   -6.3982    0.0000 O   0  0  0  0  0  0  0  0  0  0  0  0
    6.2747   -5.5732    0.0000 C   0  0  0  0  0  0  0  0  0  0  0  0
    5.5603   -5.1607    0.0000 C   0  0  0  0  0  0  0  0  0  0  0  0
    4.8458   -5.5732    0.0000 C   0  0  0  0  0  0  0  0  0  0  0  0
    4.8458   -6.3982    0.0000 C   0  0  0  0  0  0  0  0  0  0  0  0
    7.7037   -8.8732    0.0000 O   0  0  0  0  0  0  0  0  0  0  0  0
    9.1326   -6.3982    0.0000 C   0  0  0  0  0  0  0  0  0  0  0  0
    9.1326   -5.5732    0.0000 C   0  0  0  0  0  0  0  0  0  0  0  0
    9.8471   -5.1607    0.0000 C   0  0  0  0  0  0  0  0  0  0  0  0
   10.5616   -5.5732    0.0000 C   0  0  0  0  0  0  0  0  0  0  0  0
   10.5616   -6.3982    0.0000 C   0  0  0  0  0  0  0  0  0  0  0  0
    9.8471   -6.8107    0.0000 C   0  0  0  0  0  0  0  0  0  0  0  0
    9.1326   -8.0482    0.0000 O   0  0  0  0  0  0  0  0  0  0  0  0
    9.1326   -8.8732    0.0000 C   0  0  0  0  0  0  0  0  0  0  0  0
  1  2  2  0
  2  3  1  0
  3  4  1  0
  4  5  2  0
  5  6  1  0
  6  7  2  0
  7  8  1  0
  8  9  2  0
  4  9  1  0
  9 10  1  0
  1 10  1  0
 11 12  2  0
 12 13  1  0
 13 14  2  0
  7 14  1  0
  8 11  1  0
  3 15  2  0
 16 17  2  0
 17 18  1  0
 18 19  2  0
 19 20  1  0
 20 21  2  0
 16 21  1  0
  1 16  1  0
 22 23  1  0
  2 22  1  0
M  END
>  <Classification>  (457) 
1

>  <pchembl>  (457) 
5.64

>  <InChI_steorem>  (457) 
InChI=1S/C20H14O3/c1-22-20-17(21)16-12-11-13-7-5-6-10-15(13)19(16)23-18(20)14-8-3-2-4-9-14/h2-12H,1H3

>  <source>  (457) 
ChEMBL25

>  <source_id>  (457) 
25

>  <optional_reference>  (457) 
10.1016/j.ejmech.2013.06.035

>  <optional_origin>  (457) 
None

>  <target>  (457) 
BCRP

$$$$

     RDKit          2D

 24 27  0  0  0  0  0  0  0  0999 V2000
    8.9947   -7.4231    0.0000 C   0  0  0  0  0  0  0  0  0  0  0  0
    8.9947   -8.2481    0.0000 C   0  0  0  0  0  0  0  0  0  0  0  0
    8.2802   -8.6606    0.0000 C   0  0  0  0  0  0  0  0  0  0  0  0
    7.5657   -8.2481    0.0000 C   0  0  0  0  0  0  0  0  0  0  0  0
    6.8513   -8.6606    0.0000 C   0  0  0  0  0  0  0  0  0  0  0  0
    6.1368   -8.2481    0.0000 C   0  0  0  0  0  0  0  0  0  0  0  0
    6.1368   -7.4231    0.0000 C   0  0  0  0  0  0  0  0  0  0  0  0
    6.8513   -7.0106    0.0000 C   0  0  0  0  0  0  0  0  0  0  0  0
    7.5657   -7.4231    0.0000 C   0  0  0  0  0  0  0  0  0  0  0  0
    8.2802   -7.0106    0.0000 O   0  0  0  0  0  0  0  0  0  0  0  0
    6.8513   -6.1856    0.0000 C   0  0  0  0  0  0  0  0  0  0  0  0
    6.1368   -5.7731    0.0000 C   0  0  0  0  0  0  0  0  0  0  0  0
    5.4223   -6.1856    0.0000 C   0  0  0  0  0  0  0  0  0  0  0  0
    5.4223   -7.0106    0.0000 C   0  0  0  0  0  0  0  0  0  0  0  0
    8.2802   -9.4856    0.0000 O   0  0  0  0  0  0  0  0  0  0  0  0
    9.7091   -7.0106    0.0000 C   0  0  0  0  0  0  0  0  0  0  0  0
    9.7091   -6.1856    0.0000 C   0  0  0  0  0  0  0  0  0  0  0  0
   10.4236   -5.7731    0.0000 C   0  0  0  0  0  0  0  0  0  0  0  0
   11.1381   -6.1856    0.0000 C   0  0  0  0  0  0  0  0  0  0  0  0
   11.1381   -7.0106    0.0000 C   0  0  0  0  0  0  0  0  0  0  0  0
   10.4236   -7.4231    0.0000 C   0  0  0  0  0  0  0  0  0  0  0  0
   10.4236   -4.9481    0.0000 O   0  0  0  0  0  0  0  0  0  0  0  0
   11.1381   -4.5356    0.0000 C   0  0  0  0  0  0  0  0  0  0  0  0
   11.8525   -5.7731    0.0000 F   0  0  0  0  0  0  0  0  0  0  0  0
  1  2  2  0
  2  3  1  0
  3  4  1  0
  4  5  2  0
  5  6  1  0
  6  7  2  0
  7  8  1  0
  8  9  2  0
  4  9  1  0
  9 10  1  0
  1 10  1  0
 11 12  2  0
 12 13  1  0
 13 14  2  0
  7 14  1  0
  8 11  1  0
  3 15  2  0
 16 17  2  0
 17 18  1  0
 18 19  2  0
 19 20  1  0
 20 21  2  0
 16 21  1  0
 22 23  1  0
 18 22  1  0
 19 24  1  0
  1 16  1  0
M  END
>  <Classification>  (458) 
1

>  <pchembl>  (458) 
6.34

>  <InChI_steorem>  (458) 
InChI=1S/C20H13FO3/c1-23-19-10-13(7-9-16(19)21)18-11-17(22)15-8-6-12-4-2-3-5-14(12)20(15)24-18/h2-11H,1H3

>  <source>  (458) 
ChEMBL25

>  <source_id>  (458) 
25

>  <optional_reference>  (458) 
10.1016/j.ejmech.2013.06.035

>  <optional_origin>  (458) 
None

>  <target>  (458) 
BCRP

$$$$

     RDKit          2D

 24 27  0  0  0  0  0  0  0  0999 V2000
    9.3126   -6.7396    0.0000 C   0  0  0  0  0  0  0  0  0  0  0  0
    9.3126   -7.5646    0.0000 C   0  0  0  0  0  0  0  0  0  0  0  0
    8.5982   -7.9771    0.0000 C   0  0  0  0  0  0  0  0  0  0  0  0
    7.8837   -7.5646    0.0000 C   0  0  0  0  0  0  0  0  0  0  0  0
    7.1692   -7.9771    0.0000 C   0  0  0  0  0  0  0  0  0  0  0  0
    6.4547   -7.5646    0.0000 C   0  0  0  0  0  0  0  0  0  0  0  0
    6.4547   -6.7396    0.0000 C   0  0  0  0  0  0  0  0  0  0  0  0
    7.1692   -6.3271    0.0000 C   0  0  0  0  0  0  0  0  0  0  0  0
    7.8837   -6.7396    0.0000 C   0  0  0  0  0  0  0  0  0  0  0  0
    8.5982   -6.3271    0.0000 O   0  0  0  0  0  0  0  0  0  0  0  0
    7.1692   -5.5021    0.0000 C   0  0  0  0  0  0  0  0  0  0  0  0
    6.4547   -5.0896    0.0000 C   0  0  0  0  0  0  0  0  0  0  0  0
    5.7403   -5.5021    0.0000 C   0  0  0  0  0  0  0  0  0  0  0  0
    5.7403   -6.3271    0.0000 C   0  0  0  0  0  0  0  0  0  0  0  0
    8.5982   -8.8021    0.0000 O   0  0  0  0  0  0  0  0  0  0  0  0
   10.0271   -6.3271    0.0000 C   0  0  0  0  0  0  0  0  0  0  0  0
   10.0271   -5.5021    0.0000 C   0  0  0  0  0  0  0  0  0  0  0  0
   10.7416   -5.0896    0.0000 C   0  0  0  0  0  0  0  0  0  0  0  0
   11.4560   -5.5021    0.0000 C   0  0  0  0  0  0  0  0  0  0  0  0
   11.4560   -6.3271    0.0000 C   0  0  0  0  0  0  0  0  0  0  0  0
   10.7416   -6.7396    0.0000 C   0  0  0  0  0  0  0  0  0  0  0  0
   12.1705   -5.0896    0.0000 O   0  0  0  0  0  0  0  0  0  0  0  0
   12.8850   -5.5021    0.0000 C   0  0  0  0  0  0  0  0  0  0  0  0
   10.0271   -7.9771    0.0000 O   0  0  0  0  0  0  0  0  0  0  0  0
  1  2  2  0
  2  3  1  0
  3  4  1  0
  4  5  2  0
  5  6  1  0
  6  7  2  0
  7  8  1  0
  8  9  2  0
  4  9  1  0
  9 10  1  0
  1 10  1  0
 11 12  2  0
 12 13  1  0
 13 14  2  0
  7 14  1  0
  8 11  1  0
  3 15  2  0
 16 17  2  0
 17 18  1  0
 18 19  2  0
 19 20  1  0
 20 21  2  0
 16 21  1  0
 22 23  1  0
 19 22  1  0
  1 16  1  0
  2 24  1  0
M  END
>  <Classification>  (459) 
1

>  <pchembl>  (459) 
5.3

>  <InChI_steorem>  (459) 
InChI=1S/C20H14O4/c1-23-14-9-6-13(7-10-14)19-18(22)17(21)16-11-8-12-4-2-3-5-15(12)20(16)24-19/h2-11,22H,1H3

>  <source>  (459) 
ChEMBL25

>  <source_id>  (459) 
25

>  <optional_reference>  (459) 
10.1016/j.ejmech.2013.06.035

>  <optional_origin>  (459) 
None

>  <target>  (459) 
BCRP

$$$$

     RDKit          2D

 24 27  0  0  0  0  0  0  0  0999 V2000
    9.3728   -6.3775    0.0000 C   0  0  0  0  0  0  0  0  0  0  0  0
    9.3728   -7.2025    0.0000 C   0  0  0  0  0  0  0  0  0  0  0  0
    8.6584   -7.6150    0.0000 C   0  0  0  0  0  0  0  0  0  0  0  0
    7.9439   -7.2025    0.0000 C   0  0  0  0  0  0  0  0  0  0  0  0
    7.2294   -7.6150    0.0000 C   0  0  0  0  0  0  0  0  0  0  0  0
    6.5150   -7.2025    0.0000 C   0  0  0  0  0  0  0  0  0  0  0  0
    6.5150   -6.3775    0.0000 C   0  0  0  0  0  0  0  0  0  0  0  0
    7.2294   -5.9650    0.0000 C   0  0  0  0  0  0  0  0  0  0  0  0
    7.9439   -6.3775    0.0000 C   0  0  0  0  0  0  0  0  0  0  0  0
    8.6584   -5.9650    0.0000 O   0  0  0  0  0  0  0  0  0  0  0  0
    5.8005   -7.6150    0.0000 C   0  0  0  0  0  0  0  0  0  0  0  0
    5.8005   -8.4400    0.0000 C   0  0  0  0  0  0  0  0  0  0  0  0
    6.5150   -8.8525    0.0000 C   0  0  0  0  0  0  0  0  0  0  0  0
    7.2294   -8.4400    0.0000 C   0  0  0  0  0  0  0  0  0  0  0  0
    8.6584   -8.4400    0.0000 O   0  0  0  0  0  0  0  0  0  0  0  0
   10.0873   -5.9650    0.0000 C   0  0  0  0  0  0  0  0  0  0  0  0
   10.0873   -5.1400    0.0000 C   0  0  0  0  0  0  0  0  0  0  0  0
   10.8018   -4.7275    0.0000 C   0  0  0  0  0  0  0  0  0  0  0  0
   11.5163   -5.1400    0.0000 C   0  0  0  0  0  0  0  0  0  0  0  0
   11.5163   -5.9650    0.0000 C   0  0  0  0  0  0  0  0  0  0  0  0
   10.8018   -6.3775    0.0000 C   0  0  0  0  0  0  0  0  0  0  0  0
   12.2307   -4.7275    0.0000 O   0  0  0  0  0  0  0  0  0  0  0  0
   12.2307   -3.9025    0.0000 C   0  0  0  0  0  0  0  0  0  0  0  0
   10.0873   -7.6150    0.0000 O   0  0  0  0  0  0  0  0  0  0  0  0
  1  2  2  0
  2  3  1  0
  3  4  1  0
  4  5  2  0
  5  6  1  0
  6  7  2  0
  7  8  1  0
  8  9  2  0
  4  9  1  0
  9 10  1  0
  1 10  1  0
 11 12  2  0
 12 13  1  0
 13 14  2  0
  5 14  1  0
  6 11  1  0
  3 15  2  0
 16 17  2  0
 17 18  1  0
 18 19  2  0
 19 20  1  0
 20 21  2  0
 16 21  1  0
 22 23  1  0
 19 22  1  0
  1 16  1  0
  2 24  1  0
M  END
>  <Classification>  (460) 
1

>  <pchembl>  (460) 
5.21

>  <InChI_steorem>  (460) 
InChI=1S/C20H14O4/c1-23-14-9-6-13(7-10-14)20-19(22)18(21)17-15-5-3-2-4-12(15)8-11-16(17)24-20/h2-11,22H,1H3

>  <source>  (460) 
ChEMBL25

>  <source_id>  (460) 
25

>  <optional_reference>  (460) 
10.1016/j.ejmech.2013.06.035

>  <optional_origin>  (460) 
None

>  <target>  (460) 
BCRP

$$$$

     RDKit          2D

 25 28  0  0  0  0  0  0  0  0999 V2000
    5.5280   -6.7821    0.0000 C   0  0  0  0  0  0  0  0  0  0  0  0
    5.5280   -7.6071    0.0000 C   0  0  0  0  0  0  0  0  0  0  0  0
    4.8135   -8.0196    0.0000 C   0  0  0  0  0  0  0  0  0  0  0  0
    4.0991   -7.6071    0.0000 C   0  0  0  0  0  0  0  0  0  0  0  0
    3.3846   -8.0196    0.0000 C   0  0  0  0  0  0  0  0  0  0  0  0
    2.6701   -7.6071    0.0000 C   0  0  0  0  0  0  0  0  0  0  0  0
    2.6701   -6.7821    0.0000 C   0  0  0  0  0  0  0  0  0  0  0  0
    3.3846   -6.3696    0.0000 C   0  0  0  0  0  0  0  0  0  0  0  0
    4.0991   -6.7821    0.0000 C   0  0  0  0  0  0  0  0  0  0  0  0
    4.8135   -6.3696    0.0000 O   0  0  0  0  0  0  0  0  0  0  0  0
    3.3846   -5.5446    0.0000 C   0  0  0  0  0  0  0  0  0  0  0  0
    2.6701   -5.1321    0.0000 C   0  0  0  0  0  0  0  0  0  0  0  0
    1.9556   -5.5446    0.0000 C   0  0  0  0  0  0  0  0  0  0  0  0
    1.9556   -6.3696    0.0000 C   0  0  0  0  0  0  0  0  0  0  0  0
    4.8135   -8.8446    0.0000 O   0  0  0  0  0  0  0  0  0  0  0  0
    6.2425   -6.3696    0.0000 C   0  0  0  0  0  0  0  0  0  0  0  0
    6.2425   -5.5446    0.0000 C   0  0  0  0  0  0  0  0  0  0  0  0
    6.9569   -5.1321    0.0000 C   0  0  0  0  0  0  0  0  0  0  0  0
    7.6714   -5.5446    0.0000 C   0  0  0  0  0  0  0  0  0  0  0  0
    7.6714   -6.3696    0.0000 C   0  0  0  0  0  0  0  0  0  0  0  0
    6.9569   -6.7821    0.0000 C   0  0  0  0  0  0  0  0  0  0  0  0
    8.3859   -5.1321    0.0000 O   0  0  0  0  0  0  0  0  0  0  0  0
    9.1003   -5.5446    0.0000 C   0  0  0  0  0  0  0  0  0  0  0  0
    6.9569   -4.3071    0.0000 O   0  0  0  0  0  0  0  0  0  0  0  0
    7.6714   -3.8946    0.0000 C   0  0  0  0  0  0  0  0  0  0  0  0
  1  2  2  0
  2  3  1  0
  3  4  1  0
  4  5  2  0
  5  6  1  0
  6  7  2  0
  7  8  1  0
  8  9  2  0
  4  9  1  0
  9 10  1  0
  1 10  1  0
 11 12  2  0
 12 13  1  0
 13 14  2  0
  7 14  1  0
  8 11  1  0
  3 15  2  0
 16 17  2  0
 17 18  1  0
 18 19  2  0
 19 20  1  0
 20 21  2  0
 16 21  1  0
 22 23  1  0
 19 22  1  0
 24 25  1  0
 18 24  1  0
  1 16  1  0
M  END
>  <Classification>  (461) 
1

>  <pchembl>  (461) 
5.95

>  <InChI_steorem>  (461) 
InChI=1S/C21H16O4/c1-23-18-10-8-14(11-20(18)24-2)19-12-17(22)16-9-7-13-5-3-4-6-15(13)21(16)25-19/h3-12H,1-2H3

>  <source>  (461) 
ChEMBL25

>  <source_id>  (461) 
25

>  <optional_reference>  (461) 
10.1016/j.ejmech.2013.06.035

>  <optional_origin>  (461) 
None

>  <target>  (461) 
BCRP

$$$$

     RDKit          2D

 25 28  0  0  0  0  0  0  0  0999 V2000
    8.2892   -7.5481    0.0000 C   0  0  0  0  0  0  0  0  0  0  0  0
    8.2892   -8.3731    0.0000 C   0  0  0  0  0  0  0  0  0  0  0  0
    7.5748   -8.7856    0.0000 C   0  0  0  0  0  0  0  0  0  0  0  0
    6.8603   -8.3731    0.0000 C   0  0  0  0  0  0  0  0  0  0  0  0
    6.1458   -8.7856    0.0000 C   0  0  0  0  0  0  0  0  0  0  0  0
    5.4314   -8.3731    0.0000 C   0  0  0  0  0  0  0  0  0  0  0  0
    5.4314   -7.5481    0.0000 C   0  0  0  0  0  0  0  0  0  0  0  0
    6.1458   -7.1356    0.0000 C   0  0  0  0  0  0  0  0  0  0  0  0
    6.8603   -7.5481    0.0000 C   0  0  0  0  0  0  0  0  0  0  0  0
    7.5748   -7.1356    0.0000 O   0  0  0  0  0  0  0  0  0  0  0  0
    6.1458   -6.3106    0.0000 C   0  0  0  0  0  0  0  0  0  0  0  0
    5.4314   -5.8981    0.0000 C   0  0  0  0  0  0  0  0  0  0  0  0
    4.7169   -6.3106    0.0000 C   0  0  0  0  0  0  0  0  0  0  0  0
    4.7169   -7.1356    0.0000 C   0  0  0  0  0  0  0  0  0  0  0  0
    7.5748   -9.6106    0.0000 O   0  0  0  0  0  0  0  0  0  0  0  0
    9.0037   -7.1356    0.0000 C   0  0  0  0  0  0  0  0  0  0  0  0
    9.0037   -6.3106    0.0000 C   0  0  0  0  0  0  0  0  0  0  0  0
    9.7182   -5.8981    0.0000 C   0  0  0  0  0  0  0  0  0  0  0  0
   10.4327   -6.3106    0.0000 C   0  0  0  0  0  0  0  0  0  0  0  0
   10.4327   -7.1356    0.0000 C   0  0  0  0  0  0  0  0  0  0  0  0
    9.7182   -7.5481    0.0000 C   0  0  0  0  0  0  0  0  0  0  0  0
   11.1471   -5.8981    0.0000 O   0  0  0  0  0  0  0  0  0  0  0  0
   11.8616   -6.3106    0.0000 C   0  0  0  0  0  0  0  0  0  0  0  0
    9.0037   -8.7856    0.0000 O   0  0  0  0  0  0  0  0  0  0  0  0
    9.0037   -9.6106    0.0000 C   0  0  0  0  0  0  0  0  0  0  0  0
  1  2  2  0
  2  3  1  0
  3  4  1  0
  4  5  2  0
  5  6  1  0
  6  7  2  0
  7  8  1  0
  8  9  2  0
  4  9  1  0
  9 10  1  0
  1 10  1  0
 11 12  2  0
 12 13  1  0
 13 14  2  0
  7 14  1  0
  8 11  1  0
  3 15  2  0
 16 17  2  0
 17 18  1  0
 18 19  2  0
 19 20  1  0
 20 21  2  0
 16 21  1  0
 22 23  1  0
 19 22  1  0
  1 16  1  0
 24 25  1  0
  2 24  1  0
M  END
>  <Classification>  (462) 
1

>  <pchembl>  (462) 
5.51

>  <InChI_steorem>  (462) 
InChI=1S/C21H16O4/c1-23-15-10-7-14(8-11-15)19-21(24-2)18(22)17-12-9-13-5-3-4-6-16(13)20(17)25-19/h3-12H,1-2H3

>  <source>  (462) 
ChEMBL25

>  <source_id>  (462) 
25

>  <optional_reference>  (462) 
10.1016/j.ejmech.2013.06.035

>  <optional_origin>  (462) 
None

>  <target>  (462) 
BCRP

$$$$

     RDKit          2D

 25 28  0  0  0  0  0  0  0  0999 V2000
    8.3103   -7.7600    0.0000 C   0  0  0  0  0  0  0  0  0  0  0  0
    8.3103   -8.5850    0.0000 C   0  0  0  0  0  0  0  0  0  0  0  0
    7.5958   -8.9975    0.0000 C   0  0  0  0  0  0  0  0  0  0  0  0
    6.8813   -8.5850    0.0000 C   0  0  0  0  0  0  0  0  0  0  0  0
    6.1668   -8.9975    0.0000 C   0  0  0  0  0  0  0  0  0  0  0  0
    5.4524   -8.5850    0.0000 C   0  0  0  0  0  0  0  0  0  0  0  0
    5.4524   -7.7600    0.0000 C   0  0  0  0  0  0  0  0  0  0  0  0
    6.1668   -7.3475    0.0000 C   0  0  0  0  0  0  0  0  0  0  0  0
    6.8813   -7.7600    0.0000 C   0  0  0  0  0  0  0  0  0  0  0  0
    7.5958   -7.3475    0.0000 O   0  0  0  0  0  0  0  0  0  0  0  0
    6.1668   -6.5225    0.0000 C   0  0  0  0  0  0  0  0  0  0  0  0
    5.4524   -6.1100    0.0000 C   0  0  0  0  0  0  0  0  0  0  0  0
    4.7379   -6.5225    0.0000 C   0  0  0  0  0  0  0  0  0  0  0  0
    4.7379   -7.3475    0.0000 C   0  0  0  0  0  0  0  0  0  0  0  0
    7.5958   -9.8225    0.0000 O   0  0  0  0  0  0  0  0  0  0  0  0
    9.0247   -8.9975    0.0000 O   0  0  0  0  0  0  0  0  0  0  0  0
    9.0247   -7.3475    0.0000 C   0  0  0  0  0  0  0  0  0  0  0  0
    9.0247   -6.5225    0.0000 C   0  0  0  0  0  0  0  0  0  0  0  0
    9.7392   -6.1100    0.0000 C   0  0  0  0  0  0  0  0  0  0  0  0
   10.4537   -6.5225    0.0000 C   0  0  0  0  0  0  0  0  0  0  0  0
   10.4537   -7.3475    0.0000 C   0  0  0  0  0  0  0  0  0  0  0  0
    9.7392   -7.7600    0.0000 C   0  0  0  0  0  0  0  0  0  0  0  0
    9.7392   -5.2850    0.0000 O   0  0  0  0  0  0  0  0  0  0  0  0
   10.4537   -4.8725    0.0000 C   0  0  0  0  0  0  0  0  0  0  0  0
   11.1681   -6.1100    0.0000 F   0  0  0  0  0  0  0  0  0  0  0  0
  1  2  2  0
  2  3  1  0
  3  4  1  0
  4  5  2  0
  5  6  1  0
  6  7  2  0
  7  8  1  0
  8  9  2  0
  4  9  1  0
  9 10  1  0
  1 10  1  0
 11 12  2  0
 12 13  1  0
 13 14  2  0
  7 14  1  0
  8 11  1  0
  3 15  2  0
  2 16  1  0
 17 18  2  0
 18 19  1  0
 19 20  2  0
 20 21  1  0
 21 22  2  0
 17 22  1  0
 23 24  1  0
 19 23  1  0
 20 25  1  0
  1 17  1  0
M  END
>  <Classification>  (463) 
0

>  <pchembl>  (463) 
4.75

>  <InChI_steorem>  (463) 
InChI=1S/C20H13FO4/c1-24-16-10-12(7-9-15(16)21)19-18(23)17(22)14-8-6-11-4-2-3-5-13(11)20(14)25-19/h2-10,23H,1H3

>  <source>  (463) 
ChEMBL25

>  <source_id>  (463) 
25

>  <optional_reference>  (463) 
10.1016/j.ejmech.2013.06.035

>  <optional_origin>  (463) 
None

>  <target>  (463) 
BCRP

$$$$

     RDKit          2D

 25 28  0  0  0  0  0  0  0  0999 V2000
    9.3178   -6.8348    0.0000 C   0  0  0  0  0  0  0  0  0  0  0  0
    9.3178   -7.6598    0.0000 C   0  0  0  0  0  0  0  0  0  0  0  0
    8.6034   -8.0723    0.0000 C   0  0  0  0  0  0  0  0  0  0  0  0
    7.8889   -7.6598    0.0000 C   0  0  0  0  0  0  0  0  0  0  0  0
    7.1744   -8.0723    0.0000 C   0  0  0  0  0  0  0  0  0  0  0  0
    6.4600   -7.6598    0.0000 C   0  0  0  0  0  0  0  0  0  0  0  0
    6.4600   -6.8348    0.0000 C   0  0  0  0  0  0  0  0  0  0  0  0
    7.1744   -6.4223    0.0000 C   0  0  0  0  0  0  0  0  0  0  0  0
    7.8889   -6.8348    0.0000 C   0  0  0  0  0  0  0  0  0  0  0  0
    8.6034   -6.4223    0.0000 O   0  0  0  0  0  0  0  0  0  0  0  0
    5.7455   -8.0723    0.0000 C   0  0  0  0  0  0  0  0  0  0  0  0
    5.7455   -8.8973    0.0000 C   0  0  0  0  0  0  0  0  0  0  0  0
    6.4600   -9.3098    0.0000 C   0  0  0  0  0  0  0  0  0  0  0  0
    7.1744   -8.8973    0.0000 C   0  0  0  0  0  0  0  0  0  0  0  0
    8.6034   -8.8973    0.0000 O   0  0  0  0  0  0  0  0  0  0  0  0
   10.0323   -6.4223    0.0000 C   0  0  0  0  0  0  0  0  0  0  0  0
   10.0323   -5.5973    0.0000 C   0  0  0  0  0  0  0  0  0  0  0  0
   10.7468   -5.1848    0.0000 C   0  0  0  0  0  0  0  0  0  0  0  0
   11.4613   -5.5973    0.0000 C   0  0  0  0  0  0  0  0  0  0  0  0
   11.4613   -6.4223    0.0000 C   0  0  0  0  0  0  0  0  0  0  0  0
   10.7468   -6.8348    0.0000 C   0  0  0  0  0  0  0  0  0  0  0  0
   12.1757   -5.1848    0.0000 O   0  0  0  0  0  0  0  0  0  0  0  0
   12.1757   -4.3598    0.0000 C   0  0  0  0  0  0  0  0  0  0  0  0
   10.0323   -8.0723    0.0000 O   0  0  0  0  0  0  0  0  0  0  0  0
   10.0323   -8.8973    0.0000 C   0  0  0  0  0  0  0  0  0  0  0  0
  1  2  2  0
  2  3  1  0
  3  4  1  0
  4  5  2  0
  5  6  1  0
  6  7  2  0
  7  8  1  0
  8  9  2  0
  4  9  1  0
  9 10  1  0
  1 10  1  0
 11 12  2  0
 12 13  1  0
 13 14  2  0
  5 14  1  0
  6 11  1  0
  3 15  2  0
 16 17  2  0
 17 18  1  0
 18 19  2  0
 19 20  1  0
 20 21  2  0
 16 21  1  0
 22 23  1  0
 19 22  1  0
  1 16  1  0
 24 25  1  0
  2 24  1  0
M  END
>  <Classification>  (464) 
1

>  <pchembl>  (464) 
5.1

>  <InChI_steorem>  (464) 
InChI=1S/C21H16O4/c1-23-15-10-7-14(8-11-15)20-21(24-2)19(22)18-16-6-4-3-5-13(16)9-12-17(18)25-20/h3-12H,1-2H3

>  <source>  (464) 
ChEMBL25

>  <source_id>  (464) 
25

>  <optional_reference>  (464) 
10.1016/j.ejmech.2013.06.035

>  <optional_origin>  (464) 
None

>  <target>  (464) 
BCRP

$$$$

     RDKit          2D

 25 28  0  0  0  0  0  0  0  0999 V2000
    9.8223   -6.6226    0.0000 C   0  0  0  0  0  0  0  0  0  0  0  0
    9.8223   -7.4476    0.0000 C   0  0  0  0  0  0  0  0  0  0  0  0
    9.1078   -7.8601    0.0000 C   0  0  0  0  0  0  0  0  0  0  0  0
    8.3933   -7.4476    0.0000 C   0  0  0  0  0  0  0  0  0  0  0  0
    7.6789   -7.8601    0.0000 C   0  0  0  0  0  0  0  0  0  0  0  0
    6.9644   -7.4476    0.0000 C   0  0  0  0  0  0  0  0  0  0  0  0
    6.9644   -6.6226    0.0000 C   0  0  0  0  0  0  0  0  0  0  0  0
    7.6789   -6.2101    0.0000 C   0  0  0  0  0  0  0  0  0  0  0  0
    8.3933   -6.6226    0.0000 C   0  0  0  0  0  0  0  0  0  0  0  0
    9.1078   -6.2101    0.0000 O   0  0  0  0  0  0  0  0  0  0  0  0
    6.2499   -7.8601    0.0000 C   0  0  0  0  0  0  0  0  0  0  0  0
    6.2499   -8.6851    0.0000 C   0  0  0  0  0  0  0  0  0  0  0  0
    6.9644   -9.0976    0.0000 C   0  0  0  0  0  0  0  0  0  0  0  0
    7.6789   -8.6851    0.0000 C   0  0  0  0  0  0  0  0  0  0  0  0
    9.1078   -8.6851    0.0000 O   0  0  0  0  0  0  0  0  0  0  0  0
   10.5367   -6.2101    0.0000 C   0  0  0  0  0  0  0  0  0  0  0  0
   10.5367   -5.3851    0.0000 C   0  0  0  0  0  0  0  0  0  0  0  0
   11.2512   -4.9726    0.0000 C   0  0  0  0  0  0  0  0  0  0  0  0
   11.9657   -5.3851    0.0000 C   0  0  0  0  0  0  0  0  0  0  0  0
   11.9657   -6.2101    0.0000 C   0  0  0  0  0  0  0  0  0  0  0  0
   11.2512   -6.6226    0.0000 C   0  0  0  0  0  0  0  0  0  0  0  0
   12.6802   -4.9726    0.0000 O   0  0  0  0  0  0  0  0  0  0  0  0
   13.3946   -5.3851    0.0000 C   0  0  0  0  0  0  0  0  0  0  0  0
   11.2512   -4.1476    0.0000 O   0  0  0  0  0  0  0  0  0  0  0  0
   11.9657   -3.7351    0.0000 C   0  0  0  0  0  0  0  0  0  0  0  0
  1  2  2  0
  2  3  1  0
  3  4  1  0
  4  5  2  0
  5  6  1  0
  6  7  2  0
  7  8  1  0
  8  9  2  0
  4  9  1  0
  9 10  1  0
  1 10  1  0
 11 12  2  0
 12 13  1  0
 13 14  2  0
  5 14  1  0
  6 11  1  0
  3 15  2  0
 16 17  2  0
 17 18  1  0
 18 19  2  0
 19 20  1  0
 20 21  2  0
 16 21  1  0
 22 23  1  0
 19 22  1  0
 24 25  1  0
 18 24  1  0
  1 16  1  0
M  END
>  <Classification>  (465) 
1

>  <pchembl>  (465) 
6.34

>  <InChI_steorem>  (465) 
InChI=1S/C21H16O4/c1-23-17-9-8-14(11-20(17)24-2)19-12-16(22)21-15-6-4-3-5-13(15)7-10-18(21)25-19/h3-12H,1-2H3

>  <source>  (465) 
ChEMBL25

>  <source_id>  (465) 
25

>  <optional_reference>  (465) 
10.1016/j.ejmech.2013.06.035

>  <optional_origin>  (465) 
None

>  <target>  (465) 
BCRP

$$$$

     RDKit          2D

 26 29  0  0  0  0  0  0  0  0999 V2000
    3.6336   -4.5662    0.0000 C   0  0  0  0  0  0  0  0  0  0  0  0
    3.6336   -5.3912    0.0000 C   0  0  0  0  0  0  0  0  0  0  0  0
    2.9191   -5.8037    0.0000 C   0  0  0  0  0  0  0  0  0  0  0  0
    2.2047   -5.3912    0.0000 C   0  0  0  0  0  0  0  0  0  0  0  0
    1.4902   -5.8037    0.0000 C   0  0  0  0  0  0  0  0  0  0  0  0
    0.7757   -5.3912    0.0000 C   0  0  0  0  0  0  0  0  0  0  0  0
    0.7757   -4.5662    0.0000 C   0  0  0  0  0  0  0  0  0  0  0  0
    1.4902   -4.1537    0.0000 C   0  0  0  0  0  0  0  0  0  0  0  0
    2.2047   -4.5662    0.0000 C   0  0  0  0  0  0  0  0  0  0  0  0
    2.9191   -4.1537    0.0000 O   0  0  0  0  0  0  0  0  0  0  0  0
    1.4902   -3.3287    0.0000 C   0  0  0  0  0  0  0  0  0  0  0  0
    0.7757   -2.9162    0.0000 C   0  0  0  0  0  0  0  0  0  0  0  0
    0.0613   -3.3287    0.0000 C   0  0  0  0  0  0  0  0  0  0  0  0
    0.0613   -4.1537    0.0000 C   0  0  0  0  0  0  0  0  0  0  0  0
    2.9191   -6.6287    0.0000 O   0  0  0  0  0  0  0  0  0  0  0  0
    4.3481   -5.8037    0.0000 O   0  0  0  0  0  0  0  0  0  0  0  0
    4.3481   -4.1537    0.0000 C   0  0  0  0  0  0  0  0  0  0  0  0
    4.3481   -3.3287    0.0000 C   0  0  0  0  0  0  0  0  0  0  0  0
    5.0626   -2.9162    0.0000 C   0  0  0  0  0  0  0  0  0  0  0  0
    5.7770   -3.3287    0.0000 C   0  0  0  0  0  0  0  0  0  0  0  0
    5.7770   -4.1537    0.0000 C   0  0  0  0  0  0  0  0  0  0  0  0
    5.0626   -4.5662    0.0000 C   0  0  0  0  0  0  0  0  0  0  0  0
    6.4915   -2.9162    0.0000 O   0  0  0  0  0  0  0  0  0  0  0  0
    7.2060   -3.3287    0.0000 C   0  0  0  0  0  0  0  0  0  0  0  0
    5.0626   -2.0912    0.0000 O   0  0  0  0  0  0  0  0  0  0  0  0
    5.7770   -1.6787    0.0000 C   0  0  0  0  0  0  0  0  0  0  0  0
  1  2  2  0
  2  3  1  0
  3  4  1  0
  4  5  2  0
  5  6  1  0
  6  7  2  0
  7  8  1  0
  8  9  2  0
  4  9  1  0
  9 10  1  0
  1 10  1  0
 11 12  2  0
 12 13  1  0
 13 14  2  0
  7 14  1  0
  8 11  1  0
  3 15  2  0
  2 16  1  0
 17 18  2  0
 18 19  1  0
 19 20  2  0
 20 21  1  0
 21 22  2  0
 17 22  1  0
 23 24  1  0
 20 23  1  0
 25 26  1  0
 19 25  1  0
  1 17  1  0
M  END
>  <Classification>  (466) 
1

>  <pchembl>  (466) 
5.82

>  <InChI_steorem>  (466) 
InChI=1S/C21H16O5/c1-24-16-10-8-13(11-17(16)25-2)20-19(23)18(22)15-9-7-12-5-3-4-6-14(12)21(15)26-20/h3-11,23H,1-2H3

>  <source>  (466) 
ChEMBL25

>  <source_id>  (466) 
25

>  <optional_reference>  (466) 
10.1016/j.ejmech.2013.06.035

>  <optional_origin>  (466) 
None

>  <target>  (466) 
BCRP

$$$$

     RDKit          2D

 26 29  0  0  0  0  0  0  0  0999 V2000
    7.2113   -6.2272    0.0000 C   0  0  0  0  0  0  0  0  0  0  0  0
    7.2113   -7.0522    0.0000 C   0  0  0  0  0  0  0  0  0  0  0  0
    6.4968   -7.4647    0.0000 C   0  0  0  0  0  0  0  0  0  0  0  0
    5.7823   -7.0522    0.0000 C   0  0  0  0  0  0  0  0  0  0  0  0
    5.0678   -7.4647    0.0000 C   0  0  0  0  0  0  0  0  0  0  0  0
    4.3534   -7.0522    0.0000 C   0  0  0  0  0  0  0  0  0  0  0  0
    4.3534   -6.2272    0.0000 C   0  0  0  0  0  0  0  0  0  0  0  0
    5.0678   -5.8147    0.0000 C   0  0  0  0  0  0  0  0  0  0  0  0
    5.7823   -6.2272    0.0000 C   0  0  0  0  0  0  0  0  0  0  0  0
    6.4968   -5.8147    0.0000 O   0  0  0  0  0  0  0  0  0  0  0  0
    3.6389   -7.4647    0.0000 C   0  0  0  0  0  0  0  0  0  0  0  0
    3.6389   -8.2897    0.0000 C   0  0  0  0  0  0  0  0  0  0  0  0
    4.3534   -8.7022    0.0000 C   0  0  0  0  0  0  0  0  0  0  0  0
    5.0678   -8.2897    0.0000 C   0  0  0  0  0  0  0  0  0  0  0  0
    6.4968   -8.2897    0.0000 O   0  0  0  0  0  0  0  0  0  0  0  0
    7.9257   -7.4647    0.0000 O   0  0  0  0  0  0  0  0  0  0  0  0
    7.9257   -5.8147    0.0000 C   0  0  0  0  0  0  0  0  0  0  0  0
    7.9257   -4.9897    0.0000 C   0  0  0  0  0  0  0  0  0  0  0  0
    8.6402   -4.5772    0.0000 C   0  0  0  0  0  0  0  0  0  0  0  0
    9.3547   -4.9897    0.0000 C   0  0  0  0  0  0  0  0  0  0  0  0
    9.3547   -5.8147    0.0000 C   0  0  0  0  0  0  0  0  0  0  0  0
    8.6402   -6.2272    0.0000 C   0  0  0  0  0  0  0  0  0  0  0  0
   10.0691   -4.5772    0.0000 O   0  0  0  0  0  0  0  0  0  0  0  0
   10.7836   -4.9897    0.0000 C   0  0  0  0  0  0  0  0  0  0  0  0
    8.6402   -3.7522    0.0000 O   0  0  0  0  0  0  0  0  0  0  0  0
    9.3547   -3.3397    0.0000 C   0  0  0  0  0  0  0  0  0  0  0  0
  1  2  2  0
  2  3  1  0
  3  4  1  0
  4  5  2  0
  5  6  1  0
  6  7  2  0
  7  8  1  0
  8  9  2  0
  4  9  1  0
  9 10  1  0
  1 10  1  0
 11 12  2  0
 12 13  1  0
 13 14  2  0
  5 14  1  0
  6 11  1  0
  3 15  2  0
  2 16  1  0
 17 18  2  0
 18 19  1  0
 19 20  2  0
 20 21  1  0
 21 22  2  0
 17 22  1  0
 23 24  1  0
 20 23  1  0
 25 26  1  0
 19 25  1  0
  1 17  1  0
M  END
>  <Classification>  (467) 
1

>  <pchembl>  (467) 
5.32

>  <InChI_steorem>  (467) 
InChI=1S/C21H16O5/c1-24-15-9-8-13(11-17(15)25-2)21-20(23)19(22)18-14-6-4-3-5-12(14)7-10-16(18)26-21/h3-11,23H,1-2H3

>  <source>  (467) 
ChEMBL25

>  <source_id>  (467) 
25

>  <optional_reference>  (467) 
10.1016/j.ejmech.2013.06.035

>  <optional_origin>  (467) 
None

>  <target>  (467) 
BCRP

$$$$

     RDKit          2D

 26 29  0  0  0  0  0  0  0  0999 V2000
    8.2429   -6.0243    0.0000 C   0  0  0  0  0  0  0  0  0  0  0  0
    8.2429   -6.8493    0.0000 C   0  0  0  0  0  0  0  0  0  0  0  0
    7.5284   -7.2618    0.0000 C   0  0  0  0  0  0  0  0  0  0  0  0
    6.8139   -6.8493    0.0000 C   0  0  0  0  0  0  0  0  0  0  0  0
    6.0995   -7.2618    0.0000 C   0  0  0  0  0  0  0  0  0  0  0  0
    5.3850   -6.8493    0.0000 C   0  0  0  0  0  0  0  0  0  0  0  0
    5.3850   -6.0243    0.0000 C   0  0  0  0  0  0  0  0  0  0  0  0
    6.0995   -5.6118    0.0000 C   0  0  0  0  0  0  0  0  0  0  0  0
    6.8139   -6.0243    0.0000 C   0  0  0  0  0  0  0  0  0  0  0  0
    7.5284   -5.6118    0.0000 O   0  0  0  0  0  0  0  0  0  0  0  0
    6.0995   -4.7868    0.0000 C   0  0  0  0  0  0  0  0  0  0  0  0
    5.3850   -4.3743    0.0000 C   0  0  0  0  0  0  0  0  0  0  0  0
    4.6705   -4.7868    0.0000 C   0  0  0  0  0  0  0  0  0  0  0  0
    4.6705   -5.6118    0.0000 C   0  0  0  0  0  0  0  0  0  0  0  0
    7.5284   -8.0868    0.0000 O   0  0  0  0  0  0  0  0  0  0  0  0
    8.9574   -7.2618    0.0000 O   0  0  0  0  0  0  0  0  0  0  0  0
    8.9574   -8.0868    0.0000 C   0  0  0  0  0  0  0  0  0  0  0  0
    8.9574   -5.6118    0.0000 C   0  0  0  0  0  0  0  0  0  0  0  0
    8.9574   -4.7868    0.0000 C   0  0  0  0  0  0  0  0  0  0  0  0
    9.6718   -4.3743    0.0000 C   0  0  0  0  0  0  0  0  0  0  0  0
   10.3863   -4.7868    0.0000 C   0  0  0  0  0  0  0  0  0  0  0  0
   10.3863   -5.6118    0.0000 C   0  0  0  0  0  0  0  0  0  0  0  0
    9.6718   -6.0243    0.0000 C   0  0  0  0  0  0  0  0  0  0  0  0
    9.6718   -3.5493    0.0000 O   0  0  0  0  0  0  0  0  0  0  0  0
   10.3863   -3.1368    0.0000 C   0  0  0  0  0  0  0  0  0  0  0  0
   11.1008   -4.3743    0.0000 F   0  0  0  0  0  0  0  0  0  0  0  0
  1  2  2  0
  2  3  1  0
  3  4  1  0
  4  5  2  0
  5  6  1  0
  6  7  2  0
  7  8  1  0
  8  9  2  0
  4  9  1  0
  9 10  1  0
  1 10  1  0
 11 12  2  0
 12 13  1  0
 13 14  2  0
  7 14  1  0
  8 11  1  0
  3 15  2  0
 16 17  1  0
  2 16  1  0
 18 19  2  0
 19 20  1  0
 20 21  2  0
 21 22  1  0
 22 23  2  0
 18 23  1  0
 24 25  1  0
 20 24  1  0
 21 26  1  0
  1 18  1  0
M  END
>  <Classification>  (468) 
1

>  <pchembl>  (468) 
5.4

>  <InChI_steorem>  (468) 
InChI=1S/C21H15FO4/c1-24-17-11-13(8-10-16(17)22)19-21(25-2)18(23)15-9-7-12-5-3-4-6-14(12)20(15)26-19/h3-11H,1-2H3

>  <source>  (468) 
ChEMBL25

>  <source_id>  (468) 
25

>  <optional_reference>  (468) 
10.1016/j.ejmech.2013.06.035

>  <optional_origin>  (468) 
None

>  <target>  (468) 
BCRP

$$$$

     RDKit          2D

 27 30  0  0  0  0  0  0  0  0999 V2000
    7.6323   -6.6876    0.0000 C   0  0  0  0  0  0  0  0  0  0  0  0
    7.6323   -7.5126    0.0000 C   0  0  0  0  0  0  0  0  0  0  0  0
    6.9178   -7.9251    0.0000 C   0  0  0  0  0  0  0  0  0  0  0  0
    6.2033   -7.5126    0.0000 C   0  0  0  0  0  0  0  0  0  0  0  0
    5.4888   -7.9251    0.0000 C   0  0  0  0  0  0  0  0  0  0  0  0
    4.7744   -7.5126    0.0000 C   0  0  0  0  0  0  0  0  0  0  0  0
    4.7744   -6.6876    0.0000 C   0  0  0  0  0  0  0  0  0  0  0  0
    5.4888   -6.2751    0.0000 C   0  0  0  0  0  0  0  0  0  0  0  0
    6.2033   -6.6876    0.0000 C   0  0  0  0  0  0  0  0  0  0  0  0
    6.9178   -6.2751    0.0000 O   0  0  0  0  0  0  0  0  0  0  0  0
    4.0599   -7.9251    0.0000 C   0  0  0  0  0  0  0  0  0  0  0  0
    4.0599   -8.7501    0.0000 C   0  0  0  0  0  0  0  0  0  0  0  0
    4.7744   -9.1626    0.0000 C   0  0  0  0  0  0  0  0  0  0  0  0
    5.4888   -8.7501    0.0000 C   0  0  0  0  0  0  0  0  0  0  0  0
    6.9178   -8.7501    0.0000 O   0  0  0  0  0  0  0  0  0  0  0  0
    8.3467   -7.9251    0.0000 O   0  0  0  0  0  0  0  0  0  0  0  0
    8.3467   -8.7501    0.0000 C   0  0  0  0  0  0  0  0  0  0  0  0
    8.3467   -6.2751    0.0000 C   0  0  0  0  0  0  0  0  0  0  0  0
    8.3467   -5.4501    0.0000 C   0  0  0  0  0  0  0  0  0  0  0  0
    9.0612   -5.0376    0.0000 C   0  0  0  0  0  0  0  0  0  0  0  0
    9.7757   -5.4501    0.0000 C   0  0  0  0  0  0  0  0  0  0  0  0
    9.7757   -6.2751    0.0000 C   0  0  0  0  0  0  0  0  0  0  0  0
    9.0612   -6.6876    0.0000 C   0  0  0  0  0  0  0  0  0  0  0  0
   10.4901   -5.0376    0.0000 O   0  0  0  0  0  0  0  0  0  0  0  0
   11.2046   -5.4501    0.0000 C   0  0  0  0  0  0  0  0  0  0  0  0
    9.0612   -4.2126    0.0000 O   0  0  0  0  0  0  0  0  0  0  0  0
    9.7757   -3.8001    0.0000 C   0  0  0  0  0  0  0  0  0  0  0  0
  1  2  2  0
  2  3  1  0
  3  4  1  0
  4  5  2  0
  5  6  1  0
  6  7  2  0
  7  8  1  0
  8  9  2  0
  4  9  1  0
  9 10  1  0
  1 10  1  0
 11 12  2  0
 12 13  1  0
 13 14  2  0
  5 14  1  0
  6 11  1  0
  3 15  2  0
 16 17  1  0
  2 16  1  0
 18 19  2  0
 19 20  1  0
 20 21  2  0
 21 22  1  0
 22 23  2  0
 18 23  1  0
 24 25  1  0
 21 24  1  0
 26 27  1  0
 20 26  1  0
  1 18  1  0
M  END
>  <Classification>  (469) 
1

>  <pchembl>  (469) 
5.28

>  <InChI_steorem>  (469) 
InChI=1S/C22H18O5/c1-24-16-10-9-14(12-18(16)25-2)21-22(26-3)20(23)19-15-7-5-4-6-13(15)8-11-17(19)27-21/h4-12H,1-3H3

>  <source>  (469) 
ChEMBL25

>  <source_id>  (469) 
25

>  <optional_reference>  (469) 
10.1016/j.ejmech.2013.06.035

>  <optional_origin>  (469) 
None

>  <target>  (469) 
BCRP

$$$$

     RDKit          2D

 27 30  0  0  0  0  0  0  0  0999 V2000
    7.8493   -7.3100    0.0000 C   0  0  0  0  0  0  0  0  0  0  0  0
    7.8493   -8.1350    0.0000 C   0  0  0  0  0  0  0  0  0  0  0  0
    7.1348   -8.5475    0.0000 C   0  0  0  0  0  0  0  0  0  0  0  0
    6.4204   -8.1350    0.0000 C   0  0  0  0  0  0  0  0  0  0  0  0
    5.7059   -8.5475    0.0000 C   0  0  0  0  0  0  0  0  0  0  0  0
    4.9914   -8.1350    0.0000 C   0  0  0  0  0  0  0  0  0  0  0  0
    4.9914   -7.3100    0.0000 C   0  0  0  0  0  0  0  0  0  0  0  0
    5.7059   -6.8975    0.0000 C   0  0  0  0  0  0  0  0  0  0  0  0
    6.4204   -7.3100    0.0000 C   0  0  0  0  0  0  0  0  0  0  0  0
    7.1348   -6.8975    0.0000 O   0  0  0  0  0  0  0  0  0  0  0  0
    5.7059   -6.0725    0.0000 C   0  0  0  0  0  0  0  0  0  0  0  0
    4.9914   -5.6600    0.0000 C   0  0  0  0  0  0  0  0  0  0  0  0
    4.2769   -6.0725    0.0000 C   0  0  0  0  0  0  0  0  0  0  0  0
    4.2769   -6.8975    0.0000 C   0  0  0  0  0  0  0  0  0  0  0  0
    7.1348   -9.3725    0.0000 O   0  0  0  0  0  0  0  0  0  0  0  0
    8.5638   -8.5475    0.0000 O   0  0  0  0  0  0  0  0  0  0  0  0
    8.5638   -9.3725    0.0000 C   0  0  0  0  0  0  0  0  0  0  0  0
    8.5638   -6.8975    0.0000 C   0  0  0  0  0  0  0  0  0  0  0  0
    8.5638   -6.0725    0.0000 C   0  0  0  0  0  0  0  0  0  0  0  0
    9.2782   -5.6600    0.0000 C   0  0  0  0  0  0  0  0  0  0  0  0
    9.9927   -6.0725    0.0000 C   0  0  0  0  0  0  0  0  0  0  0  0
    9.9927   -6.8975    0.0000 C   0  0  0  0  0  0  0  0  0  0  0  0
    9.2782   -7.3100    0.0000 C   0  0  0  0  0  0  0  0  0  0  0  0
   10.7072   -5.6600    0.0000 O   0  0  0  0  0  0  0  0  0  0  0  0
   11.4217   -6.0725    0.0000 C   0  0  0  0  0  0  0  0  0  0  0  0
    9.2782   -4.8350    0.0000 O   0  0  0  0  0  0  0  0  0  0  0  0
    9.9927   -4.4225    0.0000 C   0  0  0  0  0  0  0  0  0  0  0  0
  1  2  2  0
  2  3  1  0
  3  4  1  0
  4  5  2  0
  5  6  1  0
  6  7  2  0
  7  8  1  0
  8  9  2  0
  4  9  1  0
  9 10  1  0
  1 10  1  0
 11 12  2  0
 12 13  1  0
 13 14  2  0
  7 14  1  0
  8 11  1  0
  3 15  2  0
 16 17  1  0
  2 16  1  0
 18 19  2  0
 19 20  1  0
 20 21  2  0
 21 22  1  0
 22 23  2  0
 18 23  1  0
 24 25  1  0
 21 24  1  0
 26 27  1  0
 20 26  1  0
  1 18  1  0
M  END
>  <Classification>  (470) 
1

>  <pchembl>  (470) 
6.33

>  <InChI_steorem>  (470) 
InChI=1S/C22H18O5/c1-24-17-11-9-14(12-18(17)25-2)20-22(26-3)19(23)16-10-8-13-6-4-5-7-15(13)21(16)27-20/h4-12H,1-3H3

>  <source>  (470) 
ChEMBL25

>  <source_id>  (470) 
25

>  <optional_reference>  (470) 
10.1016/j.ejmech.2013.06.035

>  <optional_origin>  (470) 
None

>  <target>  (470) 
BCRP

$$$$

     RDKit          2D

 22 25  0  1  0  0  0  0  0  0999 V2000
   -2.4915    1.5389    0.0000 C   0  0  0  0  0  0  0  0  0  0  0  0
   -3.7006    0.8244    0.0000 N   0  0  0  0  0  0  0  0  0  0  0  0
   -3.7006   -0.6045    0.0000 C   0  0  0  0  0  0  0  0  0  0  0  0
   -2.4915   -1.3190    0.0000 N   0  0  0  0  0  0  0  0  0  0  0  0
   -1.2274    0.8244    0.0000 C   0  0  0  0  0  0  0  0  0  0  0  0
   -1.2274   -0.6045    0.0000 C   0  0  0  0  0  0  0  0  0  0  0  0
    0.0000   -1.3190    0.0000 C   0  0  0  0  0  0  0  0  0  0  0  0
    1.2274    0.8244    0.0000 N   0  0  0  0  0  0  0  0  0  0  0  0
    1.2274   -0.6045    0.0000 C   0  0  0  0  0  0  0  0  0  0  0  0
    2.4732   -1.3190    0.0000 C   0  0  0  0  0  0  0  0  0  0  0  0
    3.7372   -0.6045    0.0000 C   0  0  0  0  0  0  0  0  0  0  0  0
    3.7372    0.8244    0.0000 C   0  0  0  0  0  0  0  0  0  0  0  0
    2.4732    1.5389    0.0000 C   0  0  0  0  0  0  0  0  0  0  0  0
    0.0000   -2.8205    0.0000 C   0  0  0  0  0  0  0  0  0  0  0  0
    0.0000   -4.0205    0.0000 N   0  0  0  0  0  0  0  0  0  0  0  0
   -2.5059    3.0395    0.0000 N   0  0  0  0  0  0  0  0  0  0  0  0
   -3.8107    3.7796    0.0000 C   0  0  0  0  0  0  0  0  0  0  0  0
   -3.8223    5.2795    0.0000 C   0  0  0  0  0  0  0  0  0  0  0  0
   -2.5291    6.0395    0.0000 N   0  0  0  0  0  0  0  0  0  0  0  0
   -1.2243    5.2996    0.0000 C   0  0  0  0  0  0  0  0  0  0  0  0
   -1.2127    3.7996    0.0000 C   0  0  0  0  0  0  0  0  0  0  0  0
   -2.5384    7.2395    0.0000 C   0  0  0  0  0  0  0  0  0  0  0  0
  5  1  1  0
  1  2  2  0
  2  3  1  0
  3  4  2  0
  4  6  1  0
  5  6  2  0
  6  7  1  0
  7  9  2  0
  8  5  1  0
  8  9  1  0
  8 13  1  0
  9 10  1  0
 10 11  1  0
 11 12  1  0
 12 13  1  0
  7 14  1  0
 14 15  3  0
  1 16  1  0
 16 17  1  0
 16 21  1  0
 17 18  1  0
 18 19  1  0
 19 20  1  0
 20 21  1  0
 19 22  1  0
M  STY  1   1 SUP
M  SLB  1   1   1
M  SDS EXP  1   1
M  SAL   1  2  14  15
M  SBL   1  1  16
M  SMT   1 CN
M  END
>  <Classification>  (471) 
1

>  <pchembl>  (471) 
5.37

>  <InChI_steorem>  (471) 
InChI=1S/C16H20N6/c1-20-6-8-21(9-7-20)16-15-14(18-11-19-16)12(10-17)13-4-2-3-5-22(13)15/h11H,2-9H2,1H3

>  <source>  (471) 
ChEMBL25

>  <source_id>  (471) 
25

>  <optional_reference>  (471) 
10.1021/acs.jmedchem.5b01644

>  <optional_origin>  (471) 
None

>  <target>  (471) 
BCRP

$$$$

     RDKit          2D

 22 25  0  1  0  0  0  0  0  0999 V2000
   -2.4915    1.5389    0.0000 C   0  0  0  0  0  0  0  0  0  0  0  0
   -3.7006    0.8244    0.0000 N   0  0  0  0  0  0  0  0  0  0  0  0
   -3.7006   -0.6045    0.0000 C   0  0  0  0  0  0  0  0  0  0  0  0
   -2.4915   -1.3190    0.0000 N   0  0  0  0  0  0  0  0  0  0  0  0
   -1.2274    0.8244    0.0000 C   0  0  0  0  0  0  0  0  0  0  0  0
   -1.2274   -0.6045    0.0000 C   0  0  0  0  0  0  0  0  0  0  0  0
    0.0000   -1.3190    0.0000 C   0  0  0  0  0  0  0  0  0  0  0  0
    1.2274    0.8244    0.0000 N   0  0  0  0  0  0  0  0  0  0  0  0
    1.2274   -0.6045    0.0000 C   0  0  0  0  0  0  0  0  0  0  0  0
    2.4732   -1.3190    0.0000 C   0  0  0  0  0  0  0  0  0  0  0  0
    3.7372   -0.6045    0.0000 C   0  0  0  0  0  0  0  0  0  0  0  0
    3.7372    0.8244    0.0000 C   0  0  0  0  0  0  0  0  0  0  0  0
    2.4732    1.5389    0.0000 C   0  0  0  0  0  0  0  0  0  0  0  0
    0.0000   -2.8205    0.0000 C   0  0  0  0  0  0  0  0  0  0  0  0
    0.0000   -4.0205    0.0000 N   0  0  0  0  0  0  0  0  0  0  0  0
   -2.5225    3.0401    0.0000 N   0  0  0  0  0  0  0  0  0  0  0  0
   -3.8372    3.7640    0.0000 C   0  0  0  0  0  0  0  0  0  0  0  0
   -3.8705    5.2637    0.0000 C   0  0  0  0  0  0  0  0  0  0  0  0
   -5.1859    5.9847    0.0000 C   0  0  0  0  0  0  0  0  0  0  0  0
   -6.4680    5.2061    0.0000 C   0  0  0  0  0  0  0  0  0  0  0  0
   -6.4347    3.7065    0.0000 C   0  0  0  0  0  0  0  0  0  0  0  0
   -5.1194    2.9855    0.0000 C   0  0  0  0  0  0  0  0  0  0  0  0
  5  1  1  0
  1  2  2  0
  2  3  1  0
  3  4  2  0
  4  6  1  0
  5  6  2  0
  6  7  1  0
  7  9  2  0
  8  5  1  0
  8  9  1  0
  8 13  1  0
  9 10  1  0
 10 11  1  0
 11 12  1  0
 12 13  1  0
  7 14  1  0
 14 15  3  0
  1 16  1  0
 16 17  1  0
 17 18  2  0
 18 19  1  0
 19 20  2  0
 20 21  1  0
 21 22  2  0
 22 17  1  0
M  STY  1   1 SUP
M  SLB  1   1   1
M  SDS EXP  1   1
M  SAL   1  2  14  15
M  SBL   1  1  16
M  SMT   1 CN
M  END
>  <Classification>  (472) 
1

>  <pchembl>  (472) 
5.12

>  <InChI_steorem>  (472) 
InChI=1S/C17H15N5/c18-10-13-14-8-4-5-9-22(14)16-15(13)19-11-20-17(16)21-12-6-2-1-3-7-12/h1-3,6-7,11H,4-5,8-9H2,(H,19,20,21)

>  <source>  (472) 
ChEMBL25

>  <source_id>  (472) 
25

>  <optional_reference>  (472) 
10.1021/acs.jmedchem.5b01644

>  <optional_origin>  (472) 
None

>  <target>  (472) 
BCRP

$$$$

     RDKit          2D

 23 26  0  1  0  0  0  0  0  0999 V2000
   -2.4915    1.5389    0.0000 C   0  0  0  0  0  0  0  0  0  0  0  0
   -3.7006    0.8244    0.0000 N   0  0  0  0  0  0  0  0  0  0  0  0
   -3.7006   -0.6045    0.0000 C   0  0  0  0  0  0  0  0  0  0  0  0
   -2.4915   -1.3190    0.0000 N   0  0  0  0  0  0  0  0  0  0  0  0
   -1.2274    0.8244    0.0000 C   0  0  0  0  0  0  0  0  0  0  0  0
   -1.2274   -0.6045    0.0000 C   0  0  0  0  0  0  0  0  0  0  0  0
    0.0000   -1.3190    0.0000 C   0  0  0  0  0  0  0  0  0  0  0  0
    1.2274    0.8244    0.0000 N   0  0  0  0  0  0  0  0  0  0  0  0
    1.2274   -0.6045    0.0000 C   0  0  0  0  0  0  0  0  0  0  0  0
    2.4732   -1.3190    0.0000 C   0  0  0  0  0  0  0  0  0  0  0  0
    3.7372   -0.6045    0.0000 C   0  0  0  0  0  0  0  0  0  0  0  0
    3.7372    0.8244    0.0000 C   0  0  0  0  0  0  0  0  0  0  0  0
    2.4732    1.5389    0.0000 C   0  0  0  0  0  0  0  0  0  0  0  0
    0.0000   -2.8205    0.0000 C   0  0  0  0  0  0  0  0  0  0  0  0
    0.0000   -4.0205    0.0000 N   0  0  0  0  0  0  0  0  0  0  0  0
   -2.5225    3.0401    0.0000 N   0  0  0  0  0  0  0  0  0  0  0  0
   -3.8372    3.7640    0.0000 C   0  0  0  0  0  0  0  0  0  0  0  0
   -3.8685    5.2645    0.0000 C   0  0  0  0  0  0  0  0  0  0  0  0
   -5.1815    5.9900    0.0000 C   0  0  0  0  0  0  0  0  0  0  0  0
   -5.2097    7.4897    0.0000 C   0  0  0  0  0  0  0  0  0  0  0  0
   -3.9250    8.2641    0.0000 C   0  0  0  0  0  0  0  0  0  0  0  0
   -2.6121    7.5387    0.0000 C   0  0  0  0  0  0  0  0  0  0  0  0
   -2.5838    6.0389    0.0000 C   0  0  0  0  0  0  0  0  0  0  0  0
  5  1  1  0
  1  2  2  0
  2  3  1  0
  3  4  2  0
  4  6  1  0
  5  6  2  0
  6  7  1  0
  7  9  2  0
  8  5  1  0
  8  9  1  0
  8 13  1  0
  9 10  1  0
 10 11  1  0
 11 12  1  0
 12 13  1  0
  7 14  1  0
 14 15  3  0
  1 16  1  0
 16 17  1  0
 17 18  1  0
 18 19  2  0
 19 20  1  0
 20 21  2  0
 21 22  1  0
 22 23  2  0
 23 18  1  0
M  STY  1   1 SUP
M  SLB  1   1   1
M  SDS EXP  1   1
M  SAL   1  2  14  15
M  SBL   1  1  16
M  SMT   1 CN
M  END
>  <Classification>  (473) 
0

>  <pchembl>  (473) 
4.8

>  <InChI_steorem>  (473) 
InChI=1S/C18H17N5/c19-10-14-15-8-4-5-9-23(15)17-16(14)21-12-22-18(17)20-11-13-6-2-1-3-7-13/h1-3,6-7,12H,4-5,8-9,11H2,(H,20,21,22)

>  <source>  (473) 
ChEMBL25

>  <source_id>  (473) 
25

>  <optional_reference>  (473) 
10.1021/acs.jmedchem.5b01644

>  <optional_origin>  (473) 
None

>  <target>  (473) 
BCRP

$$$$

     RDKit          2D

 25 28  0  1  0  0  0  0  0  0999 V2000
   -2.4915    1.5389    0.0000 C   0  0  0  0  0  0  0  0  0  0  0  0
   -3.7006    0.8244    0.0000 N   0  0  0  0  0  0  0  0  0  0  0  0
   -3.7006   -0.6045    0.0000 C   0  0  0  0  0  0  0  0  0  0  0  0
   -2.4915   -1.3190    0.0000 N   0  0  0  0  0  0  0  0  0  0  0  0
   -1.2274    0.8244    0.0000 C   0  0  0  0  0  0  0  0  0  0  0  0
   -1.2274   -0.6045    0.0000 C   0  0  0  0  0  0  0  0  0  0  0  0
    0.0000   -1.3190    0.0000 C   0  0  0  0  0  0  0  0  0  0  0  0
    1.2274    0.8244    0.0000 N   0  0  0  0  0  0  0  0  0  0  0  0
    1.2274   -0.6045    0.0000 C   0  0  0  0  0  0  0  0  0  0  0  0
    2.4732   -1.3190    0.0000 C   0  0  0  0  0  0  0  0  0  0  0  0
    3.7372   -0.6045    0.0000 C   0  0  0  0  0  0  0  0  0  0  0  0
    3.7372    0.8244    0.0000 C   0  0  0  0  0  0  0  0  0  0  0  0
    2.4732    1.5389    0.0000 C   0  0  0  0  0  0  0  0  0  0  0  0
    0.0000   -2.8205    0.0000 C   0  0  0  0  0  0  0  0  0  0  0  0
    0.0000   -4.0205    0.0000 N   0  0  0  0  0  0  0  0  0  0  0  0
   -2.5225    3.0401    0.0000 N   0  0  0  0  0  0  0  0  0  0  0  0
   -3.8372    3.7640    0.0000 C   0  0  0  0  0  0  0  0  0  0  0  0
   -3.8685    5.2645    0.0000 C   0  0  0  0  0  0  0  0  0  0  0  0
   -5.1832    5.9885    0.0000 C   0  0  0  0  0  0  0  0  0  0  0  0
   -5.2145    7.4890    0.0000 C   0  0  0  0  0  0  0  0  0  0  0  0
   -6.5275    8.2144    0.0000 C   0  0  0  0  0  0  0  0  0  0  0  0
   -6.5557    9.7142    0.0000 C   0  0  0  0  0  0  0  0  0  0  0  0
   -5.2711   10.4885    0.0000 C   0  0  0  0  0  0  0  0  0  0  0  0
   -3.9581    9.7631    0.0000 C   0  0  0  0  0  0  0  0  0  0  0  0
   -3.9299    8.2634    0.0000 C   0  0  0  0  0  0  0  0  0  0  0  0
  5  1  1  0
  1  2  2  0
  2  3  1  0
  3  4  2  0
  4  6  1  0
  5  6  2  0
  6  7  1  0
  7  9  2  0
  8  5  1  0
  8  9  1  0
  8 13  1  0
  9 10  1  0
 10 11  1  0
 11 12  1  0
 12 13  1  0
  7 14  1  0
 14 15  3  0
  1 16  1  0
 16 17  1  0
 17 18  1  0
 18 19  1  0
 19 20  1  0
 20 21  2  0
 21 22  1  0
 22 23  2  0
 23 24  1  0
 24 25  2  0
 25 20  1  0
M  STY  1   1 SUP
M  SLB  1   1   1
M  SDS EXP  1   1
M  SAL   1  2  14  15
M  SBL   1  1  16
M  SMT   1 CN
M  END
>  <Classification>  (474) 
1

>  <pchembl>  (474) 
5.22

>  <InChI_steorem>  (474) 
InChI=1S/C20H21N5/c21-13-16-17-10-4-5-12-25(17)19-18(16)23-14-24-20(19)22-11-6-9-15-7-2-1-3-8-15/h1-3,7-8,14H,4-6,9-12H2,(H,22,23,24)

>  <source>  (474) 
ChEMBL25

>  <source_id>  (474) 
25

>  <optional_reference>  (474) 
10.1021/acs.jmedchem.5b01644

>  <optional_origin>  (474) 
None

>  <target>  (474) 
BCRP

$$$$

     RDKit          2D

 27 31  0  1  0  0  0  0  0  0999 V2000
   -2.4915    1.5389    0.0000 C   0  0  0  0  0  0  0  0  0  0  0  0
   -3.7006    0.8244    0.0000 N   0  0  0  0  0  0  0  0  0  0  0  0
   -3.7006   -0.6045    0.0000 C   0  0  0  0  0  0  0  0  0  0  0  0
   -2.4915   -1.3190    0.0000 N   0  0  0  0  0  0  0  0  0  0  0  0
   -1.2274    0.8244    0.0000 C   0  0  0  0  0  0  0  0  0  0  0  0
   -1.2274   -0.6045    0.0000 C   0  0  0  0  0  0  0  0  0  0  0  0
    0.0000   -1.3190    0.0000 C   0  0  0  0  0  0  0  0  0  0  0  0
    1.2274    0.8244    0.0000 N   0  0  0  0  0  0  0  0  0  0  0  0
    1.2274   -0.6045    0.0000 C   0  0  0  0  0  0  0  0  0  0  0  0
    2.4732   -1.3190    0.0000 C   0  0  0  0  0  0  0  0  0  0  0  0
    3.7372   -0.6045    0.0000 C   0  0  0  0  0  0  0  0  0  0  0  0
    3.7372    0.8244    0.0000 C   0  0  0  0  0  0  0  0  0  0  0  0
    2.4732    1.5389    0.0000 C   0  0  0  0  0  0  0  0  0  0  0  0
    0.0000   -2.8205    0.0000 C   0  0  0  0  0  0  0  0  0  0  0  0
    0.0000   -4.0205    0.0000 N   0  0  0  0  0  0  0  0  0  0  0  0
   -2.5059    3.0395    0.0000 N   0  0  0  0  0  0  0  0  0  0  0  0
   -3.8107    3.7796    0.0000 C   0  0  0  0  0  0  0  0  0  0  0  0
   -3.8223    5.2795    0.0000 C   0  0  0  0  0  0  0  0  0  0  0  0
   -2.5291    6.0395    0.0000 N   0  0  0  0  0  0  0  0  0  0  0  0
   -1.2243    5.2996    0.0000 C   0  0  0  0  0  0  0  0  0  0  0  0
   -1.2127    3.7996    0.0000 C   0  0  0  0  0  0  0  0  0  0  0  0
   -2.5407    7.5402    0.0000 C   0  0  0  0  0  0  0  0  0  0  0  0
   -3.8443    8.2824    0.0000 C   0  0  0  0  0  0  0  0  0  0  0  0
   -3.8535    9.7823    0.0000 C   0  0  0  0  0  0  0  0  0  0  0  0
   -2.5591   10.5403    0.0000 C   0  0  0  0  0  0  0  0  0  0  0  0
   -1.2555    9.7983    0.0000 C   0  0  0  0  0  0  0  0  0  0  0  0
   -1.2463    8.2983    0.0000 C   0  0  0  0  0  0  0  0  0  0  0  0
  5  1  1  0
  1  2  2  0
  2  3  1  0
  3  4  2  0
  4  6  1  0
  5  6  2  0
  6  7  1  0
  7  9  2  0
  8  5  1  0
  8  9  1  0
  8 13  1  0
  9 10  1  0
 10 11  1  0
 11 12  1  0
 12 13  1  0
  7 14  1  0
 14 15  3  0
  1 16  1  0
 16 17  1  0
 16 21  1  0
 17 18  1  0
 18 19  1  0
 19 20  1  0
 20 21  1  0
 19 22  1  0
 22 23  2  0
 23 24  1  0
 24 25  2  0
 25 26  1  0
 26 27  2  0
 27 22  1  0
M  STY  1   1 SUP
M  SLB  1   1   1
M  SDS EXP  1   1
M  SAL   1  2  14  15
M  SBL   1  1  16
M  SMT   1 CN
M  END
>  <Classification>  (475) 
1

>  <pchembl>  (475) 
5.23

>  <InChI_steorem>  (475) 
InChI=1S/C21H22N6/c22-14-17-18-8-4-5-9-27(18)20-19(17)23-15-24-21(20)26-12-10-25(11-13-26)16-6-2-1-3-7-16/h1-3,6-7,15H,4-5,8-13H2

>  <source>  (475) 
ChEMBL25

>  <source_id>  (475) 
25

>  <optional_reference>  (475) 
10.1021/acs.jmedchem.5b01644

>  <optional_origin>  (475) 
None

>  <target>  (475) 
BCRP

$$$$

     RDKit          2D

 28 32  0  1  0  0  0  0  0  0999 V2000
   -2.4915    1.5389    0.0000 C   0  0  0  0  0  0  0  0  0  0  0  0
   -3.7006    0.8244    0.0000 N   0  0  0  0  0  0  0  0  0  0  0  0
   -3.7006   -0.6045    0.0000 C   0  0  0  0  0  0  0  0  0  0  0  0
   -2.4915   -1.3190    0.0000 N   0  0  0  0  0  0  0  0  0  0  0  0
   -1.2274    0.8244    0.0000 C   0  0  0  0  0  0  0  0  0  0  0  0
   -1.2274   -0.6045    0.0000 C   0  0  0  0  0  0  0  0  0  0  0  0
    0.0000   -1.3190    0.0000 C   0  0  0  0  0  0  0  0  0  0  0  0
    1.2274    0.8244    0.0000 N   0  0  0  0  0  0  0  0  0  0  0  0
    1.2274   -0.6045    0.0000 C   0  0  0  0  0  0  0  0  0  0  0  0
    2.4732   -1.3190    0.0000 C   0  0  0  0  0  0  0  0  0  0  0  0
    3.7372   -0.6045    0.0000 C   0  0  0  0  0  0  0  0  0  0  0  0
    3.7372    0.8244    0.0000 C   0  0  0  0  0  0  0  0  0  0  0  0
    2.4732    1.5389    0.0000 C   0  0  0  0  0  0  0  0  0  0  0  0
    0.0000   -2.8205    0.0000 C   0  0  0  0  0  0  0  0  0  0  0  0
    0.0000   -4.0205    0.0000 N   0  0  0  0  0  0  0  0  0  0  0  0
   -2.5059    3.0395    0.0000 N   0  0  0  0  0  0  0  0  0  0  0  0
   -3.8107    3.7796    0.0000 C   0  0  0  0  0  0  0  0  0  0  0  0
   -3.8223    5.2795    0.0000 C   0  0  0  0  0  0  0  0  0  0  0  0
   -2.5291    6.0395    0.0000 N   0  0  0  0  0  0  0  0  0  0  0  0
   -1.2243    5.2996    0.0000 C   0  0  0  0  0  0  0  0  0  0  0  0
   -1.2127    3.7996    0.0000 C   0  0  0  0  0  0  0  0  0  0  0  0
   -2.5376    7.5403    0.0000 C   0  0  0  0  0  0  0  0  0  0  0  0
   -1.2426    8.2989    0.0000 C   0  0  0  0  0  0  0  0  0  0  0  0
   -1.2489    9.7990    0.0000 C   0  0  0  0  0  0  0  0  0  0  0  0
    0.0469   10.5545    0.0000 C   0  0  0  0  0  0  0  0  0  0  0  0
    1.3491    9.8100    0.0000 C   0  0  0  0  0  0  0  0  0  0  0  0
    1.3555    8.3101    0.0000 C   0  0  0  0  0  0  0  0  0  0  0  0
    0.0597    7.5545    0.0000 C   0  0  0  0  0  0  0  0  0  0  0  0
  5  1  1  0
  1  2  2  0
  2  3  1  0
  3  4  2  0
  4  6  1  0
  5  6  2  0
  6  7  1  0
  7  9  2  0
  8  5  1  0
  8  9  1  0
  8 13  1  0
  9 10  1  0
 10 11  1  0
 11 12  1  0
 12 13  1  0
  7 14  1  0
 14 15  3  0
  1 16  1  0
 16 17  1  0
 16 21  1  0
 17 18  1  0
 18 19  1  0
 19 20  1  0
 20 21  1  0
 19 22  1  0
 22 23  1  0
 23 24  2  0
 24 25  1  0
 25 26  2  0
 26 27  1  0
 27 28  2  0
 28 23  1  0
M  STY  1   1 SUP
M  SLB  1   1   1
M  SDS EXP  1   1
M  SAL   1  2  14  15
M  SBL   1  1  16
M  SMT   1 CN
M  END
>  <Classification>  (476) 
1

>  <pchembl>  (476) 
5.08

>  <InChI_steorem>  (476) 
InChI=1S/C22H24N6/c23-14-18-19-8-4-5-9-28(19)21-20(18)24-16-25-22(21)27-12-10-26(11-13-27)15-17-6-2-1-3-7-17/h1-3,6-7,16H,4-5,8-13,15H2

>  <source>  (476) 
ChEMBL25

>  <source_id>  (476) 
25

>  <optional_reference>  (476) 
10.1021/acs.jmedchem.5b01644

>  <optional_origin>  (476) 
None

>  <target>  (476) 
BCRP

$$$$

     RDKit          2D

 34 39  0  1  0  0  0  0  0  0999 V2000
   -2.4915    1.5389    0.0000 C   0  0  0  0  0  0  0  0  0  0  0  0
   -3.7006    0.8244    0.0000 N   0  0  0  0  0  0  0  0  0  0  0  0
   -3.7006   -0.6045    0.0000 C   0  0  0  0  0  0  0  0  0  0  0  0
   -2.4915   -1.3190    0.0000 N   0  0  0  0  0  0  0  0  0  0  0  0
   -1.2274    0.8244    0.0000 C   0  0  0  0  0  0  0  0  0  0  0  0
   -1.2274   -0.6045    0.0000 C   0  0  0  0  0  0  0  0  0  0  0  0
    0.0000   -1.3190    0.0000 C   0  0  0  0  0  0  0  0  0  0  0  0
    1.2274    0.8244    0.0000 N   0  0  0  0  0  0  0  0  0  0  0  0
    1.2274   -0.6045    0.0000 C   0  0  0  0  0  0  0  0  0  0  0  0
    2.4732   -1.3190    0.0000 C   0  0  0  0  0  0  0  0  0  0  0  0
    3.7372   -0.6045    0.0000 C   0  0  0  0  0  0  0  0  0  0  0  0
    3.7372    0.8244    0.0000 C   0  0  0  0  0  0  0  0  0  0  0  0
    2.4732    1.5389    0.0000 C   0  0  0  0  0  0  0  0  0  0  0  0
    0.0000   -2.8205    0.0000 C   0  0  0  0  0  0  0  0  0  0  0  0
    0.0000   -4.0205    0.0000 N   0  0  0  0  0  0  0  0  0  0  0  0
   -2.5059    3.0395    0.0000 N   0  0  0  0  0  0  0  0  0  0  0  0
   -3.8107    3.7796    0.0000 C   0  0  0  0  0  0  0  0  0  0  0  0
   -3.8223    5.2795    0.0000 C   0  0  0  0  0  0  0  0  0  0  0  0
   -2.5291    6.0395    0.0000 N   0  0  0  0  0  0  0  0  0  0  0  0
   -1.2243    5.2996    0.0000 C   0  0  0  0  0  0  0  0  0  0  0  0
   -1.2127    3.7996    0.0000 C   0  0  0  0  0  0  0  0  0  0  0  0
   -2.5387    7.5403    0.0000 C   0  0  0  0  0  0  0  0  0  0  0  0
   -1.2435    8.2985    0.0000 C   0  0  0  0  0  0  0  0  0  0  0  0
   -3.8434    8.2820    0.0000 C   0  0  0  0  0  0  0  0  0  0  0  0
   -5.1390    7.5260    0.0000 C   0  0  0  0  0  0  0  0  0  0  0  0
   -6.4415    8.2699    0.0000 C   0  0  0  0  0  0  0  0  0  0  0  0
   -6.4485    9.7699    0.0000 C   0  0  0  0  0  0  0  0  0  0  0  0
   -5.1530   10.5260    0.0000 C   0  0  0  0  0  0  0  0  0  0  0  0
   -3.8505    9.7820    0.0000 C   0  0  0  0  0  0  0  0  0  0  0  0
    0.0617    7.5592    0.0000 C   0  0  0  0  0  0  0  0  0  0  0  0
    1.3546    8.3196    0.0000 C   0  0  0  0  0  0  0  0  0  0  0  0
    1.3424    9.8196    0.0000 C   0  0  0  0  0  0  0  0  0  0  0  0
    0.0374   10.5591    0.0000 C   0  0  0  0  0  0  0  0  0  0  0  0
   -1.2556    9.7986    0.0000 C   0  0  0  0  0  0  0  0  0  0  0  0
  5  1  1  0
  1  2  2  0
  2  3  1  0
  3  4  2  0
  4  6  1  0
  5  6  2  0
  6  7  1  0
  7  9  2  0
  8  5  1  0
  8  9  1  0
  8 13  1  0
  9 10  1  0
 10 11  1  0
 11 12  1  0
 12 13  1  0
  7 14  1  0
 14 15  3  0
  1 16  1  0
 16 17  1  0
 16 21  1  0
 17 18  1  0
 18 19  1  0
 19 20  1  0
 20 21  1  0
 19 22  1  0
 22 23  1  0
 22 24  1  0
 24 25  2  0
 25 26  1  0
 26 27  2  0
 27 28  1  0
 28 29  2  0
 29 24  1  0
 23 30  2  0
 30 31  1  0
 31 32  2  0
 32 33  1  0
 33 34  2  0
 34 23  1  0
M  STY  1   1 SUP
M  SLB  1   1   1
M  SDS EXP  1   1
M  SAL   1  2  14  15
M  SBL   1  1  16
M  SMT   1 CN
M  END
>  <Classification>  (477) 
0

>  <pchembl>  (477) 
4.84

>  <InChI_steorem>  (477) 
InChI=1S/C28H28N6/c29-19-23-24-13-7-8-14-34(24)27-25(23)30-20-31-28(27)33-17-15-32(16-18-33)26(21-9-3-1-4-10-21)22-11-5-2-6-12-22/h1-6,9-12,20,26H,7-8,13-18H2

>  <source>  (477) 
ChEMBL25

>  <source_id>  (477) 
25

>  <optional_reference>  (477) 
10.1021/acs.jmedchem.5b01644

>  <optional_origin>  (477) 
None

>  <target>  (477) 
BCRP

$$$$

     RDKit          2D

 38 43  0  1  0  0  0  0  0  0999 V2000
   -1.0028    1.5132    0.0000 C   0  0  0  0  0  0  0  0  0  0  0  0
   -2.3155    0.7475    0.0000 N   0  0  0  0  0  0  0  0  0  0  0  0
   -2.3155   -0.7475    0.0000 C   0  0  0  0  0  0  0  0  0  0  0  0
   -1.0028   -1.5132    0.0000 N   0  0  0  0  0  0  0  0  0  0  0  0
    0.2917    0.7475    0.0000 C   0  0  0  0  0  0  0  0  0  0  0  0
    0.2917   -0.7475    0.0000 C   0  0  0  0  0  0  0  0  0  0  0  0
    1.7138   -1.2033    0.0000 C   0  0  0  0  0  0  0  0  0  0  0  0
    1.7138    1.2033    0.0000 N   0  0  0  0  0  0  0  0  0  0  0  0
    2.5889    0.0182    0.0000 C   0  0  0  0  0  0  0  0  0  0  0  0
    2.1749    2.6315    0.0000 C   0  0  0  0  0  0  0  0  0  0  0  0
    2.1825   -2.6263    0.0000 C   0  0  0  0  0  0  0  0  0  0  0  0
    2.5579   -3.7661    0.0000 N   0  0  0  0  0  0  0  0  0  0  0  0
   -0.9982    3.0140    0.0000 N   0  0  0  0  0  0  0  0  0  0  0  0
   -2.2894    3.7767    0.0000 C   0  0  0  0  0  0  0  0  0  0  0  0
   -2.2745    5.2767    0.0000 C   0  0  0  0  0  0  0  0  0  0  0  0
   -0.9680    6.0137    0.0000 N   0  0  0  0  0  0  0  0  0  0  0  0
    0.3235    5.2508    0.0000 C   0  0  0  0  0  0  0  0  0  0  0  0
    0.3086    3.7509    0.0000 C   0  0  0  0  0  0  0  0  0  0  0  0
   -0.9500    7.5144    0.0000 C   0  0  0  0  0  0  0  0  0  0  0  0
    0.3582    8.2500    0.0000 C   0  0  0  0  0  0  0  0  0  0  0  0
    4.0896    0.0290    0.0000 C   0  0  0  0  0  0  0  0  0  0  0  0
    4.8416    1.3294    0.0000 C   0  0  0  0  0  0  0  0  0  0  0  0
    6.3229    1.5655    0.0000 C   0  0  0  0  0  0  0  0  0  0  0  0
    4.6624   -1.3676    0.0000 C   0  0  0  0  0  0  0  0  0  0  0  0
    7.4310    0.5546    0.0000 C   0  0  0  0  0  0  0  0  0  0  0  0
    6.0995   -1.7976    0.0000 C   0  0  0  0  0  0  0  0  0  0  0  0
    7.3316   -0.9421    0.0000 C   0  0  0  0  0  0  0  0  0  0  0  0
    3.6428    2.9513    0.0000 C   0  0  0  0  0  0  0  0  0  0  0  0
    4.3193    4.2901    0.0000 C   0  0  0  0  0  0  0  0  0  0  0  0
    1.0196    3.6029    0.0000 C   0  0  0  0  0  0  0  0  0  0  0  0
    3.6944    5.6537    0.0000 C   0  0  0  0  0  0  0  0  0  0  0  0
    1.0483    5.1026    0.0000 C   0  0  0  0  0  0  0  0  0  0  0  0
    2.2387    6.0153    0.0000 C   0  0  0  0  0  0  0  0  0  0  0  0
    0.3785    9.7499    0.0000 C   0  0  0  0  0  0  0  0  0  0  0  0
    1.6875   10.4824    0.0000 C   0  0  0  0  0  0  0  0  0  0  0  0
    2.9763    9.7150    0.0000 C   0  0  0  0  0  0  0  0  0  0  0  0
    2.9562    8.2151    0.0000 C   0  0  0  0  0  0  0  0  0  0  0  0
    1.6472    7.4826    0.0000 C   0  0  0  0  0  0  0  0  0  0  0  0
  5  1  1  0
  1  2  2  0
  2  3  1  0
  3  4  2  0
  4  6  1  0
  5  6  2  0
  6  7  1  0
  7  9  2  0
  8  5  1  0
  8  9  1  0
  8 10  1  0
  7 11  1  0
 11 12  3  0
  1 13  1  0
 13 14  1  0
 13 18  1  0
 14 15  1  0
 15 16  1  0
 16 17  1  0
 17 18  1  0
 16 19  1  0
 19 20  1  0
  9 21  1  0
 21 22  1  0
 22 23  1  0
 21 24  1  0
 23 25  1  0
 24 26  1  0
 25 27  1  0
 26 27  1  0
 10 28  1  0
 28 29  1  0
 10 30  1  0
 29 31  1  0
 30 32  1  0
 31 33  1  0
 32 33  1  0
 20 34  2  0
 34 35  1  0
 35 36  2  0
 36 37  1  0
 37 38  2  0
 38 20  1  0
M  STY  1   1 SUP
M  SLB  1   1   1
M  SDS EXP  1   1
M  SAL   1  2  11  12
M  SBL   1  1  12
M  SMT   1 CN
M  END
>  <Classification>  (478) 
1

>  <pchembl>  (478) 
5.33

>  <InChI_steorem>  (478) 
InChI=1S/C32H42N6/c33-22-28-29-31(38(27-16-10-3-4-11-17-27)30(28)26-14-8-1-2-9-15-26)32(35-24-34-29)37-20-18-36(19-21-37)23-25-12-6-5-7-13-25/h5-7,12-13,24,26-27H,1-4,8-11,14-21,23H2

>  <source>  (478) 
ChEMBL25

>  <source_id>  (478) 
25

>  <optional_reference>  (478) 
10.1021/acs.jmedchem.5b01644

>  <optional_origin>  (478) 
None

>  <target>  (478) 
BCRP

$$$$

     RDKit          2D

 39 44  0  1  0  0  0  0  0  0999 V2000
   -1.0028    1.5132    0.0000 C   0  0  0  0  0  0  0  0  0  0  0  0
   -2.3155    0.7475    0.0000 N   0  0  0  0  0  0  0  0  0  0  0  0
   -2.3155   -0.7475    0.0000 C   0  0  0  0  0  0  0  0  0  0  0  0
   -1.0028   -1.5132    0.0000 N   0  0  0  0  0  0  0  0  0  0  0  0
    0.2917    0.7475    0.0000 C   0  0  0  0  0  0  0  0  0  0  0  0
    0.2917   -0.7475    0.0000 C   0  0  0  0  0  0  0  0  0  0  0  0
    1.7138   -1.2033    0.0000 C   0  0  0  0  0  0  0  0  0  0  0  0
    1.7138    1.2033    0.0000 N   0  0  0  0  0  0  0  0  0  0  0  0
    2.5889    0.0182    0.0000 C   0  0  0  0  0  0  0  0  0  0  0  0
    2.1749    2.6315    0.0000 C   0  0  0  0  0  0  0  0  0  0  0  0
    2.1825   -2.6263    0.0000 C   0  0  0  0  0  0  0  0  0  0  0  0
    2.5579   -3.7661    0.0000 N   0  0  0  0  0  0  0  0  0  0  0  0
   -0.9982    3.0140    0.0000 N   0  0  0  0  0  0  0  0  0  0  0  0
   -2.2894    3.7767    0.0000 C   0  0  0  0  0  0  0  0  0  0  0  0
   -2.2745    5.2767    0.0000 C   0  0  0  0  0  0  0  0  0  0  0  0
   -0.9680    6.0137    0.0000 N   0  0  0  0  0  0  0  0  0  0  0  0
    0.3235    5.2508    0.0000 C   0  0  0  0  0  0  0  0  0  0  0  0
    0.3086    3.7509    0.0000 C   0  0  0  0  0  0  0  0  0  0  0  0
   -0.9500    7.5144    0.0000 C   0  0  0  0  0  0  0  0  0  0  0  0
    0.3582    8.2500    0.0000 C   0  0  0  0  0  0  0  0  0  0  0  0
    0.3763    9.7507    0.0000 C   0  0  0  0  0  0  0  0  0  0  0  0
    1.6827   10.4878    0.0000 C   0  0  0  0  0  0  0  0  0  0  0  0
    1.6977   11.9877    0.0000 C   0  0  0  0  0  0  0  0  0  0  0  0
    0.4062   12.7506    0.0000 C   0  0  0  0  0  0  0  0  0  0  0  0
   -0.9002   12.0136    0.0000 C   0  0  0  0  0  0  0  0  0  0  0  0
   -0.9152   10.5137    0.0000 C   0  0  0  0  0  0  0  0  0  0  0  0
    4.0896    0.0290    0.0000 C   0  0  0  0  0  0  0  0  0  0  0  0
    4.8416    1.3294    0.0000 C   0  0  0  0  0  0  0  0  0  0  0  0
    6.3229    1.5655    0.0000 C   0  0  0  0  0  0  0  0  0  0  0  0
    4.6624   -1.3676    0.0000 C   0  0  0  0  0  0  0  0  0  0  0  0
    7.4310    0.5546    0.0000 C   0  0  0  0  0  0  0  0  0  0  0  0
    6.0995   -1.7976    0.0000 C   0  0  0  0  0  0  0  0  0  0  0  0
    7.3316   -0.9421    0.0000 C   0  0  0  0  0  0  0  0  0  0  0  0
    3.6428    2.9513    0.0000 C   0  0  0  0  0  0  0  0  0  0  0  0
    4.3193    4.2901    0.0000 C   0  0  0  0  0  0  0  0  0  0  0  0
    1.0196    3.6029    0.0000 C   0  0  0  0  0  0  0  0  0  0  0  0
    3.6944    5.6537    0.0000 C   0  0  0  0  0  0  0  0  0  0  0  0
    1.0483    5.1026    0.0000 C   0  0  0  0  0  0  0  0  0  0  0  0
    2.2387    6.0153    0.0000 C   0  0  0  0  0  0  0  0  0  0  0  0
  5  1  1  0
  1  2  2  0
  2  3  1  0
  3  4  2  0
  4  6  1  0
  5  6  2  0
  6  7  1  0
  7  9  2  0
  8  5  1  0
  8  9  1  0
  8 10  1  0
  7 11  1  0
 11 12  3  0
  1 13  1  0
 13 14  1  0
 13 18  1  0
 14 15  1  0
 15 16  1  0
 16 17  1  0
 17 18  1  0
 16 19  1  0
 19 20  1  0
 20 21  1  0
 21 22  2  0
 22 23  1  0
 23 24  2  0
 24 25  1  0
 25 26  2  0
 26 21  1  0
  9 27  1  0
 27 28  1  0
 28 29  1  0
 27 30  1  0
 29 31  1  0
 30 32  1  0
 31 33  1  0
 32 33  1  0
 10 34  1  0
 34 35  1  0
 10 36  1  0
 35 37  1  0
 36 38  1  0
 37 39  1  0
 38 39  1  0
M  STY  1   1 SUP
M  SLB  1   1   1
M  SDS EXP  1   1
M  SAL   1  2  11  12
M  SBL   1  1  12
M  SMT   1 CN
M  END
>  <Classification>  (479) 
1

>  <pchembl>  (479) 
5.0

>  <InChI_steorem>  (479) 
InChI=1S/C33H44N6/c34-24-29-30-32(39(28-16-10-3-4-11-17-28)31(29)27-14-8-1-2-9-15-27)33(36-25-35-30)38-22-20-37(21-23-38)19-18-26-12-6-5-7-13-26/h5-7,12-13,25,27-28H,1-4,8-11,14-23H2

>  <source>  (479) 
ChEMBL25

>  <source_id>  (479) 
25

>  <optional_reference>  (479) 
10.1021/acs.jmedchem.5b01644

>  <optional_origin>  (479) 
None

>  <target>  (479) 
BCRP

$$$$

     RDKit          2D

 44 50  0  1  0  0  0  0  0  0999 V2000
   -1.0028    1.5132    0.0000 C   0  0  0  0  0  0  0  0  0  0  0  0
   -2.3155    0.7475    0.0000 N   0  0  0  0  0  0  0  0  0  0  0  0
   -2.3155   -0.7475    0.0000 C   0  0  0  0  0  0  0  0  0  0  0  0
   -1.0028   -1.5132    0.0000 N   0  0  0  0  0  0  0  0  0  0  0  0
    0.2917    0.7475    0.0000 C   0  0  0  0  0  0  0  0  0  0  0  0
    0.2917   -0.7475    0.0000 C   0  0  0  0  0  0  0  0  0  0  0  0
    1.7138   -1.2033    0.0000 C   0  0  0  0  0  0  0  0  0  0  0  0
    1.7138    1.2033    0.0000 N   0  0  0  0  0  0  0  0  0  0  0  0
    2.5889    0.0182    0.0000 C   0  0  0  0  0  0  0  0  0  0  0  0
    2.1749    2.6315    0.0000 C   0  0  0  0  0  0  0  0  0  0  0  0
    2.1825   -2.6263    0.0000 C   0  0  0  0  0  0  0  0  0  0  0  0
    2.5579   -3.7661    0.0000 N   0  0  0  0  0  0  0  0  0  0  0  0
   -0.9982    3.0140    0.0000 N   0  0  0  0  0  0  0  0  0  0  0  0
   -2.2894    3.7767    0.0000 C   0  0  0  0  0  0  0  0  0  0  0  0
   -2.2745    5.2767    0.0000 C   0  0  0  0  0  0  0  0  0  0  0  0
   -0.9680    6.0137    0.0000 N   0  0  0  0  0  0  0  0  0  0  0  0
    0.3235    5.2508    0.0000 C   0  0  0  0  0  0  0  0  0  0  0  0
    0.3086    3.7509    0.0000 C   0  0  0  0  0  0  0  0  0  0  0  0
   -0.9510    7.5144    0.0000 C   0  0  0  0  0  0  0  0  0  0  0  0
    0.3574    8.2496    0.0000 C   0  0  0  0  0  0  0  0  0  0  0  0
    4.0896    0.0290    0.0000 C   0  0  0  0  0  0  0  0  0  0  0  0
    4.8416    1.3294    0.0000 C   0  0  0  0  0  0  0  0  0  0  0  0
    6.3229    1.5655    0.0000 C   0  0  0  0  0  0  0  0  0  0  0  0
    4.6624   -1.3676    0.0000 C   0  0  0  0  0  0  0  0  0  0  0  0
    7.4310    0.5546    0.0000 C   0  0  0  0  0  0  0  0  0  0  0  0
    6.0995   -1.7976    0.0000 C   0  0  0  0  0  0  0  0  0  0  0  0
    7.3316   -0.9421    0.0000 C   0  0  0  0  0  0  0  0  0  0  0  0
    3.6428    2.9513    0.0000 C   0  0  0  0  0  0  0  0  0  0  0  0
    4.3193    4.2901    0.0000 C   0  0  0  0  0  0  0  0  0  0  0  0
    1.0196    3.6029    0.0000 C   0  0  0  0  0  0  0  0  0  0  0  0
    3.6944    5.6537    0.0000 C   0  0  0  0  0  0  0  0  0  0  0  0
    1.0483    5.1026    0.0000 C   0  0  0  0  0  0  0  0  0  0  0  0
    2.2387    6.0153    0.0000 C   0  0  0  0  0  0  0  0  0  0  0  0
   -2.2425    8.2790    0.0000 C   0  0  0  0  0  0  0  0  0  0  0  0
    1.6492    7.4872    0.0000 C   0  0  0  0  0  0  0  0  0  0  0  0
    2.9554    8.2247    0.0000 C   0  0  0  0  0  0  0  0  0  0  0  0
    2.9698    9.7247    0.0000 C   0  0  0  0  0  0  0  0  0  0  0  0
    1.6780   10.4871    0.0000 C   0  0  0  0  0  0  0  0  0  0  0  0
    0.3718    9.7496    0.0000 C   0  0  0  0  0  0  0  0  0  0  0  0
   -3.5512    7.5461    0.0000 C   0  0  0  0  0  0  0  0  0  0  0  0
   -4.8404    8.3129    0.0000 C   0  0  0  0  0  0  0  0  0  0  0  0
   -4.8208    9.8128    0.0000 C   0  0  0  0  0  0  0  0  0  0  0  0
   -3.5121   10.5458    0.0000 C   0  0  0  0  0  0  0  0  0  0  0  0
   -2.2230    9.7790    0.0000 C   0  0  0  0  0  0  0  0  0  0  0  0
  5  1  1  0
  1  2  2  0
  2  3  1  0
  3  4  2  0
  4  6  1  0
  5  6  2  0
  6  7  1  0
  7  9  2  0
  8  5  1  0
  8  9  1  0
  8 10  1  0
  7 11  1  0
 11 12  3  0
  1 13  1  0
 13 14  1  0
 13 18  1  0
 14 15  1  0
 15 16  1  0
 16 17  1  0
 17 18  1  0
 16 19  1  0
 19 20  1  0
  9 21  1  0
 21 22  1  0
 22 23  1  0
 21 24  1  0
 23 25  1  0
 24 26  1  0
 25 27  1  0
 26 27  1  0
 10 28  1  0
 28 29  1  0
 10 30  1  0
 29 31  1  0
 30 32  1  0
 31 33  1  0
 32 33  1  0
 19 34  1  0
 20 35  2  0
 35 36  1  0
 36 37  2  0
 37 38  1  0
 38 39  2  0
 39 20  1  0
 34 40  2  0
 40 41  1  0
 41 42  2  0
 42 43  1  0
 43 44  2  0
 44 34  1  0
M  STY  1   1 SUP
M  SLB  1   1   1
M  SDS EXP  1   1
M  SAL   1  2  11  12
M  SBL   1  1  12
M  SMT   1 CN
M  END
>  <Classification>  (480) 
1

>  <pchembl>  (480) 
5.06

>  <InChI_steorem>  (480) 
InChI=1S/C38H46N6/c39-27-33-34-37(44(32-21-13-3-4-14-22-32)36(33)31-19-7-1-2-8-20-31)38(41-28-40-34)43-25-23-42(24-26-43)35(29-15-9-5-10-16-29)30-17-11-6-12-18-30/h5-6,9-12,15-18,28,31-32,35H,1-4,7-8,13-14,19-26H2

>  <source>  (480) 
ChEMBL25

>  <source_id>  (480) 
25

>  <optional_reference>  (480) 
10.1021/acs.jmedchem.5b01644

>  <optional_origin>  (480) 
None

>  <target>  (480) 
BCRP

$$$$

     RDKit          2D

 29 32  0  0  0  0  0  0  0  0999 V2000
   -2.5835   -5.2544    0.0000 C   0  0  0  0  0  0  0  0  0  0  0  0
   -2.5870   -3.7544    0.0000 C   0  0  0  0  0  0  0  0  0  0  0  0
   -3.8880   -3.0076    0.0000 C   0  0  0  0  0  0  0  0  0  0  0  0
   -5.1852   -3.7608    0.0000 C   0  0  0  0  0  0  0  0  0  0  0  0
   -5.1815   -5.2608    0.0000 C   0  0  0  0  0  0  0  0  0  0  0  0
   -3.8807   -6.0076    0.0000 C   0  0  0  0  0  0  0  0  0  0  0  0
   -1.2907   -2.9981    0.0000 N   0  0  0  0  0  0  0  0  0  0  0  0
   -1.2964   -1.4973    0.0000 C   0  0  0  0  0  0  0  0  0  0  0  0
   -1.2964    1.4973    0.0000 N   0  0  0  0  0  0  0  0  0  0  0  0
   -2.6111    0.7486    0.0000 C   0  0  0  0  0  0  0  0  0  0  0  0
   -2.6111   -0.7486    0.0000 N   0  0  0  0  0  0  0  0  0  0  0  0
    0.0000    0.7486    0.0000 C   0  0  0  0  0  0  0  0  0  0  0  0
    0.0000   -0.7486    0.0000 C   0  0  0  0  0  0  0  0  0  0  0  0
    1.2964   -1.4973    0.0000 C   0  0  0  0  0  0  0  0  0  0  0  0
    2.5929   -0.7486    0.0000 C   0  0  0  0  0  0  0  0  0  0  0  0
    2.5929    0.7486    0.0000 C   0  0  0  0  0  0  0  0  0  0  0  0
    1.2964    1.4973    0.0000 C   0  0  0  0  0  0  0  0  0  0  0  0
   -6.4779   -6.0170    0.0000 C   0  0  0  0  0  0  0  0  0  0  0  0
   -6.4721   -7.5179    0.0000 C   0  0  0  0  0  0  0  0  0  0  0  0
   -7.5196   -5.4214    0.0000 O   0  0  0  0  0  0  0  0  0  0  0  0
   -7.7685   -8.2741    0.0000 C   0  0  0  0  0  0  0  0  0  0  0  0
   -7.7626   -9.7749    0.0000 C   0  0  0  0  0  0  0  0  0  0  0  0
   -9.0572  -10.5327    0.0000 C   0  0  0  0  0  0  0  0  0  0  0  0
   -9.0484  -12.0326    0.0000 C   0  0  0  0  0  0  0  0  0  0  0  0
   -7.7449  -12.7750    0.0000 C   0  0  0  0  0  0  0  0  0  0  0  0
   -6.4503  -12.0173    0.0000 C   0  0  0  0  0  0  0  0  0  0  0  0
   -6.4592  -10.5173    0.0000 C   0  0  0  0  0  0  0  0  0  0  0  0
  -10.3421  -12.7934    0.0000 O   0  0  0  0  0  0  0  0  0  0  0  0
  -10.3333  -13.9934    0.0000 C   0  0  0  0  0  0  0  0  0  0  0  0
  1  2  2  0
  2  3  1  0
  3  4  2  0
  4  5  1  0
  5  6  2  0
  6  1  1  0
  2  7  1  0
  7  8  1  0
  8 13  2  0
 12  9  2  0
  9 10  1  0
 10 11  2  0
 11  8  1  0
 12 13  1  0
 13 14  1  0
 14 15  2  0
 15 16  1  0
 16 17  2  0
 17 12  1  0
  5 18  1  0
 18 19  1  0
 18 20  2  0
 19 21  2  3
 21 22  1  0
 22 23  2  0
 23 24  1  0
 24 25  2  0
 25 26  1  0
 26 27  2  0
 27 22  1  0
 24 28  1  0
 28 29  1  0
M  END
>  <Classification>  (481) 
1

>  <pchembl>  (481) 
6.17

>  <InChI_steorem>  (481) 
InChI=1S/C24H19N3O2/c1-29-20-6-4-5-17(15-20)9-14-23(28)18-10-12-19(13-11-18)27-24-21-7-2-3-8-22(21)25-16-26-24/h2-16H,1H3,(H,25,26,27)

>  <source>  (481) 
ChEMBL25

>  <source_id>  (481) 
25

>  <optional_reference>  (481) 
10.1016/j.ejmech.2016.03.067

>  <optional_origin>  (481) 
None

>  <target>  (481) 
BCRP

$$$$

     RDKit          2D

 29 32  0  0  0  0  0  0  0  0999 V2000
   -2.5835   -5.2544    0.0000 C   0  0  0  0  0  0  0  0  0  0  0  0
   -2.5870   -3.7544    0.0000 C   0  0  0  0  0  0  0  0  0  0  0  0
   -3.8880   -3.0076    0.0000 C   0  0  0  0  0  0  0  0  0  0  0  0
   -5.1852   -3.7608    0.0000 C   0  0  0  0  0  0  0  0  0  0  0  0
   -5.1815   -5.2608    0.0000 C   0  0  0  0  0  0  0  0  0  0  0  0
   -3.8807   -6.0076    0.0000 C   0  0  0  0  0  0  0  0  0  0  0  0
   -6.4883   -3.0162    0.0000 C   0  0  0  0  0  0  0  0  0  0  0  0
   -6.4933   -1.8162    0.0000 O   0  0  0  0  0  0  0  0  0  0  0  0
   -7.7852   -3.7717    0.0000 C   0  0  0  0  0  0  0  0  0  0  0  0
   -9.0883   -3.0271    0.0000 C   0  0  0  0  0  0  0  0  0  0  0  0
  -10.3851   -3.7825    0.0000 C   0  0  0  0  0  0  0  0  0  0  0  0
  -11.6886   -3.0403    0.0000 C   0  0  0  0  0  0  0  0  0  0  0  0
  -12.9832   -3.7979    0.0000 C   0  0  0  0  0  0  0  0  0  0  0  0
  -12.9744   -5.2979    0.0000 C   0  0  0  0  0  0  0  0  0  0  0  0
  -11.6709   -6.0402    0.0000 C   0  0  0  0  0  0  0  0  0  0  0  0
  -10.3763   -5.2826    0.0000 C   0  0  0  0  0  0  0  0  0  0  0  0
   -1.2907   -2.9981    0.0000 N   0  0  0  0  0  0  0  0  0  0  0  0
   -1.2964   -1.4973    0.0000 C   0  0  0  0  0  0  0  0  0  0  0  0
   -1.2964    1.4973    0.0000 N   0  0  0  0  0  0  0  0  0  0  0  0
   -2.6111    0.7486    0.0000 C   0  0  0  0  0  0  0  0  0  0  0  0
   -2.6111   -0.7486    0.0000 N   0  0  0  0  0  0  0  0  0  0  0  0
    0.0000    0.7486    0.0000 C   0  0  0  0  0  0  0  0  0  0  0  0
    0.0000   -0.7486    0.0000 C   0  0  0  0  0  0  0  0  0  0  0  0
    1.2964   -1.4973    0.0000 C   0  0  0  0  0  0  0  0  0  0  0  0
    2.5929   -0.7486    0.0000 C   0  0  0  0  0  0  0  0  0  0  0  0
    2.5929    0.7486    0.0000 C   0  0  0  0  0  0  0  0  0  0  0  0
    1.2964    1.4973    0.0000 C   0  0  0  0  0  0  0  0  0  0  0  0
  -14.2681   -6.0587    0.0000 O   0  0  0  0  0  0  0  0  0  0  0  0
  -14.2593   -7.2586    0.0000 C   0  0  0  0  0  0  0  0  0  0  0  0
  1  2  2  0
  2  3  1  0
  3  4  2  0
  4  5  1  0
  5  6  2  0
  6  1  1  0
  4  7  1  0
  7  8  2  0
  7  9  1  0
  9 10  2  3
 10 11  1  0
 11 12  2  0
 12 13  1  0
 13 14  2  0
 14 15  1  0
 15 16  2  0
 16 11  1  0
  2 17  1  0
 17 18  1  0
 18 23  2  0
 22 19  2  0
 19 20  1  0
 20 21  2  0
 21 18  1  0
 22 23  1  0
 23 24  1  0
 24 25  2  0
 25 26  1  0
 26 27  2  0
 27 22  1  0
 14 28  1  0
 28 29  1  0
M  END
>  <Classification>  (482) 
1

>  <pchembl>  (482) 
6.05

>  <InChI_steorem>  (482) 
InChI=1S/C24H19N3O2/c1-29-20-12-9-17(10-13-20)11-14-23(28)18-5-4-6-19(15-18)27-24-21-7-2-3-8-22(21)25-16-26-24/h2-16H,1H3,(H,25,26,27)

>  <source>  (482) 
ChEMBL25

>  <source_id>  (482) 
25

>  <optional_reference>  (482) 
10.1016/j.ejmech.2016.03.067

>  <optional_origin>  (482) 
None

>  <target>  (482) 
BCRP

$$$$

     RDKit          2D

 31 34  0  0  0  0  0  0  0  0999 V2000
   -2.5835   -5.2544    0.0000 C   0  0  0  0  0  0  0  0  0  0  0  0
   -2.5870   -3.7544    0.0000 C   0  0  0  0  0  0  0  0  0  0  0  0
   -3.8880   -3.0076    0.0000 C   0  0  0  0  0  0  0  0  0  0  0  0
   -5.1852   -3.7608    0.0000 C   0  0  0  0  0  0  0  0  0  0  0  0
   -5.1815   -5.2608    0.0000 C   0  0  0  0  0  0  0  0  0  0  0  0
   -3.8807   -6.0076    0.0000 C   0  0  0  0  0  0  0  0  0  0  0  0
   -1.2907   -2.9981    0.0000 N   0  0  0  0  0  0  0  0  0  0  0  0
   -1.2964   -1.4973    0.0000 C   0  0  0  0  0  0  0  0  0  0  0  0
   -1.2964    1.4973    0.0000 N   0  0  0  0  0  0  0  0  0  0  0  0
   -2.6111    0.7486    0.0000 C   0  0  0  0  0  0  0  0  0  0  0  0
   -2.6111   -0.7486    0.0000 N   0  0  0  0  0  0  0  0  0  0  0  0
    0.0000    0.7486    0.0000 C   0  0  0  0  0  0  0  0  0  0  0  0
    0.0000   -0.7486    0.0000 C   0  0  0  0  0  0  0  0  0  0  0  0
    1.2964   -1.4973    0.0000 C   0  0  0  0  0  0  0  0  0  0  0  0
    2.5929   -0.7486    0.0000 C   0  0  0  0  0  0  0  0  0  0  0  0
    2.5929    0.7486    0.0000 C   0  0  0  0  0  0  0  0  0  0  0  0
    1.2964    1.4973    0.0000 C   0  0  0  0  0  0  0  0  0  0  0  0
   -6.4779   -6.0170    0.0000 C   0  0  0  0  0  0  0  0  0  0  0  0
   -6.4721   -7.5179    0.0000 C   0  0  0  0  0  0  0  0  0  0  0  0
   -7.5196   -5.4214    0.0000 O   0  0  0  0  0  0  0  0  0  0  0  0
   -7.7685   -8.2741    0.0000 C   0  0  0  0  0  0  0  0  0  0  0  0
   -7.7626   -9.7749    0.0000 C   0  0  0  0  0  0  0  0  0  0  0  0
   -9.0572  -10.5327    0.0000 C   0  0  0  0  0  0  0  0  0  0  0  0
   -9.0484  -12.0326    0.0000 C   0  0  0  0  0  0  0  0  0  0  0  0
   -7.7449  -12.7750    0.0000 C   0  0  0  0  0  0  0  0  0  0  0  0
   -6.4503  -12.0173    0.0000 C   0  0  0  0  0  0  0  0  0  0  0  0
   -6.4592  -10.5173    0.0000 C   0  0  0  0  0  0  0  0  0  0  0  0
   -7.7330  -14.2758    0.0000 O   0  0  0  0  0  0  0  0  0  0  0  0
   -6.6894  -14.8681    0.0000 C   0  0  0  0  0  0  0  0  0  0  0  0
  -10.3452  -12.7881    0.0000 O   0  0  0  0  0  0  0  0  0  0  0  0
  -11.3871  -12.1927    0.0000 C   0  0  0  0  0  0  0  0  0  0  0  0
  1  2  2  0
  2  3  1  0
  3  4  2  0
  4  5  1  0
  5  6  2  0
  6  1  1  0
  2  7  1  0
  7  8  1  0
  8 13  2  0
 12  9  2  0
  9 10  1  0
 10 11  2  0
 11  8  1  0
 12 13  1  0
 13 14  1  0
 14 15  2  0
 15 16  1  0
 16 17  2  0
 17 12  1  0
  5 18  1  0
 18 19  1  0
 18 20  2  0
 19 21  2  3
 21 22  1  0
 22 23  2  0
 23 24  1  0
 24 25  2  0
 25 26  1  0
 26 27  2  0
 27 22  1  0
 25 28  1  0
 28 29  1  0
 24 30  1  0
 30 31  1  0
M  END
>  <Classification>  (483) 
1

>  <pchembl>  (483) 
6.08

>  <InChI_steorem>  (483) 
InChI=1S/C25H21N3O3/c1-30-23-14-8-17(15-24(23)31-2)7-13-22(29)18-9-11-19(12-10-18)28-25-20-5-3-4-6-21(20)26-16-27-25/h3-16H,1-2H3,(H,26,27,28)

>  <source>  (483) 
ChEMBL25

>  <source_id>  (483) 
25

>  <optional_reference>  (483) 
10.1016/j.ejmech.2016.03.067

>  <optional_origin>  (483) 
None

>  <target>  (483) 
BCRP

$$$$

     RDKit          2D

 31 34  0  0  0  0  0  0  0  0999 V2000
   -2.5835   -5.2544    0.0000 C   0  0  0  0  0  0  0  0  0  0  0  0
   -2.5870   -3.7544    0.0000 C   0  0  0  0  0  0  0  0  0  0  0  0
   -3.8880   -3.0076    0.0000 C   0  0  0  0  0  0  0  0  0  0  0  0
   -5.1852   -3.7608    0.0000 C   0  0  0  0  0  0  0  0  0  0  0  0
   -5.1815   -5.2608    0.0000 C   0  0  0  0  0  0  0  0  0  0  0  0
   -3.8807   -6.0076    0.0000 C   0  0  0  0  0  0  0  0  0  0  0  0
   -6.4883   -3.0162    0.0000 C   0  0  0  0  0  0  0  0  0  0  0  0
   -6.4933   -1.8162    0.0000 O   0  0  0  0  0  0  0  0  0  0  0  0
   -7.7852   -3.7717    0.0000 C   0  0  0  0  0  0  0  0  0  0  0  0
   -9.0883   -3.0271    0.0000 C   0  0  0  0  0  0  0  0  0  0  0  0
  -10.3851   -3.7825    0.0000 C   0  0  0  0  0  0  0  0  0  0  0  0
  -11.6886   -3.0403    0.0000 C   0  0  0  0  0  0  0  0  0  0  0  0
  -12.9832   -3.7979    0.0000 C   0  0  0  0  0  0  0  0  0  0  0  0
  -12.9744   -5.2979    0.0000 C   0  0  0  0  0  0  0  0  0  0  0  0
  -11.6709   -6.0402    0.0000 C   0  0  0  0  0  0  0  0  0  0  0  0
  -10.3763   -5.2826    0.0000 C   0  0  0  0  0  0  0  0  0  0  0  0
   -1.2907   -2.9981    0.0000 N   0  0  0  0  0  0  0  0  0  0  0  0
   -1.2964   -1.4973    0.0000 C   0  0  0  0  0  0  0  0  0  0  0  0
   -1.2964    1.4973    0.0000 N   0  0  0  0  0  0  0  0  0  0  0  0
   -2.6111    0.7486    0.0000 C   0  0  0  0  0  0  0  0  0  0  0  0
   -2.6111   -0.7486    0.0000 N   0  0  0  0  0  0  0  0  0  0  0  0
    0.0000    0.7486    0.0000 C   0  0  0  0  0  0  0  0  0  0  0  0
    0.0000   -0.7486    0.0000 C   0  0  0  0  0  0  0  0  0  0  0  0
    1.2964   -1.4973    0.0000 C   0  0  0  0  0  0  0  0  0  0  0  0
    2.5929   -0.7486    0.0000 C   0  0  0  0  0  0  0  0  0  0  0  0
    2.5929    0.7486    0.0000 C   0  0  0  0  0  0  0  0  0  0  0  0
    1.2964    1.4973    0.0000 C   0  0  0  0  0  0  0  0  0  0  0  0
  -14.2681   -6.0587    0.0000 O   0  0  0  0  0  0  0  0  0  0  0  0
  -14.2859   -3.0525    0.0000 O   0  0  0  0  0  0  0  0  0  0  0  0
  -14.2912   -1.8525    0.0000 C   0  0  0  0  0  0  0  0  0  0  0  0
  -14.2593   -7.2586    0.0000 C   0  0  0  0  0  0  0  0  0  0  0  0
  1  2  2  0
  2  3  1  0
  3  4  2  0
  4  5  1  0
  5  6  2  0
  6  1  1  0
  4  7  1  0
  7  8  2  0
  7  9  1  0
  9 10  2  3
 10 11  1  0
 11 12  2  0
 12 13  1  0
 13 14  2  0
 14 15  1  0
 15 16  2  0
 16 11  1  0
  2 17  1  0
 17 18  1  0
 18 23  2  0
 22 19  2  0
 19 20  1  0
 20 21  2  0
 21 18  1  0
 22 23  1  0
 23 24  1  0
 24 25  2  0
 25 26  1  0
 26 27  2  0
 27 22  1  0
 14 28  1  0
 13 29  1  0
 29 30  1  0
 28 31  1  0
M  END
>  <Classification>  (484) 
1

>  <pchembl>  (484) 
5.89

>  <InChI_steorem>  (484) 
InChI=1S/C25H21N3O3/c1-30-23-13-11-17(14-24(23)31-2)10-12-22(29)18-6-5-7-19(15-18)28-25-20-8-3-4-9-21(20)26-16-27-25/h3-16H,1-2H3,(H,26,27,28)

>  <source>  (484) 
ChEMBL25

>  <source_id>  (484) 
25

>  <optional_reference>  (484) 
10.1016/j.ejmech.2016.03.067

>  <optional_origin>  (484) 
None

>  <target>  (484) 
BCRP

$$$$

     RDKit          2D

 33 36  0  0  0  0  0  0  0  0999 V2000
   -2.5835   -5.2544    0.0000 C   0  0  0  0  0  0  0  0  0  0  0  0
   -2.5870   -3.7544    0.0000 C   0  0  0  0  0  0  0  0  0  0  0  0
   -3.8880   -3.0076    0.0000 C   0  0  0  0  0  0  0  0  0  0  0  0
   -5.1852   -3.7608    0.0000 C   0  0  0  0  0  0  0  0  0  0  0  0
   -5.1815   -5.2608    0.0000 C   0  0  0  0  0  0  0  0  0  0  0  0
   -3.8807   -6.0076    0.0000 C   0  0  0  0  0  0  0  0  0  0  0  0
   -1.2907   -2.9981    0.0000 N   0  0  0  0  0  0  0  0  0  0  0  0
   -1.2964   -1.4973    0.0000 C   0  0  0  0  0  0  0  0  0  0  0  0
   -1.2964    1.4973    0.0000 N   0  0  0  0  0  0  0  0  0  0  0  0
   -2.6111    0.7486    0.0000 C   0  0  0  0  0  0  0  0  0  0  0  0
   -2.6111   -0.7486    0.0000 N   0  0  0  0  0  0  0  0  0  0  0  0
    0.0000    0.7486    0.0000 C   0  0  0  0  0  0  0  0  0  0  0  0
    0.0000   -0.7486    0.0000 C   0  0  0  0  0  0  0  0  0  0  0  0
    1.2964   -1.4973    0.0000 C   0  0  0  0  0  0  0  0  0  0  0  0
    2.5929   -0.7486    0.0000 C   0  0  0  0  0  0  0  0  0  0  0  0
    2.5929    0.7486    0.0000 C   0  0  0  0  0  0  0  0  0  0  0  0
    1.2964    1.4973    0.0000 C   0  0  0  0  0  0  0  0  0  0  0  0
   -6.4779   -6.0170    0.0000 C   0  0  0  0  0  0  0  0  0  0  0  0
   -6.4721   -7.5179    0.0000 C   0  0  0  0  0  0  0  0  0  0  0  0
   -7.5196   -5.4214    0.0000 O   0  0  0  0  0  0  0  0  0  0  0  0
   -7.7685   -8.2741    0.0000 C   0  0  0  0  0  0  0  0  0  0  0  0
   -7.7626   -9.7749    0.0000 C   0  0  0  0  0  0  0  0  0  0  0  0
   -9.0572  -10.5327    0.0000 C   0  0  0  0  0  0  0  0  0  0  0  0
   -9.0484  -12.0326    0.0000 C   0  0  0  0  0  0  0  0  0  0  0  0
   -7.7449  -12.7750    0.0000 C   0  0  0  0  0  0  0  0  0  0  0  0
   -6.4503  -12.0173    0.0000 C   0  0  0  0  0  0  0  0  0  0  0  0
   -6.4592  -10.5173    0.0000 C   0  0  0  0  0  0  0  0  0  0  0  0
  -10.3421  -12.7934    0.0000 O   0  0  0  0  0  0  0  0  0  0  0  0
  -10.3333  -13.9934    0.0000 C   0  0  0  0  0  0  0  0  0  0  0  0
    3.8911   -1.5017    0.0000 O   0  0  0  0  0  0  0  0  0  0  0  0
    3.8894   -2.7017    0.0000 C   0  0  0  0  0  0  0  0  0  0  0  0
    3.8911    1.5017    0.0000 O   0  0  0  0  0  0  0  0  0  0  0  0
    3.8894    2.7017    0.0000 C   0  0  0  0  0  0  0  0  0  0  0  0
  1  2  2  0
  2  3  1  0
  3  4  2  0
  4  5  1  0
  5  6  2  0
  6  1  1  0
  2  7  1  0
  7  8  1  0
  8 13  2  0
 12  9  2  0
  9 10  1  0
 10 11  2  0
 11  8  1  0
 12 13  1  0
 13 14  1  0
 14 15  2  0
 15 16  1  0
 16 17  2  0
 17 12  1  0
  5 18  1  0
 18 19  1  0
 18 20  2  0
 19 21  2  3
 21 22  1  0
 22 23  2  0
 23 24  1  0
 24 25  2  0
 25 26  1  0
 26 27  2  0
 27 22  1  0
 24 28  1  0
 28 29  1  0
 15 30  1  0
 30 31  1  0
 16 32  1  0
 32 33  1  0
M  END
>  <Classification>  (485) 
1

>  <pchembl>  (485) 
6.41

>  <InChI_steorem>  (485) 
InChI=1S/C26H23N3O4/c1-31-20-6-4-5-17(13-20)7-12-23(30)18-8-10-19(11-9-18)29-26-21-14-24(32-2)25(33-3)15-22(21)27-16-28-26/h4-16H,1-3H3,(H,27,28,29)

>  <source>  (485) 
ChEMBL25

>  <source_id>  (485) 
25

>  <optional_reference>  (485) 
10.1016/j.ejmech.2016.03.067

>  <optional_origin>  (485) 
None

>  <target>  (485) 
BCRP

$$$$

     RDKit          2D

 33 36  0  0  0  0  0  0  0  0999 V2000
   -2.5835   -5.2544    0.0000 C   0  0  0  0  0  0  0  0  0  0  0  0
   -2.5870   -3.7544    0.0000 C   0  0  0  0  0  0  0  0  0  0  0  0
   -3.8880   -3.0076    0.0000 C   0  0  0  0  0  0  0  0  0  0  0  0
   -5.1852   -3.7608    0.0000 C   0  0  0  0  0  0  0  0  0  0  0  0
   -5.1815   -5.2608    0.0000 C   0  0  0  0  0  0  0  0  0  0  0  0
   -3.8807   -6.0076    0.0000 C   0  0  0  0  0  0  0  0  0  0  0  0
   -6.4883   -3.0162    0.0000 C   0  0  0  0  0  0  0  0  0  0  0  0
   -6.4933   -1.8162    0.0000 O   0  0  0  0  0  0  0  0  0  0  0  0
   -7.7852   -3.7717    0.0000 C   0  0  0  0  0  0  0  0  0  0  0  0
   -9.0883   -3.0271    0.0000 C   0  0  0  0  0  0  0  0  0  0  0  0
  -10.3851   -3.7825    0.0000 C   0  0  0  0  0  0  0  0  0  0  0  0
  -11.6886   -3.0403    0.0000 C   0  0  0  0  0  0  0  0  0  0  0  0
  -12.9832   -3.7979    0.0000 C   0  0  0  0  0  0  0  0  0  0  0  0
  -12.9744   -5.2979    0.0000 C   0  0  0  0  0  0  0  0  0  0  0  0
  -11.6709   -6.0402    0.0000 C   0  0  0  0  0  0  0  0  0  0  0  0
  -10.3763   -5.2826    0.0000 C   0  0  0  0  0  0  0  0  0  0  0  0
   -1.2907   -2.9981    0.0000 N   0  0  0  0  0  0  0  0  0  0  0  0
   -1.2964   -1.4973    0.0000 C   0  0  0  0  0  0  0  0  0  0  0  0
   -1.2964    1.4973    0.0000 N   0  0  0  0  0  0  0  0  0  0  0  0
   -2.6111    0.7486    0.0000 C   0  0  0  0  0  0  0  0  0  0  0  0
   -2.6111   -0.7486    0.0000 N   0  0  0  0  0  0  0  0  0  0  0  0
    0.0000    0.7486    0.0000 C   0  0  0  0  0  0  0  0  0  0  0  0
    0.0000   -0.7486    0.0000 C   0  0  0  0  0  0  0  0  0  0  0  0
    1.2964   -1.4973    0.0000 C   0  0  0  0  0  0  0  0  0  0  0  0
    2.5929   -0.7486    0.0000 C   0  0  0  0  0  0  0  0  0  0  0  0
    2.5929    0.7486    0.0000 C   0  0  0  0  0  0  0  0  0  0  0  0
    1.2964    1.4973    0.0000 C   0  0  0  0  0  0  0  0  0  0  0  0
  -14.2681   -6.0587    0.0000 O   0  0  0  0  0  0  0  0  0  0  0  0
  -14.2593   -7.2586    0.0000 C   0  0  0  0  0  0  0  0  0  0  0  0
    3.8911   -1.5017    0.0000 O   0  0  0  0  0  0  0  0  0  0  0  0
    3.8894   -2.7017    0.0000 C   0  0  0  0  0  0  0  0  0  0  0  0
    3.8911    1.5017    0.0000 O   0  0  0  0  0  0  0  0  0  0  0  0
    3.8894    2.7017    0.0000 C   0  0  0  0  0  0  0  0  0  0  0  0
  1  2  2  0
  2  3  1  0
  3  4  2  0
  4  5  1  0
  5  6  2  0
  6  1  1  0
  4  7  1  0
  7  8  2  0
  7  9  1  0
  9 10  2  3
 10 11  1  0
 11 12  2  0
 12 13  1  0
 13 14  2  0
 14 15  1  0
 15 16  2  0
 16 11  1  0
  2 17  1  0
 17 18  1  0
 18 23  2  0
 22 19  2  0
 19 20  1  0
 20 21  2  0
 21 18  1  0
 22 23  1  0
 23 24  1  0
 24 25  2  0
 25 26  1  0
 26 27  2  0
 27 22  1  0
 14 28  1  0
 28 29  1  0
 25 30  1  0
 30 31  1  0
 26 32  1  0
 32 33  1  0
M  END
>  <Classification>  (486) 
1

>  <pchembl>  (486) 
6.5

>  <InChI_steorem>  (486) 
InChI=1S/C26H23N3O4/c1-31-20-10-7-17(8-11-20)9-12-23(30)18-5-4-6-19(13-18)29-26-21-14-24(32-2)25(33-3)15-22(21)27-16-28-26/h4-16H,1-3H3,(H,27,28,29)

>  <source>  (486) 
ChEMBL25

>  <source_id>  (486) 
25

>  <optional_reference>  (486) 
10.1016/j.ejmech.2016.03.067

>  <optional_origin>  (486) 
None

>  <target>  (486) 
BCRP

$$$$

     RDKit          2D

 35 38  0  0  0  0  0  0  0  0999 V2000
   -2.5835   -5.2544    0.0000 C   0  0  0  0  0  0  0  0  0  0  0  0
   -2.5870   -3.7544    0.0000 C   0  0  0  0  0  0  0  0  0  0  0  0
   -3.8880   -3.0076    0.0000 C   0  0  0  0  0  0  0  0  0  0  0  0
   -5.1852   -3.7608    0.0000 C   0  0  0  0  0  0  0  0  0  0  0  0
   -5.1815   -5.2608    0.0000 C   0  0  0  0  0  0  0  0  0  0  0  0
   -3.8807   -6.0076    0.0000 C   0  0  0  0  0  0  0  0  0  0  0  0
   -1.2907   -2.9981    0.0000 N   0  0  0  0  0  0  0  0  0  0  0  0
   -1.2964   -1.4973    0.0000 C   0  0  0  0  0  0  0  0  0  0  0  0
   -1.2964    1.4973    0.0000 N   0  0  0  0  0  0  0  0  0  0  0  0
   -2.6111    0.7486    0.0000 C   0  0  0  0  0  0  0  0  0  0  0  0
   -2.6111   -0.7486    0.0000 N   0  0  0  0  0  0  0  0  0  0  0  0
    0.0000    0.7486    0.0000 C   0  0  0  0  0  0  0  0  0  0  0  0
    0.0000   -0.7486    0.0000 C   0  0  0  0  0  0  0  0  0  0  0  0
    1.2964   -1.4973    0.0000 C   0  0  0  0  0  0  0  0  0  0  0  0
    2.5929   -0.7486    0.0000 C   0  0  0  0  0  0  0  0  0  0  0  0
    2.5929    0.7486    0.0000 C   0  0  0  0  0  0  0  0  0  0  0  0
    1.2964    1.4973    0.0000 C   0  0  0  0  0  0  0  0  0  0  0  0
   -6.4779   -6.0170    0.0000 C   0  0  0  0  0  0  0  0  0  0  0  0
   -6.4721   -7.5179    0.0000 C   0  0  0  0  0  0  0  0  0  0  0  0
   -7.5196   -5.4214    0.0000 O   0  0  0  0  0  0  0  0  0  0  0  0
   -7.7685   -8.2741    0.0000 C   0  0  0  0  0  0  0  0  0  0  0  0
   -7.7626   -9.7749    0.0000 C   0  0  0  0  0  0  0  0  0  0  0  0
   -9.0572  -10.5327    0.0000 C   0  0  0  0  0  0  0  0  0  0  0  0
   -9.0484  -12.0326    0.0000 C   0  0  0  0  0  0  0  0  0  0  0  0
   -7.7449  -12.7750    0.0000 C   0  0  0  0  0  0  0  0  0  0  0  0
   -6.4503  -12.0173    0.0000 C   0  0  0  0  0  0  0  0  0  0  0  0
   -6.4592  -10.5173    0.0000 C   0  0  0  0  0  0  0  0  0  0  0  0
   -7.7330  -14.2758    0.0000 O   0  0  0  0  0  0  0  0  0  0  0  0
   -6.6894  -14.8681    0.0000 C   0  0  0  0  0  0  0  0  0  0  0  0
  -10.3452  -12.7881    0.0000 O   0  0  0  0  0  0  0  0  0  0  0  0
  -11.3871  -12.1927    0.0000 C   0  0  0  0  0  0  0  0  0  0  0  0
    3.8911   -1.5017    0.0000 O   0  0  0  0  0  0  0  0  0  0  0  0
    3.8894   -2.7017    0.0000 C   0  0  0  0  0  0  0  0  0  0  0  0
    3.8911    1.5017    0.0000 O   0  0  0  0  0  0  0  0  0  0  0  0
    3.8894    2.7017    0.0000 C   0  0  0  0  0  0  0  0  0  0  0  0
  1  2  2  0
  2  3  1  0
  3  4  2  0
  4  5  1  0
  5  6  2  0
  6  1  1  0
  2  7  1  0
  7  8  1  0
  8 13  2  0
 12  9  2  0
  9 10  1  0
 10 11  2  0
 11  8  1  0
 12 13  1  0
 13 14  1  0
 14 15  2  0
 15 16  1  0
 16 17  2  0
 17 12  1  0
  5 18  1  0
 18 19  1  0
 18 20  2  0
 19 21  2  3
 21 22  1  0
 22 23  2  0
 23 24  1  0
 24 25  2  0
 25 26  1  0
 26 27  2  0
 27 22  1  0
 25 28  1  0
 28 29  1  0
 24 30  1  0
 30 31  1  0
 15 32  1  0
 32 33  1  0
 16 34  1  0
 34 35  1  0
M  END
>  <Classification>  (487) 
1

>  <pchembl>  (487) 
5.91

>  <InChI_steorem>  (487) 
InChI=1S/C27H25N3O5/c1-32-23-12-6-17(13-24(23)33-2)5-11-22(31)18-7-9-19(10-8-18)30-27-20-14-25(34-3)26(35-4)15-21(20)28-16-29-27/h5-16H,1-4H3,(H,28,29,30)

>  <source>  (487) 
ChEMBL25

>  <source_id>  (487) 
25

>  <optional_reference>  (487) 
10.1016/j.ejmech.2016.03.067

>  <optional_origin>  (487) 
None

>  <target>  (487) 
BCRP

$$$$

     RDKit          2D

 35 38  0  0  0  0  0  0  0  0999 V2000
   -2.5835   -5.2544    0.0000 C   0  0  0  0  0  0  0  0  0  0  0  0
   -2.5870   -3.7544    0.0000 C   0  0  0  0  0  0  0  0  0  0  0  0
   -3.8880   -3.0076    0.0000 C   0  0  0  0  0  0  0  0  0  0  0  0
   -5.1852   -3.7608    0.0000 C   0  0  0  0  0  0  0  0  0  0  0  0
   -5.1815   -5.2608    0.0000 C   0  0  0  0  0  0  0  0  0  0  0  0
   -3.8807   -6.0076    0.0000 C   0  0  0  0  0  0  0  0  0  0  0  0
   -6.4883   -3.0162    0.0000 C   0  0  0  0  0  0  0  0  0  0  0  0
   -6.4933   -1.8162    0.0000 O   0  0  0  0  0  0  0  0  0  0  0  0
   -7.7852   -3.7717    0.0000 C   0  0  0  0  0  0  0  0  0  0  0  0
   -9.0883   -3.0271    0.0000 C   0  0  0  0  0  0  0  0  0  0  0  0
  -10.3851   -3.7825    0.0000 C   0  0  0  0  0  0  0  0  0  0  0  0
  -11.6886   -3.0403    0.0000 C   0  0  0  0  0  0  0  0  0  0  0  0
  -12.9832   -3.7979    0.0000 C   0  0  0  0  0  0  0  0  0  0  0  0
  -12.9744   -5.2979    0.0000 C   0  0  0  0  0  0  0  0  0  0  0  0
  -11.6709   -6.0402    0.0000 C   0  0  0  0  0  0  0  0  0  0  0  0
  -10.3763   -5.2826    0.0000 C   0  0  0  0  0  0  0  0  0  0  0  0
   -1.2907   -2.9981    0.0000 N   0  0  0  0  0  0  0  0  0  0  0  0
   -1.2964   -1.4973    0.0000 C   0  0  0  0  0  0  0  0  0  0  0  0
   -1.2964    1.4973    0.0000 N   0  0  0  0  0  0  0  0  0  0  0  0
   -2.6111    0.7486    0.0000 C   0  0  0  0  0  0  0  0  0  0  0  0
   -2.6111   -0.7486    0.0000 N   0  0  0  0  0  0  0  0  0  0  0  0
    0.0000    0.7486    0.0000 C   0  0  0  0  0  0  0  0  0  0  0  0
    0.0000   -0.7486    0.0000 C   0  0  0  0  0  0  0  0  0  0  0  0
    1.2964   -1.4973    0.0000 C   0  0  0  0  0  0  0  0  0  0  0  0
    2.5929   -0.7486    0.0000 C   0  0  0  0  0  0  0  0  0  0  0  0
    2.5929    0.7486    0.0000 C   0  0  0  0  0  0  0  0  0  0  0  0
    1.2964    1.4973    0.0000 C   0  0  0  0  0  0  0  0  0  0  0  0
  -14.2681   -6.0587    0.0000 O   0  0  0  0  0  0  0  0  0  0  0  0
  -14.2859   -3.0525    0.0000 O   0  0  0  0  0  0  0  0  0  0  0  0
  -14.2912   -1.8525    0.0000 C   0  0  0  0  0  0  0  0  0  0  0  0
  -14.2593   -7.2586    0.0000 C   0  0  0  0  0  0  0  0  0  0  0  0
    3.8911   -1.5017    0.0000 O   0  0  0  0  0  0  0  0  0  0  0  0
    3.8894   -2.7017    0.0000 C   0  0  0  0  0  0  0  0  0  0  0  0
    3.8911    1.5017    0.0000 O   0  0  0  0  0  0  0  0  0  0  0  0
    3.8894    2.7017    0.0000 C   0  0  0  0  0  0  0  0  0  0  0  0
  1  2  2  0
  2  3  1  0
  3  4  2  0
  4  5  1  0
  5  6  2  0
  6  1  1  0
  4  7  1  0
  7  8  2  0
  7  9  1  0
  9 10  2  3
 10 11  1  0
 11 12  2  0
 12 13  1  0
 13 14  2  0
 14 15  1  0
 15 16  2  0
 16 11  1  0
  2 17  1  0
 17 18  1  0
 18 23  2  0
 22 19  2  0
 19 20  1  0
 20 21  2  0
 21 18  1  0
 22 23  1  0
 23 24  1  0
 24 25  2  0
 25 26  1  0
 26 27  2  0
 27 22  1  0
 14 28  1  0
 13 29  1  0
 29 30  1  0
 28 31  1  0
 25 32  1  0
 32 33  1  0
 26 34  1  0
 34 35  1  0
M  END
>  <Classification>  (488) 
1

>  <pchembl>  (488) 
5.77

>  <InChI_steorem>  (488) 
InChI=1S/C27H25N3O5/c1-32-23-11-9-17(12-24(23)33-2)8-10-22(31)18-6-5-7-19(13-18)30-27-20-14-25(34-3)26(35-4)15-21(20)28-16-29-27/h5-16H,1-4H3,(H,28,29,30)

>  <source>  (488) 
ChEMBL25

>  <source_id>  (488) 
25

>  <optional_reference>  (488) 
10.1016/j.ejmech.2016.03.067

>  <optional_origin>  (488) 
None

>  <target>  (488) 
BCRP

$$$$

     RDKit          2D

 35 39  0  0  0  0  0  0  0  0999 V2000
   -2.5835   -5.2544    0.0000 C   0  0  0  0  0  0  0  0  0  0  0  0
   -2.5870   -3.7544    0.0000 C   0  0  0  0  0  0  0  0  0  0  0  0
   -3.8880   -3.0076    0.0000 C   0  0  0  0  0  0  0  0  0  0  0  0
   -5.1852   -3.7608    0.0000 C   0  0  0  0  0  0  0  0  0  0  0  0
   -5.1815   -5.2608    0.0000 C   0  0  0  0  0  0  0  0  0  0  0  0
   -3.8807   -6.0076    0.0000 C   0  0  0  0  0  0  0  0  0  0  0  0
   -6.4883   -3.0162    0.0000 C   0  0  0  0  0  0  0  0  0  0  0  0
   -6.4933   -1.8162    0.0000 O   0  0  0  0  0  0  0  0  0  0  0  0
   -7.7852   -3.7717    0.0000 C   0  0  0  0  0  0  0  0  0  0  0  0
   -9.0883   -3.0271    0.0000 C   0  0  0  0  0  0  0  0  0  0  0  0
  -10.3851   -3.7825    0.0000 C   0  0  0  0  0  0  0  0  0  0  0  0
  -11.6886   -3.0403    0.0000 C   0  0  0  0  0  0  0  0  0  0  0  0
  -12.9832   -3.7979    0.0000 C   0  0  0  0  0  0  0  0  0  0  0  0
  -12.9744   -5.2979    0.0000 C   0  0  0  0  0  0  0  0  0  0  0  0
  -11.6709   -6.0402    0.0000 C   0  0  0  0  0  0  0  0  0  0  0  0
  -10.3763   -5.2826    0.0000 C   0  0  0  0  0  0  0  0  0  0  0  0
   -1.2907   -2.9981    0.0000 N   0  0  0  0  0  0  0  0  0  0  0  0
   -1.2964   -1.4973    0.0000 C   0  0  0  0  0  0  0  0  0  0  0  0
   -1.2964    1.4973    0.0000 N   0  0  0  0  0  0  0  0  0  0  0  0
   -2.6111    0.7486    0.0000 C   0  0  0  0  0  0  0  0  0  0  0  0
   -2.6111   -0.7486    0.0000 N   0  0  0  0  0  0  0  0  0  0  0  0
    0.0000    0.7486    0.0000 C   0  0  0  0  0  0  0  0  0  0  0  0
    0.0000   -0.7486    0.0000 C   0  0  0  0  0  0  0  0  0  0  0  0
    1.2964   -1.4973    0.0000 C   0  0  0  0  0  0  0  0  0  0  0  0
    2.5929   -0.7486    0.0000 C   0  0  0  0  0  0  0  0  0  0  0  0
    2.5929    0.7486    0.0000 C   0  0  0  0  0  0  0  0  0  0  0  0
    1.2964    1.4973    0.0000 C   0  0  0  0  0  0  0  0  0  0  0  0
  -14.2681   -6.0587    0.0000 O   0  0  0  0  0  0  0  0  0  0  0  0
  -14.2593   -7.2586    0.0000 C   0  0  0  0  0  0  0  0  0  0  0  0
   -3.9086    1.5029    0.0000 C   0  0  0  0  0  0  0  0  0  0  0  0
   -5.2125    0.7617    0.0000 C   0  0  0  0  0  0  0  0  0  0  0  0
   -6.5065    1.5203    0.0000 C   0  0  0  0  0  0  0  0  0  0  0  0
   -6.4965    3.0203    0.0000 C   0  0  0  0  0  0  0  0  0  0  0  0
   -5.1925    3.7616    0.0000 C   0  0  0  0  0  0  0  0  0  0  0  0
   -3.8985    3.0029    0.0000 C   0  0  0  0  0  0  0  0  0  0  0  0
  1  2  2  0
  2  3  1  0
  3  4  2  0
  4  5  1  0
  5  6  2  0
  6  1  1  0
  4  7  1  0
  7  8  2  0
  7  9  1  0
  9 10  2  3
 10 11  1  0
 11 12  2  0
 12 13  1  0
 13 14  2  0
 14 15  1  0
 15 16  2  0
 16 11  1  0
  2 17  1  0
 17 18  1  0
 18 23  2  0
 22 19  2  0
 19 20  1  0
 20 21  2  0
 21 18  1  0
 22 23  1  0
 23 24  1  0
 24 25  2  0
 25 26  1  0
 26 27  2  0
 27 22  1  0
 14 28  1  0
 28 29  1  0
 20 30  1  0
 30 31  2  0
 31 32  1  0
 32 33  2  0
 33 34  1  0
 34 35  2  0
 35 30  1  0
M  END
>  <Classification>  (489) 
1

>  <pchembl>  (489) 
6.01

>  <InChI_steorem>  (489) 
InChI=1S/C30H23N3O2/c1-35-25-17-14-21(15-18-25)16-19-28(34)23-10-7-11-24(20-23)31-30-26-12-5-6-13-27(26)32-29(33-30)22-8-3-2-4-9-22/h2-20H,1H3,(H,31,32,33)

>  <source>  (489) 
ChEMBL25

>  <source_id>  (489) 
25

>  <optional_reference>  (489) 
10.1016/j.ejmech.2016.03.067

>  <optional_origin>  (489) 
None

>  <target>  (489) 
BCRP

$$$$

     RDKit          2D

 35 39  0  0  0  0  0  0  0  0999 V2000
   -2.5835   -5.2544    0.0000 C   0  0  0  0  0  0  0  0  0  0  0  0
   -2.5870   -3.7544    0.0000 C   0  0  0  0  0  0  0  0  0  0  0  0
   -3.8880   -3.0076    0.0000 C   0  0  0  0  0  0  0  0  0  0  0  0
   -5.1852   -3.7608    0.0000 C   0  0  0  0  0  0  0  0  0  0  0  0
   -5.1815   -5.2608    0.0000 C   0  0  0  0  0  0  0  0  0  0  0  0
   -3.8807   -6.0076    0.0000 C   0  0  0  0  0  0  0  0  0  0  0  0
   -6.4883   -3.0162    0.0000 C   0  0  0  0  0  0  0  0  0  0  0  0
   -6.4933   -1.8162    0.0000 O   0  0  0  0  0  0  0  0  0  0  0  0
   -7.7852   -3.7717    0.0000 C   0  0  0  0  0  0  0  0  0  0  0  0
   -9.0883   -3.0271    0.0000 C   0  0  0  0  0  0  0  0  0  0  0  0
  -10.3851   -3.7825    0.0000 C   0  0  0  0  0  0  0  0  0  0  0  0
  -11.6886   -3.0403    0.0000 C   0  0  0  0  0  0  0  0  0  0  0  0
  -12.9832   -3.7979    0.0000 C   0  0  0  0  0  0  0  0  0  0  0  0
  -12.9744   -5.2979    0.0000 C   0  0  0  0  0  0  0  0  0  0  0  0
  -11.6709   -6.0402    0.0000 C   0  0  0  0  0  0  0  0  0  0  0  0
  -10.3763   -5.2826    0.0000 C   0  0  0  0  0  0  0  0  0  0  0  0
   -1.2907   -2.9981    0.0000 N   0  0  0  0  0  0  0  0  0  0  0  0
   -1.2964   -1.4973    0.0000 C   0  0  0  0  0  0  0  0  0  0  0  0
   -1.2964    1.4973    0.0000 N   0  0  0  0  0  0  0  0  0  0  0  0
   -2.6111    0.7486    0.0000 C   0  0  0  0  0  0  0  0  0  0  0  0
   -2.6111   -0.7486    0.0000 N   0  0  0  0  0  0  0  0  0  0  0  0
    0.0000    0.7486    0.0000 C   0  0  0  0  0  0  0  0  0  0  0  0
    0.0000   -0.7486    0.0000 C   0  0  0  0  0  0  0  0  0  0  0  0
    1.2964   -1.4973    0.0000 C   0  0  0  0  0  0  0  0  0  0  0  0
    2.5929   -0.7486    0.0000 C   0  0  0  0  0  0  0  0  0  0  0  0
    2.5929    0.7486    0.0000 C   0  0  0  0  0  0  0  0  0  0  0  0
    1.2964    1.4973    0.0000 C   0  0  0  0  0  0  0  0  0  0  0  0
  -14.2889   -3.0579    0.0000 O   0  0  0  0  0  0  0  0  0  0  0  0
  -15.3237   -3.6655    0.0000 C   0  0  0  0  0  0  0  0  0  0  0  0
   -3.9086    1.5029    0.0000 C   0  0  0  0  0  0  0  0  0  0  0  0
   -5.2125    0.7617    0.0000 C   0  0  0  0  0  0  0  0  0  0  0  0
   -6.5065    1.5203    0.0000 C   0  0  0  0  0  0  0  0  0  0  0  0
   -6.4965    3.0203    0.0000 C   0  0  0  0  0  0  0  0  0  0  0  0
   -5.1925    3.7616    0.0000 C   0  0  0  0  0  0  0  0  0  0  0  0
   -3.8985    3.0029    0.0000 C   0  0  0  0  0  0  0  0  0  0  0  0
  1  2  2  0
  2  3  1  0
  3  4  2  0
  4  5  1  0
  5  6  2  0
  6  1  1  0
  4  7  1  0
  7  8  2  0
  7  9  1  0
  9 10  2  3
 10 11  1  0
 11 12  2  0
 12 13  1  0
 13 14  2  0
 14 15  1  0
 15 16  2  0
 16 11  1  0
  2 17  1  0
 17 18  1  0
 18 23  2  0
 22 19  2  0
 19 20  1  0
 20 21  2  0
 21 18  1  0
 22 23  1  0
 23 24  1  0
 24 25  2  0
 25 26  1  0
 26 27  2  0
 27 22  1  0
 13 28  1  0
 28 29  1  0
 20 30  1  0
 30 31  2  0
 31 32  1  0
 32 33  2  0
 33 34  1  0
 34 35  2  0
 35 30  1  0
M  END
>  <Classification>  (490) 
1

>  <pchembl>  (490) 
6.17

>  <InChI_steorem>  (490) 
InChI=1S/C30H23N3O2/c1-35-25-14-7-9-21(19-25)17-18-28(34)23-12-8-13-24(20-23)31-30-26-15-5-6-16-27(26)32-29(33-30)22-10-3-2-4-11-22/h2-20H,1H3,(H,31,32,33)

>  <source>  (490) 
ChEMBL25

>  <source_id>  (490) 
25

>  <optional_reference>  (490) 
10.1016/j.ejmech.2016.03.067

>  <optional_origin>  (490) 
None

>  <target>  (490) 
BCRP

$$$$

     RDKit          2D

 37 41  0  0  0  0  0  0  0  0999 V2000
   -2.5835   -5.2544    0.0000 C   0  0  0  0  0  0  0  0  0  0  0  0
   -2.5870   -3.7544    0.0000 C   0  0  0  0  0  0  0  0  0  0  0  0
   -3.8880   -3.0076    0.0000 C   0  0  0  0  0  0  0  0  0  0  0  0
   -5.1852   -3.7608    0.0000 C   0  0  0  0  0  0  0  0  0  0  0  0
   -5.1815   -5.2608    0.0000 C   0  0  0  0  0  0  0  0  0  0  0  0
   -3.8807   -6.0076    0.0000 C   0  0  0  0  0  0  0  0  0  0  0  0
   -6.4883   -3.0162    0.0000 C   0  0  0  0  0  0  0  0  0  0  0  0
   -6.4933   -1.8162    0.0000 O   0  0  0  0  0  0  0  0  0  0  0  0
   -7.7852   -3.7717    0.0000 C   0  0  0  0  0  0  0  0  0  0  0  0
   -9.0883   -3.0271    0.0000 C   0  0  0  0  0  0  0  0  0  0  0  0
  -10.3851   -3.7825    0.0000 C   0  0  0  0  0  0  0  0  0  0  0  0
  -11.6886   -3.0403    0.0000 C   0  0  0  0  0  0  0  0  0  0  0  0
  -12.9832   -3.7979    0.0000 C   0  0  0  0  0  0  0  0  0  0  0  0
  -12.9744   -5.2979    0.0000 C   0  0  0  0  0  0  0  0  0  0  0  0
  -11.6709   -6.0402    0.0000 C   0  0  0  0  0  0  0  0  0  0  0  0
  -10.3763   -5.2826    0.0000 C   0  0  0  0  0  0  0  0  0  0  0  0
   -1.2907   -2.9981    0.0000 N   0  0  0  0  0  0  0  0  0  0  0  0
   -1.2964   -1.4973    0.0000 C   0  0  0  0  0  0  0  0  0  0  0  0
   -1.2964    1.4973    0.0000 N   0  0  0  0  0  0  0  0  0  0  0  0
   -2.6111    0.7486    0.0000 C   0  0  0  0  0  0  0  0  0  0  0  0
   -2.6111   -0.7486    0.0000 N   0  0  0  0  0  0  0  0  0  0  0  0
    0.0000    0.7486    0.0000 C   0  0  0  0  0  0  0  0  0  0  0  0
    0.0000   -0.7486    0.0000 C   0  0  0  0  0  0  0  0  0  0  0  0
    1.2964   -1.4973    0.0000 C   0  0  0  0  0  0  0  0  0  0  0  0
    2.5929   -0.7486    0.0000 C   0  0  0  0  0  0  0  0  0  0  0  0
    2.5929    0.7486    0.0000 C   0  0  0  0  0  0  0  0  0  0  0  0
    1.2964    1.4973    0.0000 C   0  0  0  0  0  0  0  0  0  0  0  0
  -14.2681   -6.0587    0.0000 O   0  0  0  0  0  0  0  0  0  0  0  0
  -14.2859   -3.0525    0.0000 O   0  0  0  0  0  0  0  0  0  0  0  0
  -14.2912   -1.8525    0.0000 C   0  0  0  0  0  0  0  0  0  0  0  0
  -14.2593   -7.2586    0.0000 C   0  0  0  0  0  0  0  0  0  0  0  0
   -3.9086    1.5029    0.0000 C   0  0  0  0  0  0  0  0  0  0  0  0
   -5.2125    0.7617    0.0000 C   0  0  0  0  0  0  0  0  0  0  0  0
   -6.5065    1.5203    0.0000 C   0  0  0  0  0  0  0  0  0  0  0  0
   -6.4965    3.0203    0.0000 C   0  0  0  0  0  0  0  0  0  0  0  0
   -5.1925    3.7616    0.0000 C   0  0  0  0  0  0  0  0  0  0  0  0
   -3.8985    3.0029    0.0000 C   0  0  0  0  0  0  0  0  0  0  0  0
  1  2  2  0
  2  3  1  0
  3  4  2  0
  4  5  1  0
  5  6  2  0
  6  1  1  0
  4  7  1  0
  7  8  2  0
  7  9  1  0
  9 10  2  3
 10 11  1  0
 11 12  2  0
 12 13  1  0
 13 14  2  0
 14 15  1  0
 15 16  2  0
 16 11  1  0
  2 17  1  0
 17 18  1  0
 18 23  2  0
 22 19  2  0
 19 20  1  0
 20 21  2  0
 21 18  1  0
 22 23  1  0
 23 24  1  0
 24 25  2  0
 25 26  1  0
 26 27  2  0
 27 22  1  0
 14 28  1  0
 13 29  1  0
 29 30  1  0
 28 31  1  0
 20 32  1  0
 32 33  2  0
 33 34  1  0
 34 35  2  0
 35 36  1  0
 36 37  2  0
 37 32  1  0
M  END
>  <Classification>  (491) 
1

>  <pchembl>  (491) 
6.34

>  <InChI_steorem>  (491) 
InChI=1S/C31H25N3O3/c1-36-28-18-16-21(19-29(28)37-2)15-17-27(35)23-11-8-12-24(20-23)32-31-25-13-6-7-14-26(25)33-30(34-31)22-9-4-3-5-10-22/h3-20H,1-2H3,(H,32,33,34)

>  <source>  (491) 
ChEMBL25

>  <source_id>  (491) 
25

>  <optional_reference>  (491) 
10.1016/j.ejmech.2016.03.067

>  <optional_origin>  (491) 
None

>  <target>  (491) 
BCRP

$$$$

     RDKit          2D

 39 43  0  0  0  0  0  0  0  0999 V2000
   -2.5835   -5.2544    0.0000 C   0  0  0  0  0  0  0  0  0  0  0  0
   -2.5870   -3.7544    0.0000 C   0  0  0  0  0  0  0  0  0  0  0  0
   -3.8880   -3.0076    0.0000 C   0  0  0  0  0  0  0  0  0  0  0  0
   -5.1852   -3.7608    0.0000 C   0  0  0  0  0  0  0  0  0  0  0  0
   -5.1815   -5.2608    0.0000 C   0  0  0  0  0  0  0  0  0  0  0  0
   -3.8807   -6.0076    0.0000 C   0  0  0  0  0  0  0  0  0  0  0  0
   -6.4883   -3.0162    0.0000 C   0  0  0  0  0  0  0  0  0  0  0  0
   -6.4933   -1.8162    0.0000 O   0  0  0  0  0  0  0  0  0  0  0  0
   -7.7852   -3.7717    0.0000 C   0  0  0  0  0  0  0  0  0  0  0  0
   -9.0883   -3.0271    0.0000 C   0  0  0  0  0  0  0  0  0  0  0  0
  -10.3851   -3.7825    0.0000 C   0  0  0  0  0  0  0  0  0  0  0  0
  -11.6886   -3.0403    0.0000 C   0  0  0  0  0  0  0  0  0  0  0  0
  -12.9832   -3.7979    0.0000 C   0  0  0  0  0  0  0  0  0  0  0  0
  -12.9744   -5.2979    0.0000 C   0  0  0  0  0  0  0  0  0  0  0  0
  -11.6709   -6.0402    0.0000 C   0  0  0  0  0  0  0  0  0  0  0  0
  -10.3763   -5.2826    0.0000 C   0  0  0  0  0  0  0  0  0  0  0  0
   -1.2907   -2.9981    0.0000 N   0  0  0  0  0  0  0  0  0  0  0  0
   -1.2964   -1.4973    0.0000 C   0  0  0  0  0  0  0  0  0  0  0  0
   -1.2964    1.4973    0.0000 N   0  0  0  0  0  0  0  0  0  0  0  0
   -2.6111    0.7486    0.0000 C   0  0  0  0  0  0  0  0  0  0  0  0
   -2.6111   -0.7486    0.0000 N   0  0  0  0  0  0  0  0  0  0  0  0
    0.0000    0.7486    0.0000 C   0  0  0  0  0  0  0  0  0  0  0  0
    0.0000   -0.7486    0.0000 C   0  0  0  0  0  0  0  0  0  0  0  0
    1.2964   -1.4973    0.0000 C   0  0  0  0  0  0  0  0  0  0  0  0
    2.5929   -0.7486    0.0000 C   0  0  0  0  0  0  0  0  0  0  0  0
    2.5929    0.7486    0.0000 C   0  0  0  0  0  0  0  0  0  0  0  0
    1.2964    1.4973    0.0000 C   0  0  0  0  0  0  0  0  0  0  0  0
  -14.2681   -6.0587    0.0000 O   0  0  0  0  0  0  0  0  0  0  0  0
  -14.2593   -7.2586    0.0000 C   0  0  0  0  0  0  0  0  0  0  0  0
   -3.9086    1.5029    0.0000 C   0  0  0  0  0  0  0  0  0  0  0  0
   -5.2125    0.7617    0.0000 C   0  0  0  0  0  0  0  0  0  0  0  0
   -6.5065    1.5203    0.0000 C   0  0  0  0  0  0  0  0  0  0  0  0
   -6.4965    3.0203    0.0000 C   0  0  0  0  0  0  0  0  0  0  0  0
   -5.1925    3.7616    0.0000 C   0  0  0  0  0  0  0  0  0  0  0  0
   -3.8985    3.0029    0.0000 C   0  0  0  0  0  0  0  0  0  0  0  0
   -7.7897    3.7820    0.0000 O   0  0  0  0  0  0  0  0  0  0  0  0
   -7.7800    4.9820    0.0000 C   0  0  0  0  0  0  0  0  0  0  0  0
   -7.8098    0.7759    0.0000 O   0  0  0  0  0  0  0  0  0  0  0  0
   -7.8161   -0.4241    0.0000 C   0  0  0  0  0  0  0  0  0  0  0  0
  1  2  2  0
  2  3  1  0
  3  4  2  0
  4  5  1  0
  5  6  2  0
  6  1  1  0
  4  7  1  0
  7  8  2  0
  7  9  1  0
  9 10  2  3
 10 11  1  0
 11 12  2  0
 12 13  1  0
 13 14  2  0
 14 15  1  0
 15 16  2  0
 16 11  1  0
  2 17  1  0
 17 18  1  0
 18 23  2  0
 22 19  2  0
 19 20  1  0
 20 21  2  0
 21 18  1  0
 22 23  1  0
 23 24  1  0
 24 25  2  0
 25 26  1  0
 26 27  2  0
 27 22  1  0
 14 28  1  0
 28 29  1  0
 20 30  1  0
 30 31  2  0
 31 32  1  0
 32 33  2  0
 33 34  1  0
 34 35  2  0
 35 30  1  0
 33 36  1  0
 36 37  1  0
 32 38  1  0
 38 39  1  0
M  END
>  <Classification>  (492) 
1

>  <pchembl>  (492) 
6.68

>  <InChI_steorem>  (492) 
InChI=1S/C32H27N3O4/c1-37-25-15-11-21(12-16-25)13-17-28(36)22-7-6-8-24(19-22)33-32-26-9-4-5-10-27(26)34-31(35-32)23-14-18-29(38-2)30(20-23)39-3/h4-20H,1-3H3,(H,33,34,35)

>  <source>  (492) 
ChEMBL25

>  <source_id>  (492) 
25

>  <optional_reference>  (492) 
10.1016/j.ejmech.2016.03.067

>  <optional_origin>  (492) 
None

>  <target>  (492) 
BCRP

$$$$

     RDKit          2D

 39 43  0  0  0  0  0  0  0  0999 V2000
   -2.5835   -5.2544    0.0000 C   0  0  0  0  0  0  0  0  0  0  0  0
   -2.5870   -3.7544    0.0000 C   0  0  0  0  0  0  0  0  0  0  0  0
   -3.8880   -3.0076    0.0000 C   0  0  0  0  0  0  0  0  0  0  0  0
   -5.1852   -3.7608    0.0000 C   0  0  0  0  0  0  0  0  0  0  0  0
   -5.1815   -5.2608    0.0000 C   0  0  0  0  0  0  0  0  0  0  0  0
   -3.8807   -6.0076    0.0000 C   0  0  0  0  0  0  0  0  0  0  0  0
   -6.4883   -3.0162    0.0000 C   0  0  0  0  0  0  0  0  0  0  0  0
   -6.4933   -1.8162    0.0000 O   0  0  0  0  0  0  0  0  0  0  0  0
   -7.7852   -3.7717    0.0000 C   0  0  0  0  0  0  0  0  0  0  0  0
   -9.0883   -3.0271    0.0000 C   0  0  0  0  0  0  0  0  0  0  0  0
  -10.3851   -3.7825    0.0000 C   0  0  0  0  0  0  0  0  0  0  0  0
  -11.6886   -3.0403    0.0000 C   0  0  0  0  0  0  0  0  0  0  0  0
  -12.9832   -3.7979    0.0000 C   0  0  0  0  0  0  0  0  0  0  0  0
  -12.9744   -5.2979    0.0000 C   0  0  0  0  0  0  0  0  0  0  0  0
  -11.6709   -6.0402    0.0000 C   0  0  0  0  0  0  0  0  0  0  0  0
  -10.3763   -5.2826    0.0000 C   0  0  0  0  0  0  0  0  0  0  0  0
   -1.2907   -2.9981    0.0000 N   0  0  0  0  0  0  0  0  0  0  0  0
   -1.2964   -1.4973    0.0000 C   0  0  0  0  0  0  0  0  0  0  0  0
   -1.2964    1.4973    0.0000 N   0  0  0  0  0  0  0  0  0  0  0  0
   -2.6111    0.7486    0.0000 C   0  0  0  0  0  0  0  0  0  0  0  0
   -2.6111   -0.7486    0.0000 N   0  0  0  0  0  0  0  0  0  0  0  0
    0.0000    0.7486    0.0000 C   0  0  0  0  0  0  0  0  0  0  0  0
    0.0000   -0.7486    0.0000 C   0  0  0  0  0  0  0  0  0  0  0  0
    1.2964   -1.4973    0.0000 C   0  0  0  0  0  0  0  0  0  0  0  0
    2.5929   -0.7486    0.0000 C   0  0  0  0  0  0  0  0  0  0  0  0
    2.5929    0.7486    0.0000 C   0  0  0  0  0  0  0  0  0  0  0  0
    1.2964    1.4973    0.0000 C   0  0  0  0  0  0  0  0  0  0  0  0
  -14.2889   -3.0579    0.0000 O   0  0  0  0  0  0  0  0  0  0  0  0
  -15.3237   -3.6655    0.0000 C   0  0  0  0  0  0  0  0  0  0  0  0
   -3.9086    1.5029    0.0000 C   0  0  0  0  0  0  0  0  0  0  0  0
   -5.2125    0.7617    0.0000 C   0  0  0  0  0  0  0  0  0  0  0  0
   -6.5065    1.5203    0.0000 C   0  0  0  0  0  0  0  0  0  0  0  0
   -6.4965    3.0203    0.0000 C   0  0  0  0  0  0  0  0  0  0  0  0
   -5.1925    3.7616    0.0000 C   0  0  0  0  0  0  0  0  0  0  0  0
   -3.8985    3.0029    0.0000 C   0  0  0  0  0  0  0  0  0  0  0  0
   -7.7897    3.7820    0.0000 O   0  0  0  0  0  0  0  0  0  0  0  0
   -7.7800    4.9820    0.0000 C   0  0  0  0  0  0  0  0  0  0  0  0
   -7.8098    0.7759    0.0000 O   0  0  0  0  0  0  0  0  0  0  0  0
   -7.8161   -0.4241    0.0000 C   0  0  0  0  0  0  0  0  0  0  0  0
  1  2  2  0
  2  3  1  0
  3  4  2  0
  4  5  1  0
  5  6  2  0
  6  1  1  0
  4  7  1  0
  7  8  2  0
  7  9  1  0
  9 10  2  3
 10 11  1  0
 11 12  2  0
 12 13  1  0
 13 14  2  0
 14 15  1  0
 15 16  2  0
 16 11  1  0
  2 17  1  0
 17 18  1  0
 18 23  2  0
 22 19  2  0
 19 20  1  0
 20 21  2  0
 21 18  1  0
 22 23  1  0
 23 24  1  0
 24 25  2  0
 25 26  1  0
 26 27  2  0
 27 22  1  0
 13 28  1  0
 28 29  1  0
 20 30  1  0
 30 31  2  0
 31 32  1  0
 32 33  2  0
 33 34  1  0
 34 35  2  0
 35 30  1  0
 33 36  1  0
 36 37  1  0
 32 38  1  0
 38 39  1  0
M  END
>  <Classification>  (493) 
1

>  <pchembl>  (493) 
6.51

>  <InChI_steorem>  (493) 
InChI=1S/C32H27N3O4/c1-37-25-11-6-8-21(18-25)14-16-28(36)22-9-7-10-24(19-22)33-32-26-12-4-5-13-27(26)34-31(35-32)23-15-17-29(38-2)30(20-23)39-3/h4-20H,1-3H3,(H,33,34,35)

>  <source>  (493) 
ChEMBL25

>  <source_id>  (493) 
25

>  <optional_reference>  (493) 
10.1016/j.ejmech.2016.03.067

>  <optional_origin>  (493) 
None

>  <target>  (493) 
BCRP

$$$$

     RDKit          2D

 41 45  0  0  0  0  0  0  0  0999 V2000
   -2.5835   -5.2544    0.0000 C   0  0  0  0  0  0  0  0  0  0  0  0
   -2.5870   -3.7544    0.0000 C   0  0  0  0  0  0  0  0  0  0  0  0
   -3.8880   -3.0076    0.0000 C   0  0  0  0  0  0  0  0  0  0  0  0
   -5.1852   -3.7608    0.0000 C   0  0  0  0  0  0  0  0  0  0  0  0
   -5.1815   -5.2608    0.0000 C   0  0  0  0  0  0  0  0  0  0  0  0
   -3.8807   -6.0076    0.0000 C   0  0  0  0  0  0  0  0  0  0  0  0
   -6.4883   -3.0162    0.0000 C   0  0  0  0  0  0  0  0  0  0  0  0
   -6.4933   -1.8162    0.0000 O   0  0  0  0  0  0  0  0  0  0  0  0
   -7.7852   -3.7717    0.0000 C   0  0  0  0  0  0  0  0  0  0  0  0
   -9.0883   -3.0271    0.0000 C   0  0  0  0  0  0  0  0  0  0  0  0
  -10.3851   -3.7825    0.0000 C   0  0  0  0  0  0  0  0  0  0  0  0
  -11.6886   -3.0403    0.0000 C   0  0  0  0  0  0  0  0  0  0  0  0
  -12.9832   -3.7979    0.0000 C   0  0  0  0  0  0  0  0  0  0  0  0
  -12.9744   -5.2979    0.0000 C   0  0  0  0  0  0  0  0  0  0  0  0
  -11.6709   -6.0402    0.0000 C   0  0  0  0  0  0  0  0  0  0  0  0
  -10.3763   -5.2826    0.0000 C   0  0  0  0  0  0  0  0  0  0  0  0
   -1.2907   -2.9981    0.0000 N   0  0  0  0  0  0  0  0  0  0  0  0
   -1.2964   -1.4973    0.0000 C   0  0  0  0  0  0  0  0  0  0  0  0
   -1.2964    1.4973    0.0000 N   0  0  0  0  0  0  0  0  0  0  0  0
   -2.6111    0.7486    0.0000 C   0  0  0  0  0  0  0  0  0  0  0  0
   -2.6111   -0.7486    0.0000 N   0  0  0  0  0  0  0  0  0  0  0  0
    0.0000    0.7486    0.0000 C   0  0  0  0  0  0  0  0  0  0  0  0
    0.0000   -0.7486    0.0000 C   0  0  0  0  0  0  0  0  0  0  0  0
    1.2964   -1.4973    0.0000 C   0  0  0  0  0  0  0  0  0  0  0  0
    2.5929   -0.7486    0.0000 C   0  0  0  0  0  0  0  0  0  0  0  0
    2.5929    0.7486    0.0000 C   0  0  0  0  0  0  0  0  0  0  0  0
    1.2964    1.4973    0.0000 C   0  0  0  0  0  0  0  0  0  0  0  0
  -14.2681   -6.0587    0.0000 O   0  0  0  0  0  0  0  0  0  0  0  0
  -14.2859   -3.0525    0.0000 O   0  0  0  0  0  0  0  0  0  0  0  0
  -14.2912   -1.8525    0.0000 C   0  0  0  0  0  0  0  0  0  0  0  0
  -14.2593   -7.2586    0.0000 C   0  0  0  0  0  0  0  0  0  0  0  0
   -3.9086    1.5029    0.0000 C   0  0  0  0  0  0  0  0  0  0  0  0
   -5.2125    0.7617    0.0000 C   0  0  0  0  0  0  0  0  0  0  0  0
   -6.5065    1.5203    0.0000 C   0  0  0  0  0  0  0  0  0  0  0  0
   -6.4965    3.0203    0.0000 C   0  0  0  0  0  0  0  0  0  0  0  0
   -5.1925    3.7616    0.0000 C   0  0  0  0  0  0  0  0  0  0  0  0
   -3.8985    3.0029    0.0000 C   0  0  0  0  0  0  0  0  0  0  0  0
   -7.7897    3.7820    0.0000 O   0  0  0  0  0  0  0  0  0  0  0  0
   -7.7800    4.9820    0.0000 C   0  0  0  0  0  0  0  0  0  0  0  0
   -7.8098    0.7759    0.0000 O   0  0  0  0  0  0  0  0  0  0  0  0
   -7.8161   -0.4241    0.0000 C   0  0  0  0  0  0  0  0  0  0  0  0
  1  2  2  0
  2  3  1  0
  3  4  2  0
  4  5  1  0
  5  6  2  0
  6  1  1  0
  4  7  1  0
  7  8  2  0
  7  9  1  0
  9 10  2  3
 10 11  1  0
 11 12  2  0
 12 13  1  0
 13 14  2  0
 14 15  1  0
 15 16  2  0
 16 11  1  0
  2 17  1  0
 17 18  1  0
 18 23  2  0
 22 19  2  0
 19 20  1  0
 20 21  2  0
 21 18  1  0
 22 23  1  0
 23 24  1  0
 24 25  2  0
 25 26  1  0
 26 27  2  0
 27 22  1  0
 14 28  1  0
 13 29  1  0
 29 30  1  0
 28 31  1  0
 20 32  1  0
 32 33  2  0
 33 34  1  0
 34 35  2  0
 35 36  1  0
 36 37  2  0
 37 32  1  0
 35 38  1  0
 38 39  1  0
 34 40  1  0
 40 41  1  0
M  END
>  <Classification>  (494) 
1

>  <pchembl>  (494) 
6.22

>  <InChI_steorem>  (494) 
InChI=1S/C33H29N3O5/c1-38-28-16-13-21(18-30(28)40-3)12-15-27(37)22-8-7-9-24(19-22)34-33-25-10-5-6-11-26(25)35-32(36-33)23-14-17-29(39-2)31(20-23)41-4/h5-20H,1-4H3,(H,34,35,36)

>  <source>  (494) 
ChEMBL25

>  <source_id>  (494) 
25

>  <optional_reference>  (494) 
10.1016/j.ejmech.2016.03.067

>  <optional_origin>  (494) 
None

>  <target>  (494) 
BCRP

$$$$

     RDKit          2D

 33 37  0  0  0  0  0  0  0  0999 V2000
   -2.5835   -5.2544    0.0000 C   0  0  0  0  0  0  0  0  0  0  0  0
   -2.5870   -3.7544    0.0000 C   0  0  0  0  0  0  0  0  0  0  0  0
   -3.8880   -3.0076    0.0000 C   0  0  0  0  0  0  0  0  0  0  0  0
   -5.1852   -3.7608    0.0000 C   0  0  0  0  0  0  0  0  0  0  0  0
   -5.1815   -5.2608    0.0000 C   0  0  0  0  0  0  0  0  0  0  0  0
   -3.8807   -6.0076    0.0000 C   0  0  0  0  0  0  0  0  0  0  0  0
   -1.2907   -2.9981    0.0000 N   0  0  0  0  0  0  0  0  0  0  0  0
   -1.2964   -1.4973    0.0000 C   0  0  0  0  0  0  0  0  0  0  0  0
   -1.2964    1.4973    0.0000 N   0  0  0  0  0  0  0  0  0  0  0  0
   -2.6111    0.7486    0.0000 C   0  0  0  0  0  0  0  0  0  0  0  0
   -2.6111   -0.7486    0.0000 N   0  0  0  0  0  0  0  0  0  0  0  0
    0.0000    0.7486    0.0000 C   0  0  0  0  0  0  0  0  0  0  0  0
    0.0000   -0.7486    0.0000 C   0  0  0  0  0  0  0  0  0  0  0  0
    1.2964   -1.4973    0.0000 C   0  0  0  0  0  0  0  0  0  0  0  0
    2.5929   -0.7486    0.0000 C   0  0  0  0  0  0  0  0  0  0  0  0
    2.5929    0.7486    0.0000 C   0  0  0  0  0  0  0  0  0  0  0  0
    1.2964    1.4973    0.0000 C   0  0  0  0  0  0  0  0  0  0  0  0
   -6.4779   -6.0170    0.0000 C   0  0  0  0  0  0  0  0  0  0  0  0
   -6.4721   -7.5179    0.0000 C   0  0  0  0  0  0  0  0  0  0  0  0
   -7.5196   -5.4214    0.0000 O   0  0  0  0  0  0  0  0  0  0  0  0
   -7.7685   -8.2741    0.0000 C   0  0  0  0  0  0  0  0  0  0  0  0
   -7.7626   -9.7749    0.0000 C   0  0  0  0  0  0  0  0  0  0  0  0
   -9.0572  -10.5327    0.0000 C   0  0  0  0  0  0  0  0  0  0  0  0
   -9.0484  -12.0326    0.0000 C   0  0  0  0  0  0  0  0  0  0  0  0
   -7.7449  -12.7750    0.0000 C   0  0  0  0  0  0  0  0  0  0  0  0
   -6.4503  -12.0173    0.0000 C   0  0  0  0  0  0  0  0  0  0  0  0
   -6.4592  -10.5173    0.0000 C   0  0  0  0  0  0  0  0  0  0  0  0
   -3.9086    1.5029    0.0000 C   0  0  0  0  0  0  0  0  0  0  0  0
   -5.2125    0.7617    0.0000 C   0  0  0  0  0  0  0  0  0  0  0  0
   -6.5065    1.5203    0.0000 C   0  0  0  0  0  0  0  0  0  0  0  0
   -6.4965    3.0203    0.0000 C   0  0  0  0  0  0  0  0  0  0  0  0
   -5.1925    3.7616    0.0000 C   0  0  0  0  0  0  0  0  0  0  0  0
   -3.8985    3.0029    0.0000 C   0  0  0  0  0  0  0  0  0  0  0  0
  1  2  2  0
  2  3  1  0
  3  4  2  0
  4  5  1  0
  5  6  2  0
  6  1  1  0
  2  7  1  0
  7  8  1  0
  8 13  2  0
 12  9  2  0
  9 10  1  0
 10 11  2  0
 11  8  1  0
 12 13  1  0
 13 14  1  0
 14 15  2  0
 15 16  1  0
 16 17  2  0
 17 12  1  0
  5 18  1  0
 18 19  1  0
 18 20  2  0
 19 21  2  3
 21 22  1  0
 22 23  2  0
 23 24  1  0
 24 25  2  0
 25 26  1  0
 26 27  2  0
 27 22  1  0
 10 28  1  0
 28 29  2  0
 29 30  1  0
 30 31  2  0
 31 32  1  0
 32 33  2  0
 33 28  1  0
M  END
>  <Classification>  (495) 
1

>  <pchembl>  (495) 
6.04

>  <InChI_steorem>  (495) 
InChI=1S/C29H21N3O/c33-27(20-15-21-9-3-1-4-10-21)22-16-18-24(19-17-22)30-29-25-13-7-8-14-26(25)31-28(32-29)23-11-5-2-6-12-23/h1-20H,(H,30,31,32)

>  <source>  (495) 
ChEMBL25

>  <source_id>  (495) 
25

>  <optional_reference>  (495) 
10.1016/j.ejmech.2016.03.067

>  <optional_origin>  (495) 
None

>  <target>  (495) 
BCRP

$$$$

     RDKit          2D

 35 39  0  0  0  0  0  0  0  0999 V2000
   -2.5835   -5.2544    0.0000 C   0  0  0  0  0  0  0  0  0  0  0  0
   -2.5870   -3.7544    0.0000 C   0  0  0  0  0  0  0  0  0  0  0  0
   -3.8880   -3.0076    0.0000 C   0  0  0  0  0  0  0  0  0  0  0  0
   -5.1852   -3.7608    0.0000 C   0  0  0  0  0  0  0  0  0  0  0  0
   -5.1815   -5.2608    0.0000 C   0  0  0  0  0  0  0  0  0  0  0  0
   -3.8807   -6.0076    0.0000 C   0  0  0  0  0  0  0  0  0  0  0  0
   -1.2907   -2.9981    0.0000 N   0  0  0  0  0  0  0  0  0  0  0  0
   -1.2964   -1.4973    0.0000 C   0  0  0  0  0  0  0  0  0  0  0  0
   -1.2964    1.4973    0.0000 N   0  0  0  0  0  0  0  0  0  0  0  0
   -2.6111    0.7486    0.0000 C   0  0  0  0  0  0  0  0  0  0  0  0
   -2.6111   -0.7486    0.0000 N   0  0  0  0  0  0  0  0  0  0  0  0
    0.0000    0.7486    0.0000 C   0  0  0  0  0  0  0  0  0  0  0  0
    0.0000   -0.7486    0.0000 C   0  0  0  0  0  0  0  0  0  0  0  0
    1.2964   -1.4973    0.0000 C   0  0  0  0  0  0  0  0  0  0  0  0
    2.5929   -0.7486    0.0000 C   0  0  0  0  0  0  0  0  0  0  0  0
    2.5929    0.7486    0.0000 C   0  0  0  0  0  0  0  0  0  0  0  0
    1.2964    1.4973    0.0000 C   0  0  0  0  0  0  0  0  0  0  0  0
   -6.4779   -6.0170    0.0000 C   0  0  0  0  0  0  0  0  0  0  0  0
   -6.4721   -7.5179    0.0000 C   0  0  0  0  0  0  0  0  0  0  0  0
   -7.5196   -5.4214    0.0000 O   0  0  0  0  0  0  0  0  0  0  0  0
   -7.7685   -8.2741    0.0000 C   0  0  0  0  0  0  0  0  0  0  0  0
   -7.7626   -9.7749    0.0000 C   0  0  0  0  0  0  0  0  0  0  0  0
   -9.0572  -10.5327    0.0000 C   0  0  0  0  0  0  0  0  0  0  0  0
   -9.0484  -12.0326    0.0000 C   0  0  0  0  0  0  0  0  0  0  0  0
   -7.7449  -12.7750    0.0000 C   0  0  0  0  0  0  0  0  0  0  0  0
   -6.4503  -12.0173    0.0000 C   0  0  0  0  0  0  0  0  0  0  0  0
   -6.4592  -10.5173    0.0000 C   0  0  0  0  0  0  0  0  0  0  0  0
  -10.3421  -12.7934    0.0000 O   0  0  0  0  0  0  0  0  0  0  0  0
  -10.3333  -13.9934    0.0000 C   0  0  0  0  0  0  0  0  0  0  0  0
   -3.9086    1.5029    0.0000 C   0  0  0  0  0  0  0  0  0  0  0  0
   -5.2125    0.7617    0.0000 C   0  0  0  0  0  0  0  0  0  0  0  0
   -6.5065    1.5203    0.0000 C   0  0  0  0  0  0  0  0  0  0  0  0
   -6.4965    3.0203    0.0000 C   0  0  0  0  0  0  0  0  0  0  0  0
   -5.1925    3.7616    0.0000 C   0  0  0  0  0  0  0  0  0  0  0  0
   -3.8985    3.0029    0.0000 C   0  0  0  0  0  0  0  0  0  0  0  0
  1  2  2  0
  2  3  1  0
  3  4  2  0
  4  5  1  0
  5  6  2  0
  6  1  1  0
  2  7  1  0
  7  8  1  0
  8 13  2  0
 12  9  2  0
  9 10  1  0
 10 11  2  0
 11  8  1  0
 12 13  1  0
 13 14  1  0
 14 15  2  0
 15 16  1  0
 16 17  2  0
 17 12  1  0
  5 18  1  0
 18 19  1  0
 18 20  2  0
 19 21  2  3
 21 22  1  0
 22 23  2  0
 23 24  1  0
 24 25  2  0
 25 26  1  0
 26 27  2  0
 27 22  1  0
 24 28  1  0
 28 29  1  0
 10 30  1  0
 30 31  2  0
 31 32  1  0
 32 33  2  0
 33 34  1  0
 34 35  2  0
 35 30  1  0
M  END
>  <Classification>  (496) 
1

>  <pchembl>  (496) 
6.06

>  <InChI_steorem>  (496) 
InChI=1S/C30H23N3O2/c1-35-25-11-7-8-21(20-25)14-19-28(34)22-15-17-24(18-16-22)31-30-26-12-5-6-13-27(26)32-29(33-30)23-9-3-2-4-10-23/h2-20H,1H3,(H,31,32,33)

>  <source>  (496) 
ChEMBL25

>  <source_id>  (496) 
25

>  <optional_reference>  (496) 
10.1016/j.ejmech.2016.03.067

>  <optional_origin>  (496) 
None

>  <target>  (496) 
BCRP

$$$$

     RDKit          2D

 35 39  0  0  0  0  0  0  0  0999 V2000
   -2.5835   -5.2544    0.0000 C   0  0  0  0  0  0  0  0  0  0  0  0
   -2.5870   -3.7544    0.0000 C   0  0  0  0  0  0  0  0  0  0  0  0
   -3.8880   -3.0076    0.0000 C   0  0  0  0  0  0  0  0  0  0  0  0
   -5.1852   -3.7608    0.0000 C   0  0  0  0  0  0  0  0  0  0  0  0
   -5.1815   -5.2608    0.0000 C   0  0  0  0  0  0  0  0  0  0  0  0
   -3.8807   -6.0076    0.0000 C   0  0  0  0  0  0  0  0  0  0  0  0
   -1.2907   -2.9981    0.0000 N   0  0  0  0  0  0  0  0  0  0  0  0
   -1.2964   -1.4973    0.0000 C   0  0  0  0  0  0  0  0  0  0  0  0
   -1.2964    1.4973    0.0000 N   0  0  0  0  0  0  0  0  0  0  0  0
   -2.6111    0.7486    0.0000 C   0  0  0  0  0  0  0  0  0  0  0  0
   -2.6111   -0.7486    0.0000 N   0  0  0  0  0  0  0  0  0  0  0  0
    0.0000    0.7486    0.0000 C   0  0  0  0  0  0  0  0  0  0  0  0
    0.0000   -0.7486    0.0000 C   0  0  0  0  0  0  0  0  0  0  0  0
    1.2964   -1.4973    0.0000 C   0  0  0  0  0  0  0  0  0  0  0  0
    2.5929   -0.7486    0.0000 C   0  0  0  0  0  0  0  0  0  0  0  0
    2.5929    0.7486    0.0000 C   0  0  0  0  0  0  0  0  0  0  0  0
    1.2964    1.4973    0.0000 C   0  0  0  0  0  0  0  0  0  0  0  0
   -6.4779   -6.0170    0.0000 C   0  0  0  0  0  0  0  0  0  0  0  0
   -6.4721   -7.5179    0.0000 C   0  0  0  0  0  0  0  0  0  0  0  0
   -7.5196   -5.4214    0.0000 O   0  0  0  0  0  0  0  0  0  0  0  0
   -7.7685   -8.2741    0.0000 C   0  0  0  0  0  0  0  0  0  0  0  0
   -7.7626   -9.7749    0.0000 C   0  0  0  0  0  0  0  0  0  0  0  0
   -9.0572  -10.5327    0.0000 C   0  0  0  0  0  0  0  0  0  0  0  0
   -9.0484  -12.0326    0.0000 C   0  0  0  0  0  0  0  0  0  0  0  0
   -7.7449  -12.7750    0.0000 C   0  0  0  0  0  0  0  0  0  0  0  0
   -6.4503  -12.0173    0.0000 C   0  0  0  0  0  0  0  0  0  0  0  0
   -6.4592  -10.5173    0.0000 C   0  0  0  0  0  0  0  0  0  0  0  0
   -7.7330  -14.2758    0.0000 O   0  0  0  0  0  0  0  0  0  0  0  0
   -6.6894  -14.8681    0.0000 C   0  0  0  0  0  0  0  0  0  0  0  0
   -3.9086    1.5029    0.0000 C   0  0  0  0  0  0  0  0  0  0  0  0
   -5.2125    0.7617    0.0000 C   0  0  0  0  0  0  0  0  0  0  0  0
   -6.5065    1.5203    0.0000 C   0  0  0  0  0  0  0  0  0  0  0  0
   -6.4965    3.0203    0.0000 C   0  0  0  0  0  0  0  0  0  0  0  0
   -5.1925    3.7616    0.0000 C   0  0  0  0  0  0  0  0  0  0  0  0
   -3.8985    3.0029    0.0000 C   0  0  0  0  0  0  0  0  0  0  0  0
  1  2  2  0
  2  3  1  0
  3  4  2  0
  4  5  1  0
  5  6  2  0
  6  1  1  0
  2  7  1  0
  7  8  1  0
  8 13  2  0
 12  9  2  0
  9 10  1  0
 10 11  2  0
 11  8  1  0
 12 13  1  0
 13 14  1  0
 14 15  2  0
 15 16  1  0
 16 17  2  0
 17 12  1  0
  5 18  1  0
 18 19  1  0
 18 20  2  0
 19 21  2  3
 21 22  1  0
 22 23  2  0
 23 24  1  0
 24 25  2  0
 25 26  1  0
 26 27  2  0
 27 22  1  0
 25 28  1  0
 28 29  1  0
 10 30  1  0
 30 31  2  0
 31 32  1  0
 32 33  2  0
 33 34  1  0
 34 35  2  0
 35 30  1  0
M  END
>  <Classification>  (497) 
1

>  <pchembl>  (497) 
5.45

>  <InChI_steorem>  (497) 
InChI=1S/C30H23N3O2/c1-35-25-18-11-21(12-19-25)13-20-28(34)22-14-16-24(17-15-22)31-30-26-9-5-6-10-27(26)32-29(33-30)23-7-3-2-4-8-23/h2-20H,1H3,(H,31,32,33)

>  <source>  (497) 
ChEMBL25

>  <source_id>  (497) 
25

>  <optional_reference>  (497) 
10.1016/j.ejmech.2016.03.067

>  <optional_origin>  (497) 
None

>  <target>  (497) 
BCRP

$$$$

     RDKit          2D

 37 41  0  0  0  0  0  0  0  0999 V2000
   -2.5835   -5.2544    0.0000 C   0  0  0  0  0  0  0  0  0  0  0  0
   -2.5870   -3.7544    0.0000 C   0  0  0  0  0  0  0  0  0  0  0  0
   -3.8880   -3.0076    0.0000 C   0  0  0  0  0  0  0  0  0  0  0  0
   -5.1852   -3.7608    0.0000 C   0  0  0  0  0  0  0  0  0  0  0  0
   -5.1815   -5.2608    0.0000 C   0  0  0  0  0  0  0  0  0  0  0  0
   -3.8807   -6.0076    0.0000 C   0  0  0  0  0  0  0  0  0  0  0  0
   -1.2907   -2.9981    0.0000 N   0  0  0  0  0  0  0  0  0  0  0  0
   -1.2964   -1.4973    0.0000 C   0  0  0  0  0  0  0  0  0  0  0  0
   -1.2964    1.4973    0.0000 N   0  0  0  0  0  0  0  0  0  0  0  0
   -2.6111    0.7486    0.0000 C   0  0  0  0  0  0  0  0  0  0  0  0
   -2.6111   -0.7486    0.0000 N   0  0  0  0  0  0  0  0  0  0  0  0
    0.0000    0.7486    0.0000 C   0  0  0  0  0  0  0  0  0  0  0  0
    0.0000   -0.7486    0.0000 C   0  0  0  0  0  0  0  0  0  0  0  0
    1.2964   -1.4973    0.0000 C   0  0  0  0  0  0  0  0  0  0  0  0
    2.5929   -0.7486    0.0000 C   0  0  0  0  0  0  0  0  0  0  0  0
    2.5929    0.7486    0.0000 C   0  0  0  0  0  0  0  0  0  0  0  0
    1.2964    1.4973    0.0000 C   0  0  0  0  0  0  0  0  0  0  0  0
   -6.4779   -6.0170    0.0000 C   0  0  0  0  0  0  0  0  0  0  0  0
   -6.4721   -7.5179    0.0000 C   0  0  0  0  0  0  0  0  0  0  0  0
   -7.5196   -5.4214    0.0000 O   0  0  0  0  0  0  0  0  0  0  0  0
   -7.7685   -8.2741    0.0000 C   0  0  0  0  0  0  0  0  0  0  0  0
   -7.7626   -9.7749    0.0000 C   0  0  0  0  0  0  0  0  0  0  0  0
   -9.0572  -10.5327    0.0000 C   0  0  0  0  0  0  0  0  0  0  0  0
   -9.0484  -12.0326    0.0000 C   0  0  0  0  0  0  0  0  0  0  0  0
   -7.7449  -12.7750    0.0000 C   0  0  0  0  0  0  0  0  0  0  0  0
   -6.4503  -12.0173    0.0000 C   0  0  0  0  0  0  0  0  0  0  0  0
   -6.4592  -10.5173    0.0000 C   0  0  0  0  0  0  0  0  0  0  0  0
   -3.9086    1.5029    0.0000 C   0  0  0  0  0  0  0  0  0  0  0  0
   -5.2125    0.7617    0.0000 C   0  0  0  0  0  0  0  0  0  0  0  0
   -6.5065    1.5203    0.0000 C   0  0  0  0  0  0  0  0  0  0  0  0
   -6.4965    3.0203    0.0000 C   0  0  0  0  0  0  0  0  0  0  0  0
   -5.1925    3.7616    0.0000 C   0  0  0  0  0  0  0  0  0  0  0  0
   -3.8985    3.0029    0.0000 C   0  0  0  0  0  0  0  0  0  0  0  0
   -7.7897    3.7820    0.0000 O   0  0  0  0  0  0  0  0  0  0  0  0
   -7.7800    4.9820    0.0000 C   0  0  0  0  0  0  0  0  0  0  0  0
   -7.8098    0.7759    0.0000 O   0  0  0  0  0  0  0  0  0  0  0  0
   -7.8161   -0.4241    0.0000 C   0  0  0  0  0  0  0  0  0  0  0  0
  1  2  2  0
  2  3  1  0
  3  4  2  0
  4  5  1  0
  5  6  2  0
  6  1  1  0
  2  7  1  0
  7  8  1  0
  8 13  2  0
 12  9  2  0
  9 10  1  0
 10 11  2  0
 11  8  1  0
 12 13  1  0
 13 14  1  0
 14 15  2  0
 15 16  1  0
 16 17  2  0
 17 12  1  0
  5 18  1  0
 18 19  1  0
 18 20  2  0
 19 21  2  3
 21 22  1  0
 22 23  2  0
 23 24  1  0
 24 25  2  0
 25 26  1  0
 26 27  2  0
 27 22  1  0
 10 28  1  0
 28 29  2  0
 29 30  1  0
 30 31  2  0
 31 32  1  0
 32 33  2  0
 33 28  1  0
 31 34  1  0
 34 35  1  0
 30 36  1  0
 36 37  1  0
M  END
>  <Classification>  (498) 
1

>  <pchembl>  (498) 
5.96

>  <InChI_steorem>  (498) 
InChI=1S/C31H25N3O3/c1-36-28-19-15-23(20-29(28)37-2)30-33-26-11-7-6-10-25(26)31(34-30)32-24-16-13-22(14-17-24)27(35)18-12-21-8-4-3-5-9-21/h3-20H,1-2H3,(H,32,33,34)

>  <source>  (498) 
ChEMBL25

>  <source_id>  (498) 
25

>  <optional_reference>  (498) 
10.1016/j.ejmech.2016.03.067

>  <optional_origin>  (498) 
None

>  <target>  (498) 
BCRP

$$$$

     RDKit          2D

 37 41  0  0  0  0  0  0  0  0999 V2000
   -2.5835   -5.2544    0.0000 C   0  0  0  0  0  0  0  0  0  0  0  0
   -2.5870   -3.7544    0.0000 C   0  0  0  0  0  0  0  0  0  0  0  0
   -3.8880   -3.0076    0.0000 C   0  0  0  0  0  0  0  0  0  0  0  0
   -5.1852   -3.7608    0.0000 C   0  0  0  0  0  0  0  0  0  0  0  0
   -5.1815   -5.2608    0.0000 C   0  0  0  0  0  0  0  0  0  0  0  0
   -3.8807   -6.0076    0.0000 C   0  0  0  0  0  0  0  0  0  0  0  0
   -1.2907   -2.9981    0.0000 N   0  0  0  0  0  0  0  0  0  0  0  0
   -1.2964   -1.4973    0.0000 C   0  0  0  0  0  0  0  0  0  0  0  0
   -1.2964    1.4973    0.0000 N   0  0  0  0  0  0  0  0  0  0  0  0
   -2.6111    0.7486    0.0000 C   0  0  0  0  0  0  0  0  0  0  0  0
   -2.6111   -0.7486    0.0000 N   0  0  0  0  0  0  0  0  0  0  0  0
    0.0000    0.7486    0.0000 C   0  0  0  0  0  0  0  0  0  0  0  0
    0.0000   -0.7486    0.0000 C   0  0  0  0  0  0  0  0  0  0  0  0
    1.2964   -1.4973    0.0000 C   0  0  0  0  0  0  0  0  0  0  0  0
    2.5929   -0.7486    0.0000 C   0  0  0  0  0  0  0  0  0  0  0  0
    2.5929    0.7486    0.0000 C   0  0  0  0  0  0  0  0  0  0  0  0
    1.2964    1.4973    0.0000 C   0  0  0  0  0  0  0  0  0  0  0  0
   -6.4779   -6.0170    0.0000 C   0  0  0  0  0  0  0  0  0  0  0  0
   -6.4721   -7.5179    0.0000 C   0  0  0  0  0  0  0  0  0  0  0  0
   -7.5196   -5.4214    0.0000 O   0  0  0  0  0  0  0  0  0  0  0  0
   -7.7685   -8.2741    0.0000 C   0  0  0  0  0  0  0  0  0  0  0  0
   -7.7626   -9.7749    0.0000 C   0  0  0  0  0  0  0  0  0  0  0  0
   -9.0572  -10.5327    0.0000 C   0  0  0  0  0  0  0  0  0  0  0  0
   -9.0484  -12.0326    0.0000 C   0  0  0  0  0  0  0  0  0  0  0  0
   -7.7449  -12.7750    0.0000 C   0  0  0  0  0  0  0  0  0  0  0  0
   -6.4503  -12.0173    0.0000 C   0  0  0  0  0  0  0  0  0  0  0  0
   -6.4592  -10.5173    0.0000 C   0  0  0  0  0  0  0  0  0  0  0  0
   -7.7330  -14.2758    0.0000 O   0  0  0  0  0  0  0  0  0  0  0  0
   -6.6894  -14.8681    0.0000 C   0  0  0  0  0  0  0  0  0  0  0  0
  -10.3452  -12.7881    0.0000 O   0  0  0  0  0  0  0  0  0  0  0  0
  -11.3871  -12.1927    0.0000 C   0  0  0  0  0  0  0  0  0  0  0  0
   -3.9086    1.5029    0.0000 C   0  0  0  0  0  0  0  0  0  0  0  0
   -5.2125    0.7617    0.0000 C   0  0  0  0  0  0  0  0  0  0  0  0
   -6.5065    1.5203    0.0000 C   0  0  0  0  0  0  0  0  0  0  0  0
   -6.4965    3.0203    0.0000 C   0  0  0  0  0  0  0  0  0  0  0  0
   -5.1925    3.7616    0.0000 C   0  0  0  0  0  0  0  0  0  0  0  0
   -3.8985    3.0029    0.0000 C   0  0  0  0  0  0  0  0  0  0  0  0
  1  2  2  0
  2  3  1  0
  3  4  2  0
  4  5  1  0
  5  6  2  0
  6  1  1  0
  2  7  1  0
  7  8  1  0
  8 13  2  0
 12  9  2  0
  9 10  1  0
 10 11  2  0
 11  8  1  0
 12 13  1  0
 13 14  1  0
 14 15  2  0
 15 16  1  0
 16 17  2  0
 17 12  1  0
  5 18  1  0
 18 19  1  0
 18 20  2  0
 19 21  2  3
 21 22  1  0
 22 23  2  0
 23 24  1  0
 24 25  2  0
 25 26  1  0
 26 27  2  0
 27 22  1  0
 25 28  1  0
 28 29  1  0
 24 30  1  0
 30 31  1  0
 10 32  1  0
 32 33  2  0
 33 34  1  0
 34 35  2  0
 35 36  1  0
 36 37  2  0
 37 32  1  0
M  END
>  <Classification>  (499) 
1

>  <pchembl>  (499) 
6.54

>  <InChI_steorem>  (499) 
InChI=1S/C31H25N3O3/c1-36-28-19-13-21(20-29(28)37-2)12-18-27(35)22-14-16-24(17-15-22)32-31-25-10-6-7-11-26(25)33-30(34-31)23-8-4-3-5-9-23/h3-20H,1-2H3,(H,32,33,34)

>  <source>  (499) 
ChEMBL25

>  <source_id>  (499) 
25

>  <optional_reference>  (499) 
10.1016/j.ejmech.2016.03.067

>  <optional_origin>  (499) 
None

>  <target>  (499) 
BCRP

$$$$

     RDKit          2D

 39 43  0  0  0  0  0  0  0  0999 V2000
   -2.5835   -5.2544    0.0000 C   0  0  0  0  0  0  0  0  0  0  0  0
   -2.5870   -3.7544    0.0000 C   0  0  0  0  0  0  0  0  0  0  0  0
   -3.8880   -3.0076    0.0000 C   0  0  0  0  0  0  0  0  0  0  0  0
   -5.1852   -3.7608    0.0000 C   0  0  0  0  0  0  0  0  0  0  0  0
   -5.1815   -5.2608    0.0000 C   0  0  0  0  0  0  0  0  0  0  0  0
   -3.8807   -6.0076    0.0000 C   0  0  0  0  0  0  0  0  0  0  0  0
   -1.2907   -2.9981    0.0000 N   0  0  0  0  0  0  0  0  0  0  0  0
   -1.2964   -1.4973    0.0000 C   0  0  0  0  0  0  0  0  0  0  0  0
   -1.2964    1.4973    0.0000 N   0  0  0  0  0  0  0  0  0  0  0  0
   -2.6111    0.7486    0.0000 C   0  0  0  0  0  0  0  0  0  0  0  0
   -2.6111   -0.7486    0.0000 N   0  0  0  0  0  0  0  0  0  0  0  0
    0.0000    0.7486    0.0000 C   0  0  0  0  0  0  0  0  0  0  0  0
    0.0000   -0.7486    0.0000 C   0  0  0  0  0  0  0  0  0  0  0  0
    1.2964   -1.4973    0.0000 C   0  0  0  0  0  0  0  0  0  0  0  0
    2.5929   -0.7486    0.0000 C   0  0  0  0  0  0  0  0  0  0  0  0
    2.5929    0.7486    0.0000 C   0  0  0  0  0  0  0  0  0  0  0  0
    1.2964    1.4973    0.0000 C   0  0  0  0  0  0  0  0  0  0  0  0
   -6.4779   -6.0170    0.0000 C   0  0  0  0  0  0  0  0  0  0  0  0
   -6.4721   -7.5179    0.0000 C   0  0  0  0  0  0  0  0  0  0  0  0
   -7.5196   -5.4214    0.0000 O   0  0  0  0  0  0  0  0  0  0  0  0
   -7.7685   -8.2741    0.0000 C   0  0  0  0  0  0  0  0  0  0  0  0
   -7.7626   -9.7749    0.0000 C   0  0  0  0  0  0  0  0  0  0  0  0
   -9.0572  -10.5327    0.0000 C   0  0  0  0  0  0  0  0  0  0  0  0
   -9.0484  -12.0326    0.0000 C   0  0  0  0  0  0  0  0  0  0  0  0
   -7.7449  -12.7750    0.0000 C   0  0  0  0  0  0  0  0  0  0  0  0
   -6.4503  -12.0173    0.0000 C   0  0  0  0  0  0  0  0  0  0  0  0
   -6.4592  -10.5173    0.0000 C   0  0  0  0  0  0  0  0  0  0  0  0
  -10.3421  -12.7934    0.0000 O   0  0  0  0  0  0  0  0  0  0  0  0
  -10.3333  -13.9934    0.0000 C   0  0  0  0  0  0  0  0  0  0  0  0
   -3.9086    1.5029    0.0000 C   0  0  0  0  0  0  0  0  0  0  0  0
   -5.2125    0.7617    0.0000 C   0  0  0  0  0  0  0  0  0  0  0  0
   -6.5065    1.5203    0.0000 C   0  0  0  0  0  0  0  0  0  0  0  0
   -6.4965    3.0203    0.0000 C   0  0  0  0  0  0  0  0  0  0  0  0
   -5.1925    3.7616    0.0000 C   0  0  0  0  0  0  0  0  0  0  0  0
   -3.8985    3.0029    0.0000 C   0  0  0  0  0  0  0  0  0  0  0  0
   -7.7897    3.7820    0.0000 O   0  0  0  0  0  0  0  0  0  0  0  0
   -7.7800    4.9820    0.0000 C   0  0  0  0  0  0  0  0  0  0  0  0
   -7.8098    0.7759    0.0000 O   0  0  0  0  0  0  0  0  0  0  0  0
   -7.8161   -0.4241    0.0000 C   0  0  0  0  0  0  0  0  0  0  0  0
  1  2  2  0
  2  3  1  0
  3  4  2  0
  4  5  1  0
  5  6  2  0
  6  1  1  0
  2  7  1  0
  7  8  1  0
  8 13  2  0
 12  9  2  0
  9 10  1  0
 10 11  2  0
 11  8  1  0
 12 13  1  0
 13 14  1  0
 14 15  2  0
 15 16  1  0
 16 17  2  0
 17 12  1  0
  5 18  1  0
 18 19  1  0
 18 20  2  0
 19 21  2  3
 21 22  1  0
 22 23  2  0
 23 24  1  0
 24 25  2  0
 25 26  1  0
 26 27  2  0
 27 22  1  0
 24 28  1  0
 28 29  1  0
 10 30  1  0
 30 31  2  0
 31 32  1  0
 32 33  2  0
 33 34  1  0
 34 35  2  0
 35 30  1  0
 33 36  1  0
 36 37  1  0
 32 38  1  0
 38 39  1  0
M  END
>  <Classification>  (500) 
1

>  <pchembl>  (500) 
6.44

>  <InChI_steorem>  (500) 
InChI=1S/C32H27N3O4/c1-37-25-8-6-7-21(19-25)11-17-28(36)22-12-15-24(16-13-22)33-32-26-9-4-5-10-27(26)34-31(35-32)23-14-18-29(38-2)30(20-23)39-3/h4-20H,1-3H3,(H,33,34,35)

>  <source>  (500) 
ChEMBL25

>  <source_id>  (500) 
25

>  <optional_reference>  (500) 
10.1016/j.ejmech.2016.03.067

>  <optional_origin>  (500) 
None

>  <target>  (500) 
BCRP

$$$$

     RDKit          2D

 39 43  0  0  0  0  0  0  0  0999 V2000
   -2.5835   -5.2544    0.0000 C   0  0  0  0  0  0  0  0  0  0  0  0
   -2.5870   -3.7544    0.0000 C   0  0  0  0  0  0  0  0  0  0  0  0
   -3.8880   -3.0076    0.0000 C   0  0  0  0  0  0  0  0  0  0  0  0
   -5.1852   -3.7608    0.0000 C   0  0  0  0  0  0  0  0  0  0  0  0
   -5.1815   -5.2608    0.0000 C   0  0  0  0  0  0  0  0  0  0  0  0
   -3.8807   -6.0076    0.0000 C   0  0  0  0  0  0  0  0  0  0  0  0
   -1.2907   -2.9981    0.0000 N   0  0  0  0  0  0  0  0  0  0  0  0
   -1.2964   -1.4973    0.0000 C   0  0  0  0  0  0  0  0  0  0  0  0
   -1.2964    1.4973    0.0000 N   0  0  0  0  0  0  0  0  0  0  0  0
   -2.6111    0.7486    0.0000 C   0  0  0  0  0  0  0  0  0  0  0  0
   -2.6111   -0.7486    0.0000 N   0  0  0  0  0  0  0  0  0  0  0  0
    0.0000    0.7486    0.0000 C   0  0  0  0  0  0  0  0  0  0  0  0
    0.0000   -0.7486    0.0000 C   0  0  0  0  0  0  0  0  0  0  0  0
    1.2964   -1.4973    0.0000 C   0  0  0  0  0  0  0  0  0  0  0  0
    2.5929   -0.7486    0.0000 C   0  0  0  0  0  0  0  0  0  0  0  0
    2.5929    0.7486    0.0000 C   0  0  0  0  0  0  0  0  0  0  0  0
    1.2964    1.4973    0.0000 C   0  0  0  0  0  0  0  0  0  0  0  0
   -6.4779   -6.0170    0.0000 C   0  0  0  0  0  0  0  0  0  0  0  0
   -6.4721   -7.5179    0.0000 C   0  0  0  0  0  0  0  0  0  0  0  0
   -7.5196   -5.4214    0.0000 O   0  0  0  0  0  0  0  0  0  0  0  0
   -7.7685   -8.2741    0.0000 C   0  0  0  0  0  0  0  0  0  0  0  0
   -7.7626   -9.7749    0.0000 C   0  0  0  0  0  0  0  0  0  0  0  0
   -9.0572  -10.5327    0.0000 C   0  0  0  0  0  0  0  0  0  0  0  0
   -9.0484  -12.0326    0.0000 C   0  0  0  0  0  0  0  0  0  0  0  0
   -7.7449  -12.7750    0.0000 C   0  0  0  0  0  0  0  0  0  0  0  0
   -6.4503  -12.0173    0.0000 C   0  0  0  0  0  0  0  0  0  0  0  0
   -6.4592  -10.5173    0.0000 C   0  0  0  0  0  0  0  0  0  0  0  0
   -7.7330  -14.2758    0.0000 O   0  0  0  0  0  0  0  0  0  0  0  0
   -6.6894  -14.8681    0.0000 C   0  0  0  0  0  0  0  0  0  0  0  0
   -3.9086    1.5029    0.0000 C   0  0  0  0  0  0  0  0  0  0  0  0
   -5.2125    0.7617    0.0000 C   0  0  0  0  0  0  0  0  0  0  0  0
   -6.5065    1.5203    0.0000 C   0  0  0  0  0  0  0  0  0  0  0  0
   -6.4965    3.0203    0.0000 C   0  0  0  0  0  0  0  0  0  0  0  0
   -5.1925    3.7616    0.0000 C   0  0  0  0  0  0  0  0  0  0  0  0
   -3.8985    3.0029    0.0000 C   0  0  0  0  0  0  0  0  0  0  0  0
   -7.7897    3.7820    0.0000 O   0  0  0  0  0  0  0  0  0  0  0  0
   -7.7800    4.9820    0.0000 C   0  0  0  0  0  0  0  0  0  0  0  0
   -7.8098    0.7759    0.0000 O   0  0  0  0  0  0  0  0  0  0  0  0
   -7.8161   -0.4241    0.0000 C   0  0  0  0  0  0  0  0  0  0  0  0
  1  2  2  0
  2  3  1  0
  3  4  2  0
  4  5  1  0
  5  6  2  0
  6  1  1  0
  2  7  1  0
  7  8  1  0
  8 13  2  0
 12  9  2  0
  9 10  1  0
 10 11  2  0
 11  8  1  0
 12 13  1  0
 13 14  1  0
 14 15  2  0
 15 16  1  0
 16 17  2  0
 17 12  1  0
  5 18  1  0
 18 19  1  0
 18 20  2  0
 19 21  2  3
 21 22  1  0
 22 23  2  0
 23 24  1  0
 24 25  2  0
 25 26  1  0
 26 27  2  0
 27 22  1  0
 25 28  1  0
 28 29  1  0
 10 30  1  0
 30 31  2  0
 31 32  1  0
 32 33  2  0
 33 34  1  0
 34 35  2  0
 35 30  1  0
 33 36  1  0
 36 37  1  0
 32 38  1  0
 38 39  1  0
M  END
>  <Classification>  (501) 
1

>  <pchembl>  (501) 
5.5

>  <InChI_steorem>  (501) 
InChI=1S/C32H27N3O4/c1-37-25-16-8-21(9-17-25)10-18-28(36)22-11-14-24(15-12-22)33-32-26-6-4-5-7-27(26)34-31(35-32)23-13-19-29(38-2)30(20-23)39-3/h4-20H,1-3H3,(H,33,34,35)

>  <source>  (501) 
ChEMBL25

>  <source_id>  (501) 
25

>  <optional_reference>  (501) 
10.1016/j.ejmech.2016.03.067

>  <optional_origin>  (501) 
None

>  <target>  (501) 
BCRP

$$$$

     RDKit          2D

 41 45  0  0  0  0  0  0  0  0999 V2000
   -2.5835   -5.2544    0.0000 C   0  0  0  0  0  0  0  0  0  0  0  0
   -2.5870   -3.7544    0.0000 C   0  0  0  0  0  0  0  0  0  0  0  0
   -3.8880   -3.0076    0.0000 C   0  0  0  0  0  0  0  0  0  0  0  0
   -5.1852   -3.7608    0.0000 C   0  0  0  0  0  0  0  0  0  0  0  0
   -5.1815   -5.2608    0.0000 C   0  0  0  0  0  0  0  0  0  0  0  0
   -3.8807   -6.0076    0.0000 C   0  0  0  0  0  0  0  0  0  0  0  0
   -1.2907   -2.9981    0.0000 N   0  0  0  0  0  0  0  0  0  0  0  0
   -1.2964   -1.4973    0.0000 C   0  0  0  0  0  0  0  0  0  0  0  0
   -1.2964    1.4973    0.0000 N   0  0  0  0  0  0  0  0  0  0  0  0
   -2.6111    0.7486    0.0000 C   0  0  0  0  0  0  0  0  0  0  0  0
   -2.6111   -0.7486    0.0000 N   0  0  0  0  0  0  0  0  0  0  0  0
    0.0000    0.7486    0.0000 C   0  0  0  0  0  0  0  0  0  0  0  0
    0.0000   -0.7486    0.0000 C   0  0  0  0  0  0  0  0  0  0  0  0
    1.2964   -1.4973    0.0000 C   0  0  0  0  0  0  0  0  0  0  0  0
    2.5929   -0.7486    0.0000 C   0  0  0  0  0  0  0  0  0  0  0  0
    2.5929    0.7486    0.0000 C   0  0  0  0  0  0  0  0  0  0  0  0
    1.2964    1.4973    0.0000 C   0  0  0  0  0  0  0  0  0  0  0  0
   -6.4779   -6.0170    0.0000 C   0  0  0  0  0  0  0  0  0  0  0  0
   -6.4721   -7.5179    0.0000 C   0  0  0  0  0  0  0  0  0  0  0  0
   -7.5196   -5.4214    0.0000 O   0  0  0  0  0  0  0  0  0  0  0  0
   -7.7685   -8.2741    0.0000 C   0  0  0  0  0  0  0  0  0  0  0  0
   -7.7626   -9.7749    0.0000 C   0  0  0  0  0  0  0  0  0  0  0  0
   -9.0572  -10.5327    0.0000 C   0  0  0  0  0  0  0  0  0  0  0  0
   -9.0484  -12.0326    0.0000 C   0  0  0  0  0  0  0  0  0  0  0  0
   -7.7449  -12.7750    0.0000 C   0  0  0  0  0  0  0  0  0  0  0  0
   -6.4503  -12.0173    0.0000 C   0  0  0  0  0  0  0  0  0  0  0  0
   -6.4592  -10.5173    0.0000 C   0  0  0  0  0  0  0  0  0  0  0  0
   -7.7330  -14.2758    0.0000 O   0  0  0  0  0  0  0  0  0  0  0  0
   -6.6894  -14.8681    0.0000 C   0  0  0  0  0  0  0  0  0  0  0  0
  -10.3452  -12.7881    0.0000 O   0  0  0  0  0  0  0  0  0  0  0  0
  -11.3871  -12.1927    0.0000 C   0  0  0  0  0  0  0  0  0  0  0  0
   -3.9086    1.5029    0.0000 C   0  0  0  0  0  0  0  0  0  0  0  0
   -5.2125    0.7617    0.0000 C   0  0  0  0  0  0  0  0  0  0  0  0
   -6.5065    1.5203    0.0000 C   0  0  0  0  0  0  0  0  0  0  0  0
   -6.4965    3.0203    0.0000 C   0  0  0  0  0  0  0  0  0  0  0  0
   -5.1925    3.7616    0.0000 C   0  0  0  0  0  0  0  0  0  0  0  0
   -3.8985    3.0029    0.0000 C   0  0  0  0  0  0  0  0  0  0  0  0
   -7.7897    3.7820    0.0000 O   0  0  0  0  0  0  0  0  0  0  0  0
   -7.7800    4.9820    0.0000 C   0  0  0  0  0  0  0  0  0  0  0  0
   -7.8098    0.7759    0.0000 O   0  0  0  0  0  0  0  0  0  0  0  0
   -7.8161   -0.4241    0.0000 C   0  0  0  0  0  0  0  0  0  0  0  0
  1  2  2  0
  2  3  1  0
  3  4  2  0
  4  5  1  0
  5  6  2  0
  6  1  1  0
  2  7  1  0
  7  8  1  0
  8 13  2  0
 12  9  2  0
  9 10  1  0
 10 11  2  0
 11  8  1  0
 12 13  1  0
 13 14  1  0
 14 15  2  0
 15 16  1  0
 16 17  2  0
 17 12  1  0
  5 18  1  0
 18 19  1  0
 18 20  2  0
 19 21  2  3
 21 22  1  0
 22 23  2  0
 23 24  1  0
 24 25  2  0
 25 26  1  0
 26 27  2  0
 27 22  1  0
 25 28  1  0
 28 29  1  0
 24 30  1  0
 30 31  1  0
 10 32  1  0
 32 33  2  0
 33 34  1  0
 34 35  2  0
 35 36  1  0
 36 37  2  0
 37 32  1  0
 35 38  1  0
 38 39  1  0
 34 40  1  0
 40 41  1  0
M  END
>  <Classification>  (502) 
1

>  <pchembl>  (502) 
6.72

>  <InChI_steorem>  (502) 
InChI=1S/C33H29N3O5/c1-38-28-17-10-21(19-30(28)40-3)9-16-27(37)22-11-14-24(15-12-22)34-33-25-7-5-6-8-26(25)35-32(36-33)23-13-18-29(39-2)31(20-23)41-4/h5-20H,1-4H3,(H,34,35,36)

>  <source>  (502) 
ChEMBL25

>  <source_id>  (502) 
25

>  <optional_reference>  (502) 
10.1016/j.ejmech.2016.03.067

>  <optional_origin>  (502) 
None

>  <target>  (502) 
BCRP

$$$$

     RDKit          2D

 25 27  0  0  0  0  0  0  0  0999 V2000
    3.7269   -9.1934    0.0000 C   0  0  0  0  0  0  0  0  0  0  0  0
    4.4368   -9.6020    0.0000 C   0  0  0  0  0  0  0  0  0  0  0  0
    5.1178   -9.1934    0.0000 C   0  0  0  0  0  0  0  0  0  0  0  0
    5.8318   -9.6020    0.0000 C   0  0  0  0  0  0  0  0  0  0  0  0
    5.8318  -10.4233    0.0000 C   0  0  0  0  0  0  0  0  0  0  0  0
    6.5417  -10.8319    0.0000 C   0  0  0  0  0  0  0  0  0  0  0  0
    7.2515  -10.4233    0.0000 C   0  0  0  0  0  0  0  0  0  0  0  0
    7.2515   -9.6020    0.0000 C   0  0  0  0  0  0  0  0  0  0  0  0
    6.5417   -9.1934    0.0000 C   0  0  0  0  0  0  0  0  0  0  0  0
    7.9614   -9.1934    0.0000 O   0  0  0  0  0  0  0  0  0  0  0  0
    8.6713   -9.6020    0.0000 C   0  0  0  0  0  0  0  0  0  0  0  0
    7.9614  -10.8319    0.0000 O   0  0  0  0  0  0  0  0  0  0  0  0
    8.6713  -10.4233    0.0000 C   0  0  0  0  0  0  0  0  0  0  0  0
    6.5417  -11.6532    0.0000 Cl  0  0  0  0  0  0  0  0  0  0  0  0
    3.7269   -8.3721    0.0000 O   0  0  0  0  0  0  0  0  0  0  0  0
    3.0170   -9.6020    0.0000 C   0  0  0  0  0  0  0  0  0  0  0  0
    3.0170  -10.4233    0.0000 C   0  0  0  0  0  0  0  0  0  0  0  0
    2.3030  -10.8319    0.0000 C   0  0  0  0  0  0  0  0  0  0  0  0
    2.3030  -11.6532    0.0000 C   0  0  0  0  0  0  0  0  0  0  0  0
    1.5931  -12.0618    0.0000 C   0  0  0  0  0  0  0  0  0  0  0  0
    0.8832  -11.6532    0.0000 C   0  0  0  0  0  0  0  0  0  0  0  0
    0.8832  -10.8319    0.0000 C   0  0  0  0  0  0  0  0  0  0  0  0
    1.5931  -10.4233    0.0000 C   0  0  0  0  0  0  0  0  0  0  0  0
    1.5931   -9.6020    0.0000 C   0  0  0  0  0  0  0  0  0  0  0  0
    2.3030   -9.1934    0.0000 C   0  0  0  0  0  0  0  0  0  0  0  0
  1  2  1  0
  2  3  2  3
  3  4  1  0
  4  5  2  0
  5  6  1  0
  6  7  2  0
  7  8  1  0
  8  9  2  0
  4  9  1  0
  8 10  1  0
 10 11  1  0
  7 12  1  0
 12 13  1  0
  6 14  1  0
  1 15  2  0
  1 16  1  0
 17 16  2  0
 17 18  1  0
 19 18  2  0
 20 19  1  0
 21 20  2  0
 22 21  1  0
 23 22  2  0
 23 18  1  0
 24 23  1  0
 25 24  2  0
 16 25  1  0
M  END
>  <Classification>  (503) 
1

>  <pchembl>  (503) 
5.06

>  <InChI_steorem>  (503) 
InChI=1S/C21H17ClO3/c1-24-20-12-14(11-18(22)21(20)25-2)7-10-19(23)17-9-8-15-5-3-4-6-16(15)13-17/h3-13H,1-2H3

>  <source>  (503) 
ChEMBL25

>  <source_id>  (503) 
25

>  <optional_reference>  (503) 
10.1016/j.bmcl.2016.09.076

>  <optional_origin>  (503) 
None

>  <target>  (503) 
BCRP

$$$$

     RDKit          2D

 29 32  0  0  0  0  0  0  0  0999 V2000
   13.5664  -17.7557    0.0000 N   0  0  0  0  0  0  0  0  0  0  0  0
   13.0449  -17.1378    0.0000 N   0  0  0  0  0  0  0  0  0  0  0  0
   12.2774  -17.4859    0.0000 C   0  0  0  0  0  0  0  0  0  0  0  0
   12.3752  -18.2943    0.0000 C   0  0  0  0  0  0  0  0  0  0  0  0
   13.1571  -18.4644    0.0000 C   0  0  0  0  0  0  0  0  0  0  0  0
   13.5795  -19.1459    0.0000 C   0  0  0  0  0  0  0  0  0  0  0  0
   13.1797  -19.8665    0.0000 C   0  0  0  0  0  0  0  0  0  0  0  0
   13.5881  -20.5735    0.0000 C   0  0  0  0  0  0  0  0  0  0  0  0
   14.4215  -20.5736    0.0000 C   0  0  0  0  0  0  0  0  0  0  0  0
   14.8173  -19.8535    0.0000 C   0  0  0  0  0  0  0  0  0  0  0  0
   14.4088  -19.1465    0.0000 C   0  0  0  0  0  0  0  0  0  0  0  0
   15.6214  -19.8405    0.0000 O   0  0  0  0  0  0  0  0  0  0  0  0
   16.0645  -20.5365    0.0000 C   0  0  0  0  0  0  0  0  0  0  0  0
   14.8395  -21.2560    0.0000 O   0  0  0  0  0  0  0  0  0  0  0  0
   15.6688  -21.2566    0.0000 C   0  0  0  0  0  0  0  0  0  0  0  0
   13.1965  -21.2931    0.0000 I   0  0  0  0  0  0  0  0  0  0  0  0
   11.5687  -17.0766    0.0000 C   0  0  0  0  0  0  0  0  0  0  0  0
   10.8629  -17.4852    0.0000 C   0  0  0  0  0  0  0  0  0  0  0  0
   10.1542  -17.0760    0.0000 C   0  0  0  0  0  0  0  0  0  0  0  0
    9.4485  -17.4846    0.0000 C   0  0  0  0  0  0  0  0  0  0  0  0
    8.7398  -17.0753    0.0000 C   0  0  0  0  0  0  0  0  0  0  0  0
    8.7409  -16.2575    0.0000 C   0  0  0  0  0  0  0  0  0  0  0  0
    9.4508  -15.8488    0.0000 C   0  0  0  0  0  0  0  0  0  0  0  0
   10.1554  -16.2581    0.0000 C   0  0  0  0  0  0  0  0  0  0  0  0
   10.8653  -15.8495    0.0000 C   0  0  0  0  0  0  0  0  0  0  0  0
   11.5698  -16.2587    0.0000 C   0  0  0  0  0  0  0  0  0  0  0  0
   14.3789  -17.6579    0.0000 C   0  0  0  0  0  0  0  0  0  0  0  0
   14.8755  -18.3267    0.0000 O   0  0  0  0  0  0  0  0  0  0  0  0
   14.7181  -16.9120    0.0000 C   0  0  0  0  0  0  0  0  0  0  0  0
  1  2  1  0
  2  3  2  0
  3  4  1  0
  4  5  1  0
  1  5  1  0
  5  6  1  0
  6  7  2  0
  7  8  1  0
  8  9  2  0
  9 10  1  0
 10 11  2  0
  6 11  1  0
 10 12  1  0
 12 13  1  0
  9 14  1  0
 14 15  1  0
  8 16  1  0
  3 17  1  0
 18 17  2  0
 18 19  1  0
 20 19  2  0
 21 20  1  0
 22 21  2  0
 23 22  1  0
 24 23  2  0
 24 19  1  0
 25 24  1  0
 26 25  2  0
 17 26  1  0
  1 27  1  0
 27 28  2  0
 27 29  1  0
M  END
>  <Classification>  (504) 
1

>  <pchembl>  (504) 
5.15

>  <InChI_steorem>  (504) 
InChI=1S/C23H21IN2O3/c1-14(27)26-21(18-11-19(24)23(29-3)22(12-18)28-2)13-20(25-26)17-9-8-15-6-4-5-7-16(15)10-17/h4-12,21H,13H2,1-3H3

>  <source>  (504) 
ChEMBL25

>  <source_id>  (504) 
25

>  <optional_reference>  (504) 
10.1016/j.bmcl.2016.09.076

>  <optional_origin>  (504) 
None

>  <target>  (504) 
BCRP

$$$$

     RDKit          2D

 25 27  0  0  0  0  0  0  0  0999 V2000
   12.3322   -9.5153    0.0000 C   0  0  0  0  0  0  0  0  0  0  0  0
   13.0420   -9.9239    0.0000 C   0  0  0  0  0  0  0  0  0  0  0  0
   13.7230   -9.5153    0.0000 C   0  0  0  0  0  0  0  0  0  0  0  0
   14.4370   -9.9239    0.0000 C   0  0  0  0  0  0  0  0  0  0  0  0
   14.4370  -10.7452    0.0000 C   0  0  0  0  0  0  0  0  0  0  0  0
   15.1469  -11.1538    0.0000 C   0  0  0  0  0  0  0  0  0  0  0  0
   15.8568  -10.7452    0.0000 C   0  0  0  0  0  0  0  0  0  0  0  0
   15.8568   -9.9239    0.0000 C   0  0  0  0  0  0  0  0  0  0  0  0
   15.1469   -9.5153    0.0000 C   0  0  0  0  0  0  0  0  0  0  0  0
   16.5667   -9.5153    0.0000 O   0  0  0  0  0  0  0  0  0  0  0  0
   17.2766   -9.9239    0.0000 C   0  0  0  0  0  0  0  0  0  0  0  0
   16.5667  -11.1538    0.0000 O   0  0  0  0  0  0  0  0  0  0  0  0
   17.2766  -10.7452    0.0000 C   0  0  0  0  0  0  0  0  0  0  0  0
   15.1469  -11.9752    0.0000 Br  0  0  0  0  0  0  0  0  0  0  0  0
   12.3322   -8.6940    0.0000 O   0  0  0  0  0  0  0  0  0  0  0  0
   11.6223   -9.9239    0.0000 C   0  0  0  0  0  0  0  0  0  0  0  0
   11.6223  -10.7452    0.0000 C   0  0  0  0  0  0  0  0  0  0  0  0
   10.9083  -11.1538    0.0000 C   0  0  0  0  0  0  0  0  0  0  0  0
   10.9083  -11.9752    0.0000 C   0  0  0  0  0  0  0  0  0  0  0  0
   10.1984  -12.3838    0.0000 C   0  0  0  0  0  0  0  0  0  0  0  0
    9.4885  -11.9752    0.0000 C   0  0  0  0  0  0  0  0  0  0  0  0
    9.4885  -11.1538    0.0000 C   0  0  0  0  0  0  0  0  0  0  0  0
   10.1984  -10.7452    0.0000 C   0  0  0  0  0  0  0  0  0  0  0  0
   10.1984   -9.9239    0.0000 C   0  0  0  0  0  0  0  0  0  0  0  0
   10.9083   -9.5153    0.0000 C   0  0  0  0  0  0  0  0  0  0  0  0
  1  2  1  0
  2  3  2  3
  3  4  1  0
  4  5  2  0
  5  6  1  0
  6  7  2  0
  7  8  1  0
  8  9  2  0
  4  9  1  0
  8 10  1  0
 10 11  1  0
  7 12  1  0
 12 13  1  0
  6 14  1  0
  1 15  2  0
  1 16  1  0
 17 16  2  0
 17 18  1  0
 19 18  2  0
 20 19  1  0
 21 20  2  0
 22 21  1  0
 23 22  2  0
 23 18  1  0
 24 23  1  0
 25 24  2  0
 16 25  1  0
M  END
>  <Classification>  (505) 
1

>  <pchembl>  (505) 
5.31

>  <InChI_steorem>  (505) 
InChI=1S/C21H17BrO3/c1-24-20-12-14(11-18(22)21(20)25-2)7-10-19(23)17-9-8-15-5-3-4-6-16(15)13-17/h3-13H,1-2H3

>  <source>  (505) 
ChEMBL25

>  <source_id>  (505) 
25

>  <optional_reference>  (505) 
10.1016/j.bmcl.2016.09.076

>  <optional_origin>  (505) 
None

>  <target>  (505) 
BCRP

$$$$

     RDKit          2D

 29 32  0  0  0  0  0  0  0  0999 V2000
   13.5664  -17.7557    0.0000 N   0  0  0  0  0  0  0  0  0  0  0  0
   13.0449  -17.1378    0.0000 N   0  0  0  0  0  0  0  0  0  0  0  0
   12.2774  -17.4859    0.0000 C   0  0  0  0  0  0  0  0  0  0  0  0
   12.3752  -18.2943    0.0000 C   0  0  0  0  0  0  0  0  0  0  0  0
   13.1571  -18.4644    0.0000 C   0  0  0  0  0  0  0  0  0  0  0  0
   13.5795  -19.1459    0.0000 C   0  0  0  0  0  0  0  0  0  0  0  0
   13.1797  -19.8665    0.0000 C   0  0  0  0  0  0  0  0  0  0  0  0
   13.5881  -20.5735    0.0000 C   0  0  0  0  0  0  0  0  0  0  0  0
   14.4215  -20.5736    0.0000 C   0  0  0  0  0  0  0  0  0  0  0  0
   14.8173  -19.8535    0.0000 C   0  0  0  0  0  0  0  0  0  0  0  0
   14.4088  -19.1465    0.0000 C   0  0  0  0  0  0  0  0  0  0  0  0
   15.6214  -19.8405    0.0000 O   0  0  0  0  0  0  0  0  0  0  0  0
   16.0645  -20.5365    0.0000 C   0  0  0  0  0  0  0  0  0  0  0  0
   14.8395  -21.2560    0.0000 O   0  0  0  0  0  0  0  0  0  0  0  0
   15.6688  -21.2566    0.0000 C   0  0  0  0  0  0  0  0  0  0  0  0
   13.1965  -21.2931    0.0000 Br  0  0  0  0  0  0  0  0  0  0  0  0
   11.5687  -17.0766    0.0000 C   0  0  0  0  0  0  0  0  0  0  0  0
   10.8629  -17.4852    0.0000 C   0  0  0  0  0  0  0  0  0  0  0  0
   10.1542  -17.0760    0.0000 C   0  0  0  0  0  0  0  0  0  0  0  0
    9.4485  -17.4846    0.0000 C   0  0  0  0  0  0  0  0  0  0  0  0
    8.7398  -17.0753    0.0000 C   0  0  0  0  0  0  0  0  0  0  0  0
    8.7409  -16.2575    0.0000 C   0  0  0  0  0  0  0  0  0  0  0  0
    9.4508  -15.8488    0.0000 C   0  0  0  0  0  0  0  0  0  0  0  0
   10.1554  -16.2581    0.0000 C   0  0  0  0  0  0  0  0  0  0  0  0
   10.8653  -15.8495    0.0000 C   0  0  0  0  0  0  0  0  0  0  0  0
   11.5698  -16.2587    0.0000 C   0  0  0  0  0  0  0  0  0  0  0  0
   14.3789  -17.6579    0.0000 C   0  0  0  0  0  0  0  0  0  0  0  0
   14.8755  -18.3267    0.0000 O   0  0  0  0  0  0  0  0  0  0  0  0
   14.7181  -16.9120    0.0000 C   0  0  0  0  0  0  0  0  0  0  0  0
  1  2  1  0
  2  3  2  0
  3  4  1  0
  4  5  1  0
  1  5  1  0
  5  6  1  0
  6  7  2  0
  7  8  1  0
  8  9  2  0
  9 10  1  0
 10 11  2  0
  6 11  1  0
 10 12  1  0
 12 13  1  0
  9 14  1  0
 14 15  1  0
  8 16  1  0
  3 17  1  0
 18 17  2  0
 18 19  1  0
 20 19  2  0
 21 20  1  0
 22 21  2  0
 23 22  1  0
 24 23  2  0
 24 19  1  0
 25 24  1  0
 26 25  2  0
 17 26  1  0
  1 27  1  0
 27 28  2  0
 27 29  1  0
M  END
>  <Classification>  (506) 
1

>  <pchembl>  (506) 
5.05

>  <InChI_steorem>  (506) 
InChI=1S/C23H21BrN2O3/c1-14(27)26-21(18-11-19(24)23(29-3)22(12-18)28-2)13-20(25-26)17-9-8-15-6-4-5-7-16(15)10-17/h4-12,21H,13H2,1-3H3

>  <source>  (506) 
ChEMBL25

>  <source_id>  (506) 
25

>  <optional_reference>  (506) 
10.1016/j.bmcl.2016.09.076

>  <optional_origin>  (506) 
None

>  <target>  (506) 
BCRP

$$$$

     RDKit          2D

 25 27  0  0  0  0  0  0  0  0999 V2000
   21.0076   -9.3213    0.0000 C   0  0  0  0  0  0  0  0  0  0  0  0
   21.7175   -9.7299    0.0000 C   0  0  0  0  0  0  0  0  0  0  0  0
   22.3985   -9.3213    0.0000 C   0  0  0  0  0  0  0  0  0  0  0  0
   23.1125   -9.7299    0.0000 C   0  0  0  0  0  0  0  0  0  0  0  0
   23.1125  -10.5513    0.0000 C   0  0  0  0  0  0  0  0  0  0  0  0
   23.8224  -10.9599    0.0000 C   0  0  0  0  0  0  0  0  0  0  0  0
   24.5322  -10.5513    0.0000 C   0  0  0  0  0  0  0  0  0  0  0  0
   24.5322   -9.7299    0.0000 C   0  0  0  0  0  0  0  0  0  0  0  0
   23.8224   -9.3213    0.0000 C   0  0  0  0  0  0  0  0  0  0  0  0
   25.2421   -9.3213    0.0000 O   0  0  0  0  0  0  0  0  0  0  0  0
   25.9520   -9.7299    0.0000 C   0  0  0  0  0  0  0  0  0  0  0  0
   25.2421  -10.9599    0.0000 O   0  0  0  0  0  0  0  0  0  0  0  0
   25.9520  -10.5513    0.0000 C   0  0  0  0  0  0  0  0  0  0  0  0
   23.8224  -11.7812    0.0000 I   0  0  0  0  0  0  0  0  0  0  0  0
   21.0076   -8.5000    0.0000 O   0  0  0  0  0  0  0  0  0  0  0  0
   20.2977   -9.7299    0.0000 C   0  0  0  0  0  0  0  0  0  0  0  0
   20.2977  -10.5513    0.0000 C   0  0  0  0  0  0  0  0  0  0  0  0
   19.5837  -10.9599    0.0000 C   0  0  0  0  0  0  0  0  0  0  0  0
   19.5837  -11.7812    0.0000 C   0  0  0  0  0  0  0  0  0  0  0  0
   18.8738  -12.1898    0.0000 C   0  0  0  0  0  0  0  0  0  0  0  0
   18.1639  -11.7812    0.0000 C   0  0  0  0  0  0  0  0  0  0  0  0
   18.1639  -10.9599    0.0000 C   0  0  0  0  0  0  0  0  0  0  0  0
   18.8738  -10.5513    0.0000 C   0  0  0  0  0  0  0  0  0  0  0  0
   18.8738   -9.7299    0.0000 C   0  0  0  0  0  0  0  0  0  0  0  0
   19.5837   -9.3213    0.0000 C   0  0  0  0  0  0  0  0  0  0  0  0
  1  2  1  0
  2  3  2  3
  3  4  1  0
  4  5  2  0
  5  6  1  0
  6  7  2  0
  7  8  1  0
  8  9  2  0
  4  9  1  0
  8 10  1  0
 10 11  1  0
  7 12  1  0
 12 13  1  0
  6 14  1  0
  1 15  2  0
  1 16  1  0
 17 16  2  0
 17 18  1  0
 19 18  2  0
 20 19  1  0
 21 20  2  0
 22 21  1  0
 23 22  2  0
 23 18  1  0
 24 23  1  0
 25 24  2  0
 16 25  1  0
M  END
>  <Classification>  (507) 
1

>  <pchembl>  (507) 
5.11

>  <InChI_steorem>  (507) 
InChI=1S/C21H17IO3/c1-24-20-12-14(11-18(22)21(20)25-2)7-10-19(23)17-9-8-15-5-3-4-6-16(15)13-17/h3-13H,1-2H3

>  <source>  (507) 
ChEMBL25

>  <source_id>  (507) 
25

>  <optional_reference>  (507) 
10.1016/j.bmcl.2016.09.076

>  <optional_origin>  (507) 
None

>  <target>  (507) 
BCRP

$$$$

     RDKit          2D

 21 23  0  0  0  0  0  0  0  0999 V2000
    2.0036   -0.1571    0.0000 F   0  0  0  0  0  0  0  0  0  0  0  0
    2.3055   -1.2841    0.0000 F   0  0  0  0  0  0  0  0  0  0  0  0
    3.1305    0.1448    0.0000 F   0  0  0  0  0  0  0  0  0  0  0  0
    5.5759   -0.5696    0.0000 N   0  0  0  0  0  0  0  0  0  0  0  0
    4.8615    0.6679    0.0000 N   0  0  0  0  0  0  0  0  0  0  0  0
    5.5759    1.9054    0.0000 N   0  0  0  0  0  0  0  0  0  0  0  0
    6.2904    0.6679    0.0000 C   0  0  0  0  0  0  0  0  0  0  0  0
    5.5759    0.2554    0.0000 C   0  0  0  0  0  0  0  0  0  0  0  0
    6.2904    1.4929    0.0000 C   0  0  0  0  0  0  0  0  0  0  0  0
    3.4325   -0.9821    0.0000 C   0  0  0  0  0  0  0  0  0  0  0  0
    4.8615   -0.9821    0.0000 C   0  0  0  0  0  0  0  0  0  0  0  0
    2.7180   -0.5696    0.0000 C   0  0  0  0  0  0  0  0  0  0  0  0
    4.1470   -0.5696    0.0000 C   0  0  0  0  0  0  0  0  0  0  0  0
    7.0049    0.2554    0.0000 C   0  0  0  0  0  0  0  0  0  0  0  0
    3.4325   -1.8071    0.0000 C   0  0  0  0  0  0  0  0  0  0  0  0
    4.8615   -1.8071    0.0000 C   0  0  0  0  0  0  0  0  0  0  0  0
    7.0049    1.9054    0.0000 C   0  0  0  0  0  0  0  0  0  0  0  0
    4.8615    1.4929    0.0000 C   0  0  0  0  0  0  0  0  0  0  0  0
    4.1470   -2.2196    0.0000 C   0  0  0  0  0  0  0  0  0  0  0  0
    7.7193    0.6679    0.0000 C   0  0  0  0  0  0  0  0  0  0  0  0
    7.7193    1.4929    0.0000 C   0  0  0  0  0  0  0  0  0  0  0  0
  1 12  1  0
  2 12  1  0
  3 12  1  0
  4  8  1  0
  4 11  1  0
  5  8  2  0
  5 18  1  0
  6  9  1  0
  6 18  2  0
  7  8  1  0
  7  9  2  0
  7 14  1  0
  9 17  1  0
 10 12  1  0
 10 13  2  0
 10 15  1  0
 11 13  1  0
 11 16  2  0
 14 20  2  0
 15 19  2  0
 16 19  1  0
 17 21  2  0
 20 21  1  0
M  END
>  <Classification>  (508) 
1

>  <pchembl>  (508) 
5.81

>  <InChI_steorem>  (508) 
InChI=1S/C15H10F3N3/c16-15(17,18)10-4-3-5-11(8-10)21-14-12-6-1-2-7-13(12)19-9-20-14/h1-9H,(H,19,20,21)

>  <source>  (508) 
ChEMBL25

>  <source_id>  (508) 
25

>  <optional_reference>  (508) 
10.1016/j.bmc.2013.10.007

>  <optional_origin>  (508) 
None

>  <target>  (508) 
BCRP

$$$$

     RDKit          2D

 22 24  0  0  0  0  0  0  0  0999 V2000
    2.8618   -2.4815    0.0000 O   0  0  0  0  0  0  0  0  0  0  0  0
    2.8618    0.0000    0.0000 O   0  0  0  0  0  0  0  0  0  0  0  0
    4.3056   -0.8250    0.0000 O   0  0  0  0  0  0  0  0  0  0  0  0
    1.4309    0.0000    0.0000 O   0  0  0  0  0  0  0  0  0  0  0  0
    5.0146   -1.2311    0.0000 O   0  0  0  0  0  0  0  0  0  0  0  0
    0.0000   -2.4815    0.0000 O   0  0  0  0  0  0  0  0  0  0  0  0
    6.4455   -3.7191    0.0000 O   0  0  0  0  0  0  0  0  0  0  0  0
    2.1463   -1.2311    0.0000 C   0  0  0  0  0  0  0  0  0  0  0  0
    3.5901   -2.0561    0.0000 C   0  0  0  0  0  0  0  0  0  0  0  0
    2.1463   -2.0561    0.0000 C   0  0  0  0  0  0  0  0  0  0  0  0
    2.8618   -0.8250    0.0000 C   0  0  0  0  0  0  0  0  0  0  0  0
    3.5901   -1.2311    0.0000 C   0  0  0  0  0  0  0  0  0  0  0  0
    4.3056   -2.4815    0.0000 C   0  0  0  0  0  0  0  0  0  0  0  0
    1.4309   -0.8250    0.0000 C   0  0  0  0  0  0  0  0  0  0  0  0
    1.4309   -2.4815    0.0000 C   0  0  0  0  0  0  0  0  0  0  0  0
    5.0146   -2.0561    0.0000 C   0  0  0  0  0  0  0  0  0  0  0  0
    0.7154   -2.0561    0.0000 C   0  0  0  0  0  0  0  0  0  0  0  0
    0.7154   -1.2311    0.0000 C   0  0  0  0  0  0  0  0  0  0  0  0
    4.3056   -3.3065    0.0000 C   0  0  0  0  0  0  0  0  0  0  0  0
    5.7301   -2.4815    0.0000 C   0  0  0  0  0  0  0  0  0  0  0  0
    5.7301   -3.3065    0.0000 C   0  0  0  0  0  0  0  0  0  0  0  0
    5.0146   -3.7191    0.0000 C   0  0  0  0  0  0  0  0  0  0  0  0
  1  9  1  0
  1 10  1  0
  2 11  2  0
  3 12  1  0
  4 14  1  0
  5 16  1  0
  6 17  1  0
  7 21  1  0
  8 10  2  0
  8 11  1  0
  8 14  1  0
  9 12  2  0
  9 13  1  0
 10 15  1  0
 11 12  1  0
 13 16  2  0
 13 19  1  0
 14 18  2  0
 15 17  2  0
 16 20  1  0
 17 18  1  0
 19 22  2  0
 20 21  2  0
 21 22  1  0
M  END
>  <Classification>  (509) 
0

>  <pchembl>  (509) 
4.68

>  <InChI_steorem>  (509) 
InChI=1S/C15H10O7/c16-6-1-2-8(9(18)3-6)15-14(21)13(20)12-10(19)4-7(17)5-11(12)22-15/h1-5,16-19,21H

>  <source>  (509) 
ChEMBL25

>  <source_id>  (509) 
25

>  <optional_reference>  (509) 
10.1016/j.bmc.2010.12.043

>  <optional_origin>  (509) 
None

>  <target>  (509) 
BCRP

$$$$

     RDKit          2D

 23 26  0  0  0  0  0  0  0  0999 V2000
   -1.2964    1.4973    0.0000 C   0  0  0  0  0  0  0  0  0  0  0  0
   -2.6111    0.7486    0.0000 N   0  0  0  0  0  0  0  0  0  0  0  0
   -2.6111   -0.7486    0.0000 C   0  0  0  0  0  0  0  0  0  0  0  0
   -1.2964   -1.4973    0.0000 N   0  0  0  0  0  0  0  0  0  0  0  0
    0.0000    0.7486    0.0000 C   0  0  0  0  0  0  0  0  0  0  0  0
    0.0000   -0.7486    0.0000 C   0  0  0  0  0  0  0  0  0  0  0  0
   -1.2907    2.9981    0.0000 N   0  0  0  0  0  0  0  0  0  0  0  0
   -3.9086   -1.5029    0.0000 C   0  0  0  0  0  0  0  0  0  0  0  0
   -2.5870    3.7544    0.0000 C   0  0  0  0  0  0  0  0  0  0  0  0
    1.2964    1.4973    0.0000 C   0  0  0  0  0  0  0  0  0  0  0  0
    1.2964   -1.4973    0.0000 C   0  0  0  0  0  0  0  0  0  0  0  0
   -3.9097   -3.0028    0.0000 C   0  0  0  0  0  0  0  0  0  0  0  0
   -5.2071   -0.7519    0.0000 C   0  0  0  0  0  0  0  0  0  0  0  0
   -2.5835    5.2544    0.0000 C   0  0  0  0  0  0  0  0  0  0  0  0
   -3.8880    3.0076    0.0000 C   0  0  0  0  0  0  0  0  0  0  0  0
    2.5929    0.7486    0.0000 C   0  0  0  0  0  0  0  0  0  0  0  0
    2.5929   -0.7486    0.0000 C   0  0  0  0  0  0  0  0  0  0  0  0
   -6.5067   -1.5010    0.0000 C   0  0  0  0  0  0  0  0  0  0  0  0
   -5.2093   -3.7519    0.0000 C   0  0  0  0  0  0  0  0  0  0  0  0
   -5.1852    3.7608    0.0000 C   0  0  0  0  0  0  0  0  0  0  0  0
   -3.8807    6.0076    0.0000 C   0  0  0  0  0  0  0  0  0  0  0  0
   -6.5078   -3.0010    0.0000 C   0  0  0  0  0  0  0  0  0  0  0  0
   -5.1815    5.2608    0.0000 C   0  0  0  0  0  0  0  0  0  0  0  0
  1  2  2  0
  2  3  1  0
  3  4  2  0
  1  5  1  0
  4  6  1  0
  5  6  2  0
  1  7  1  0
  3  8  1  0
  7  9  1  0
  5 10  1  0
  6 11  1  0
  8 12  2  0
  8 13  1  0
  9 14  2  0
  9 15  1  0
 10 16  2  0
 11 17  2  0
 16 17  1  0
 13 18  2  0
 12 19  1  0
 15 20  2  0
 14 21  1  0
 18 22  1  0
 19 22  2  0
 20 23  1  0
 21 23  2  0
M  END
>  <Classification>  (510) 
1

>  <pchembl>  (510) 
5.59

>  <InChI_steorem>  (510) 
InChI=1S/C20H15N3/c1-3-9-15(10-4-1)19-22-18-14-8-7-13-17(18)20(23-19)21-16-11-5-2-6-12-16/h1-14H,(H,21,22,23)

>  <source>  (510) 
ChEMBL25

>  <source_id>  (510) 
25

>  <optional_reference>  (510) 
10.1016/j.bmcl.2012.08.024

>  <optional_origin>  (510) 
None

>  <target>  (510) 
BCRP

$$$$

     RDKit          2D

 24 27  0  0  0  0  0  0  0  0999 V2000
   -1.2964    1.4973    0.0000 C   0  0  0  0  0  0  0  0  0  0  0  0
   -2.6111    0.7486    0.0000 N   0  0  0  0  0  0  0  0  0  0  0  0
   -2.6111   -0.7486    0.0000 C   0  0  0  0  0  0  0  0  0  0  0  0
   -1.2964   -1.4973    0.0000 N   0  0  0  0  0  0  0  0  0  0  0  0
    0.0000    0.7486    0.0000 C   0  0  0  0  0  0  0  0  0  0  0  0
    0.0000   -0.7486    0.0000 C   0  0  0  0  0  0  0  0  0  0  0  0
   -1.2907    2.9981    0.0000 N   0  0  0  0  0  0  0  0  0  0  0  0
   -2.5870    3.7544    0.0000 C   0  0  0  0  0  0  0  0  0  0  0  0
   -3.9086   -1.5029    0.0000 C   0  0  0  0  0  0  0  0  0  0  0  0
   -2.5835    5.2544    0.0000 C   0  0  0  0  0  0  0  0  0  0  0  0
   -3.8807    6.0076    0.0000 C   0  0  0  0  0  0  0  0  0  0  0  0
   -3.8777    7.2076    0.0000 Cl  0  0  0  0  0  0  0  0  0  0  0  0
    1.2964    1.4973    0.0000 C   0  0  0  0  0  0  0  0  0  0  0  0
    1.2964   -1.4973    0.0000 C   0  0  0  0  0  0  0  0  0  0  0  0
   -5.1852    3.7608    0.0000 C   0  0  0  0  0  0  0  0  0  0  0  0
   -3.8880    3.0076    0.0000 C   0  0  0  0  0  0  0  0  0  0  0  0
   -3.9097   -3.0028    0.0000 C   0  0  0  0  0  0  0  0  0  0  0  0
   -5.2071   -0.7519    0.0000 C   0  0  0  0  0  0  0  0  0  0  0  0
   -5.1815    5.2608    0.0000 C   0  0  0  0  0  0  0  0  0  0  0  0
    2.5929    0.7486    0.0000 C   0  0  0  0  0  0  0  0  0  0  0  0
    2.5929   -0.7486    0.0000 C   0  0  0  0  0  0  0  0  0  0  0  0
   -5.2093   -3.7519    0.0000 C   0  0  0  0  0  0  0  0  0  0  0  0
   -6.5067   -1.5010    0.0000 C   0  0  0  0  0  0  0  0  0  0  0  0
   -6.5078   -3.0010    0.0000 C   0  0  0  0  0  0  0  0  0  0  0  0
  1  2  2  0
  2  3  1  0
  3  4  2  0
  1  5  1  0
  4  6  1  0
  5  6  2  0
  1  7  1  0
  7  8  1  0
  3  9  1  0
  8 10  2  0
 10 11  1  0
 11 12  1  0
  5 13  1  0
  6 14  1  0
  8 16  1  0
 15 16  2  0
  9 17  2  0
  9 18  1  0
 11 19  2  0
 15 19  1  0
 13 20  2  0
 14 21  2  0
 20 21  1  0
 17 22  1  0
 18 23  2  0
 22 24  2  0
 23 24  1  0
M  END
>  <Classification>  (511) 
1

>  <pchembl>  (511) 
5.71

>  <InChI_steorem>  (511) 
InChI=1S/C20H14ClN3/c21-15-9-6-10-16(13-15)22-20-17-11-4-5-12-18(17)23-19(24-20)14-7-2-1-3-8-14/h1-13H,(H,22,23,24)

>  <source>  (511) 
ChEMBL25

>  <source_id>  (511) 
25

>  <optional_reference>  (511) 
10.1016/j.bmcl.2012.08.024

>  <optional_origin>  (511) 
None

>  <target>  (511) 
BCRP

$$$$

     RDKit          2D

 25 27  0  0  0  0  0  0  0  0999 V2000
    0.6287    0.8910    0.0000 C   0  0  0  0  0  0  0  0  0  0  0  0
   -0.0857    0.4785    0.0000 C   0  0  0  0  0  0  0  0  0  0  0  0
    0.6287    1.7160    0.0000 C   0  0  0  0  0  0  0  0  0  0  0  0
    1.3432    0.4785    0.0000 C   0  0  0  0  0  0  0  0  0  0  0  0
   -0.8002    0.8910    0.0000 N   0  0  0  0  0  0  0  0  0  0  0  0
    1.3432    2.1285    0.0000 C   0  0  0  0  0  0  0  0  0  0  0  0
   -0.0857   -0.3465    0.0000 N   0  0  0  0  0  0  0  0  0  0  0  0
    2.0577    0.8910    0.0000 C   0  0  0  0  0  0  0  0  0  0  0  0
    2.0577    1.7160    0.0000 C   0  0  0  0  0  0  0  0  0  0  0  0
   -0.0857    2.1285    0.0000 N   0  0  0  0  0  0  0  0  0  0  0  0
   -0.8002   -1.5840    0.0000 C   0  0  0  0  0  0  0  0  0  0  0  0
   -1.5147   -1.9965    0.0000 C   0  0  0  0  0  0  0  0  0  0  0  0
   -0.8002    1.7160    0.0000 C   0  0  0  0  0  0  0  0  0  0  0  0
   -0.8002   -0.7590    0.0000 C   0  0  0  0  0  0  0  0  0  0  0  0
   -2.2291   -1.5840    0.0000 C   0  0  0  0  0  0  0  0  0  0  0  0
   -2.2291   -0.7590    0.0000 C   0  0  0  0  0  0  0  0  0  0  0  0
   -1.5147   -0.3465    0.0000 C   0  0  0  0  0  0  0  0  0  0  0  0
    2.7721    0.4785    0.0000 O   0  0  0  0  0  0  0  0  0  0  0  0
    2.7721    2.1285    0.0000 O   0  0  0  0  0  0  0  0  0  0  0  0
   -1.5147   -2.8215    0.0000 O   0  0  0  0  0  0  0  0  0  0  0  0
   -2.9436   -1.9965    0.0000 O   0  0  0  0  0  0  0  0  0  0  0  0
    3.4866    0.8910    0.0000 C   0  0  0  0  0  0  0  0  0  0  0  0
   -2.2291   -3.2340    0.0000 C   0  0  0  0  0  0  0  0  0  0  0  0
    3.4866    1.7160    0.0000 C   0  0  0  0  0  0  0  0  0  0  0  0
   -2.9436   -2.8215    0.0000 C   0  0  0  0  0  0  0  0  0  0  0  0
  1  2  1  0
  1  3  1  0
  1  4  2  0
  2  5  2  0
  3  6  2  0
  2  7  1  0
  4  8  1  0
  6  9  1  0
  8  9  2  0
  3 10  1  0
 11 12  2  0
  5 13  1  0
 10 13  2  0
  7 14  1  0
 11 14  1  0
 12 15  1  0
 15 16  2  0
 14 17  2  0
 16 17  1  0
  8 18  1  0
  9 19  1  0
 12 20  1  0
 15 21  1  0
 18 22  1  0
 20 23  1  0
 19 24  1  0
 21 25  1  0
M  END
>  <Classification>  (512) 
1

>  <pchembl>  (512) 
5.42

>  <InChI_steorem>  (512) 
InChI=1S/C18H19N3O4/c1-22-14-6-5-11(7-15(14)23-2)21-18-12-8-16(24-3)17(25-4)9-13(12)19-10-20-18/h5-10H,1-4H3,(H,19,20,21)

>  <source>  (512) 
ChEMBL25

>  <source_id>  (512) 
25

>  <optional_reference>  (512) 
10.1016/j.bmc.2013.10.007

>  <optional_origin>  (512) 
None

>  <target>  (512) 
BCRP

$$$$

     RDKit          2D

 25 28  0  0  0  0  0  0  0  0999 V2000
   -1.2964    1.4973    0.0000 C   0  0  0  0  0  0  0  0  0  0  0  0
   -2.6111    0.7486    0.0000 N   0  0  0  0  0  0  0  0  0  0  0  0
   -2.6111   -0.7486    0.0000 C   0  0  0  0  0  0  0  0  0  0  0  0
   -1.2964   -1.4973    0.0000 N   0  0  0  0  0  0  0  0  0  0  0  0
    0.0000    0.7486    0.0000 C   0  0  0  0  0  0  0  0  0  0  0  0
    0.0000   -0.7486    0.0000 C   0  0  0  0  0  0  0  0  0  0  0  0
   -1.2907    2.9981    0.0000 N   0  0  0  0  0  0  0  0  0  0  0  0
   -2.5870    3.7544    0.0000 C   0  0  0  0  0  0  0  0  0  0  0  0
   -3.9086   -1.5029    0.0000 C   0  0  0  0  0  0  0  0  0  0  0  0
   -2.5835    5.2544    0.0000 C   0  0  0  0  0  0  0  0  0  0  0  0
   -3.8807    6.0076    0.0000 C   0  0  0  0  0  0  0  0  0  0  0  0
    1.2964    1.4973    0.0000 C   0  0  0  0  0  0  0  0  0  0  0  0
   -3.8801    7.5084    0.0000 O   0  0  0  0  0  0  0  0  0  0  0  0
    1.2964   -1.4973    0.0000 C   0  0  0  0  0  0  0  0  0  0  0  0
   -5.1852    3.7608    0.0000 C   0  0  0  0  0  0  0  0  0  0  0  0
   -3.8880    3.0076    0.0000 C   0  0  0  0  0  0  0  0  0  0  0  0
   -3.9097   -3.0028    0.0000 C   0  0  0  0  0  0  0  0  0  0  0  0
   -5.2071   -0.7519    0.0000 C   0  0  0  0  0  0  0  0  0  0  0  0
   -5.1815    5.2608    0.0000 C   0  0  0  0  0  0  0  0  0  0  0  0
   -4.9187    8.1095    0.0000 C   0  0  0  0  0  0  0  0  0  0  0  0
    2.5929    0.7486    0.0000 C   0  0  0  0  0  0  0  0  0  0  0  0
    2.5929   -0.7486    0.0000 C   0  0  0  0  0  0  0  0  0  0  0  0
   -6.5067   -1.5010    0.0000 C   0  0  0  0  0  0  0  0  0  0  0  0
   -5.2093   -3.7519    0.0000 C   0  0  0  0  0  0  0  0  0  0  0  0
   -6.5078   -3.0010    0.0000 C   0  0  0  0  0  0  0  0  0  0  0  0
  1  2  2  0
  2  3  1  0
  3  4  2  0
  1  5  1  0
  4  6  1  0
  5  6  2  0
  1  7  1  0
  7  8  1  0
  3  9  1  0
  8 10  2  0
 10 11  1  0
  5 12  1  0
 11 13  1  0
  6 14  1  0
  8 16  1  0
 15 16  2  0
  9 17  2  0
  9 18  1  0
 11 19  2  0
 15 19  1  0
 13 20  1  0
 12 21  2  0
 14 22  2  0
 21 22  1  0
 18 23  2  0
 17 24  1  0
 23 25  1  0
 24 25  2  0
M  END
>  <Classification>  (513) 
1

>  <pchembl>  (513) 
5.88

>  <InChI_steorem>  (513) 
InChI=1S/C21H17N3O/c1-25-17-11-7-10-16(14-17)22-21-18-12-5-6-13-19(18)23-20(24-21)15-8-3-2-4-9-15/h2-14H,1H3,(H,22,23,24)

>  <source>  (513) 
ChEMBL25

>  <source_id>  (513) 
25

>  <optional_reference>  (513) 
10.1016/j.bmcl.2012.08.024

>  <optional_origin>  (513) 
None

>  <target>  (513) 
BCRP

$$$$

     RDKit          2D

 25 28  0  0  0  0  0  0  0  0999 V2000
    2.2393   -2.6400    0.0000 O   0  0  0  0  0  0  0  0  0  0  0  0
    4.3827    0.2475    0.0000 N   0  0  0  0  0  0  0  0  0  0  0  0
    5.0972    1.4850    0.0000 N   0  0  0  0  0  0  0  0  0  0  0  0
    5.0972   -0.9900    0.0000 N   0  0  0  0  0  0  0  0  0  0  0  0
    5.8116    0.2475    0.0000 C   0  0  0  0  0  0  0  0  0  0  0  0
    5.0972   -0.1650    0.0000 C   0  0  0  0  0  0  0  0  0  0  0  0
    5.8116    1.0725    0.0000 C   0  0  0  0  0  0  0  0  0  0  0  0
    4.3827    1.0725    0.0000 C   0  0  0  0  0  0  0  0  0  0  0  0
    3.6682    1.4850    0.0000 C   0  0  0  0  0  0  0  0  0  0  0  0
    6.5261   -0.1650    0.0000 C   0  0  0  0  0  0  0  0  0  0  0  0
    6.5261    1.4850    0.0000 C   0  0  0  0  0  0  0  0  0  0  0  0
    4.3827   -1.4025    0.0000 C   0  0  0  0  0  0  0  0  0  0  0  0
    7.2406    0.2475    0.0000 C   0  0  0  0  0  0  0  0  0  0  0  0
    7.2406    1.0725    0.0000 C   0  0  0  0  0  0  0  0  0  0  0  0
    2.9538    1.0725    0.0000 C   0  0  0  0  0  0  0  0  0  0  0  0
    3.6682    2.3100    0.0000 C   0  0  0  0  0  0  0  0  0  0  0  0
    4.3827   -2.2275    0.0000 C   0  0  0  0  0  0  0  0  0  0  0  0
    3.6682   -0.9900    0.0000 C   0  0  0  0  0  0  0  0  0  0  0  0
    2.9538   -2.2275    0.0000 C   0  0  0  0  0  0  0  0  0  0  0  0
    3.6682   -2.6400    0.0000 C   0  0  0  0  0  0  0  0  0  0  0  0
    2.9538   -1.4025    0.0000 C   0  0  0  0  0  0  0  0  0  0  0  0
    2.2393    1.4850    0.0000 C   0  0  0  0  0  0  0  0  0  0  0  0
    2.9538    2.7225    0.0000 C   0  0  0  0  0  0  0  0  0  0  0  0
    2.2393    2.3100    0.0000 C   0  0  0  0  0  0  0  0  0  0  0  0
    2.2393   -3.4650    0.0000 C   0  0  0  0  0  0  0  0  0  0  0  0
  1 19  1  0
  1 25  1  0
  2  6  2  0
  2  8  1  0
  3  7  1  0
  3  8  2  0
  4  6  1  0
  4 12  1  0
  5  6  1  0
  5  7  2  0
  5 10  1  0
  7 11  1  0
  8  9  1  0
  9 15  2  0
  9 16  1  0
 10 13  2  0
 11 14  2  0
 12 17  2  0
 12 18  1  0
 13 14  1  0
 15 22  1  0
 16 23  2  0
 17 20  1  0
 18 21  2  0
 19 20  2  0
 19 21  1  0
 22 24  2  0
 23 24  1  0
M  END
>  <Classification>  (514) 
1

>  <pchembl>  (514) 
5.71

>  <InChI_steorem>  (514) 
InChI=1S/C21H17N3O/c1-25-17-13-11-16(12-14-17)22-21-18-9-5-6-10-19(18)23-20(24-21)15-7-3-2-4-8-15/h2-14H,1H3,(H,22,23,24)

>  <source>  (514) 
ChEMBL25

>  <source_id>  (514) 
25

>  <optional_reference>  (514) 
10.1016/j.bmcl.2012.08.024

>  <optional_origin>  (514) 
None

>  <target>  (514) 
BCRP

$$$$

     RDKit          2D

 26 28  0  0  0  0  0  0  0  0999 V2000
   10.4724   -9.0723    0.0000 C   0  0  0  0  0  0  0  0  0  0  0  0
   11.2296   -8.7329    0.0000 N   0  0  0  0  0  0  0  0  0  0  0  0
   10.5636   -9.9021    0.0000 N   0  0  0  0  0  0  0  0  0  0  0  0
    9.7531   -8.6604    0.0000 S   0  0  0  0  0  0  0  0  0  0  0  0
    8.3163   -8.6665    0.0000 C   0  0  0  0  0  0  0  0  0  0  0  0
   11.3760  -10.0698    0.0000 C   0  0  0  0  0  0  0  0  0  0  0  0
    9.0356   -9.0782    0.0000 C   0  0  0  0  0  0  0  0  0  0  0  0
   11.7878   -9.3506    0.0000 C   0  0  0  0  0  0  0  0  0  0  0  0
    8.3188   -7.8391    0.0000 C   0  0  0  0  0  0  0  0  0  0  0  0
   11.7981  -10.7897    0.0000 C   0  0  0  0  0  0  0  0  0  0  0  0
    7.6030   -9.0867    0.0000 N   0  0  0  0  0  0  0  0  0  0  0  0
   13.8782  -11.4887    0.0000 C   0  0  0  0  0  0  0  0  0  0  0  0
    7.6039   -7.4297    0.0000 C   0  0  0  0  0  0  0  0  0  0  0  0
    9.7513   -7.8308    0.0000 O   0  0  0  0  0  0  0  0  0  0  0  0
   12.6259  -10.7814    0.0000 C   0  0  0  0  0  0  0  0  0  0  0  0
   13.0461  -11.4946    0.0000 O   0  0  0  0  0  0  0  0  0  0  0  0
   12.6157   -9.3422    0.0000 C   0  0  0  0  0  0  0  0  0  0  0  0
   14.2816  -10.7646    0.0000 F   0  0  0  0  0  0  0  0  0  0  0  0
   14.2985  -12.2020    0.0000 F   0  0  0  0  0  0  0  0  0  0  0  0
    9.0382   -7.4280    0.0000 O   0  0  0  0  0  0  0  0  0  0  0  0
    6.8838   -8.6748    0.0000 C   0  0  0  0  0  0  0  0  0  0  0  0
   13.0359  -10.0555    0.0000 C   0  0  0  0  0  0  0  0  0  0  0  0
    6.8821   -7.8451    0.0000 C   0  0  0  0  0  0  0  0  0  0  0  0
    7.6021   -6.6001    0.0000 O   0  0  0  0  0  0  0  0  0  0  0  0
    9.0365   -6.5983    0.0000 C   0  0  0  0  0  0  0  0  0  0  0  0
    8.3239   -6.1846    0.0000 C   0  0  0  0  0  0  0  0  0  0  0  0
  2  1  1  0
  3  1  2  0
  4  1  1  0
  5  7  1  0
  6  3  1  0
  7  4  1  0
  8  2  1  0
  9  5  2  0
 10  6  2  0
 11  5  1  0
 12 16  1  0
 13  9  1  0
 14  4  1  0
 15 10  1  0
 16 15  1  0
 17  8  2  0
 18 12  1  0
 19 12  1  0
 20  9  1  0
 21 11  2  0
 22 17  1  0
 23 13  2  0
 24 13  1  0
 25 20  1  0
 26 24  1  0
  6  8  1  0
 15 22  2  0
 23 21  1  0
M  CHG  2   4   1  14  -1
M  END
>  <Classification>  (515) 
1

>  <pchembl>  (515) 
5.0

>  <InChI_steorem>  (515) 
InChI=1S/C16H15F2N3O4S/c1-23-13-5-6-19-12(14(13)24-2)8-26(22)16-20-10-4-3-9(25-15(17)18)7-11(10)21-16/h3-7,15H,8H2,1-2H3,(H,20,21)

>  <source>  (515) 
ChEMBL25

>  <source_id>  (515) 
25

>  <optional_reference>  (515) 
10.1158/0008-5472.can-03-4062

>  <optional_origin>  (515) 
None

>  <target>  (515) 
BCRP

$$$$

     RDKit          2D

 26 28  0  0  0  0  0  0  0  0999 V2000
    6.5261    0.5236    0.0000 O   0  0  0  0  0  0  0  0  0  0  0  0
    5.0972   -1.1264    0.0000 O   0  0  0  0  0  0  0  0  0  0  0  0
    6.5261   -1.9514    0.0000 O   0  0  0  0  0  0  0  0  0  0  0  0
    7.9551   -1.9514    0.0000 O   0  0  0  0  0  0  0  0  0  0  0  0
    9.3840    0.5236    0.0000 O   0  0  0  0  0  0  0  0  0  0  0  0
    2.9538    0.1111    0.0000 O   0  0  0  0  0  0  0  0  0  0  0  0
    2.9538    1.7611    0.0000 O   0  0  0  0  0  0  0  0  0  0  0  0
    7.2406   -0.7139    0.0000 C   0  0  0  0  0  0  0  0  0  0  0  0
    5.8116    0.1111    0.0000 C   0  0  0  0  0  0  0  0  0  0  0  0
    7.2406    0.1111    0.0000 C   0  0  0  0  0  0  0  0  0  0  0  0
    5.8116   -0.7139    0.0000 C   0  0  0  0  0  0  0  0  0  0  0  0
    6.5261   -1.1264    0.0000 C   0  0  0  0  0  0  0  0  0  0  0  0
    5.0972    0.5236    0.0000 C   0  0  0  0  0  0  0  0  0  0  0  0
    7.9551   -1.1264    0.0000 C   0  0  0  0  0  0  0  0  0  0  0  0
    7.9551    0.5236    0.0000 C   0  0  0  0  0  0  0  0  0  0  0  0
    8.6695    0.1111    0.0000 C   0  0  0  0  0  0  0  0  0  0  0  0
    8.6695   -0.7139    0.0000 C   0  0  0  0  0  0  0  0  0  0  0  0
    4.3827    0.1111    0.0000 C   0  0  0  0  0  0  0  0  0  0  0  0
    5.0972    1.3486    0.0000 C   0  0  0  0  0  0  0  0  0  0  0  0
    3.6682    0.5236    0.0000 C   0  0  0  0  0  0  0  0  0  0  0  0
    3.6682    1.3486    0.0000 C   0  0  0  0  0  0  0  0  0  0  0  0
    4.3827    1.7611    0.0000 C   0  0  0  0  0  0  0  0  0  0  0  0
    5.0972   -1.9514    0.0000 C   0  0  0  0  0  0  0  0  0  0  0  0
   10.0985    0.1111    0.0000 C   0  0  0  0  0  0  0  0  0  0  0  0
    2.2393    0.5236    0.0000 C   0  0  0  0  0  0  0  0  0  0  0  0
    2.2393    1.3486    0.0000 C   0  0  0  0  0  0  0  0  0  0  0  0
  1  9  1  0
  1 10  1  0
  2 11  1  0
  2 23  1  0
  3 12  2  0
  4 14  1  0
  5 16  1  0
  5 24  1  0
  6 20  1  0
  6 25  1  0
  7 21  1  0
  7 26  1  0
  8 10  2  0
  8 12  1  0
  8 14  1  0
  9 11  2  0
  9 13  1  0
 10 15  1  0
 11 12  1  0
 13 18  2  0
 13 19  1  0
 14 17  2  0
 15 16  2  0
 16 17  1  0
 18 20  1  0
 19 22  2  0
 20 21  2  0
 21 22  1  0
M  END
>  <Classification>  (516) 
1

>  <pchembl>  (516) 
6.41

>  <InChI_steorem>  (516) 
InChI=1S/C19H18O7/c1-22-11-8-12(20)16-15(9-11)26-18(19(25-4)17(16)21)10-5-6-13(23-2)14(7-10)24-3/h5-9,20H,1-4H3

>  <source>  (516) 
ChEMBL25

>  <source_id>  (516) 
25

>  <optional_reference>  (516) 
10.1016/j.bmc.2010.12.043

>  <optional_origin>  (516) 
None

>  <target>  (516) 
BCRP

$$$$

     RDKit          2D

 30 33  0  0  0  0  0  0  0  0999 V2000
    3.1250    1.5250    0.0000 C   0  0  0  0  0  0  0  0  0  0  0  0
    2.4042    1.9375    0.0000 C   0  0  0  0  0  0  0  0  0  0  0  0
    3.8375    1.9417    0.0000 C   0  0  0  0  0  0  0  0  0  0  0  0
    1.6958    0.7000    0.0000 C   0  0  0  0  0  0  0  0  0  0  0  0
    3.1208    0.6958    0.0000 N   0  0  0  0  0  0  0  0  0  0  0  0
    4.5542    1.5250    0.0000 N   0  0  0  0  0  0  0  0  0  0  0  0
    1.6917    1.5208    0.0000 C   0  0  0  0  0  0  0  0  0  0  0  0
    2.4125    0.2875    0.0000 C   0  0  0  0  0  0  0  0  0  0  0  0
    4.5500    0.6917    0.0000 C   0  0  0  0  0  0  0  0  0  0  0  0
    0.9833    0.2875    0.0000 C   0  0  0  0  0  0  0  0  0  0  0  0
    3.8375    0.2833    0.0000 C   0  0  0  0  0  0  0  0  0  0  0  0
    2.4000    2.7625    0.0000 O   0  0  0  0  0  0  0  0  0  0  0  0
    0.2667    0.7000    0.0000 N   0  0  0  0  0  0  0  0  0  0  0  0
   -1.8792    0.2833    0.0000 C   0  0  0  0  0  0  0  0  0  0  0  0
   -1.1625    0.6958    0.0000 C   0  0  0  0  0  0  0  0  0  0  0  0
    3.8375    2.7667    0.0000 O   0  0  0  0  0  0  0  0  0  0  0  0
    5.2667    0.2750    0.0000 O   0  0  0  0  0  0  0  0  0  0  0  0
   -2.5917    0.6958    0.0000 C   0  0  0  0  0  0  0  0  0  0  0  0
    5.2750    1.9417    0.0000 C   0  0  0  0  0  0  0  0  0  0  0  0
    0.9750    1.9333    0.0000 O   0  0  0  0  0  0  0  0  0  0  0  0
   -0.4458    0.2833    0.0000 C   0  0  0  0  0  0  0  0  0  0  0  0
    0.9833   -0.5375    0.0000 O   0  0  0  0  0  0  0  0  0  0  0  0
   -1.1625    1.5250    0.0000 C   0  0  0  0  0  0  0  0  0  0  0  0
   -2.5917    1.5250    0.0000 C   0  0  0  0  0  0  0  0  0  0  0  0
   -1.8792   -0.5417    0.0000 F   0  0  0  0  0  0  0  0  0  0  0  0
    5.9917    0.6875    0.0000 C   0  0  0  0  0  0  0  0  0  0  0  0
    5.9958    1.5208    0.0000 C   0  0  0  0  0  0  0  0  0  0  0  0
   -1.8792    1.9375    0.0000 C   0  0  0  0  0  0  0  0  0  0  0  0
   -3.3042    1.9333    0.0000 F   0  0  0  0  0  0  0  0  0  0  0  0
    5.2667    2.7708    0.0000 C   0  0  0  0  0  0  0  0  0  0  0  0
  2  1  2  0
  3  1  1  0
  4  8  2  0
  5  1  1  0
  6  3  1  0
  7  2  1  0
  8  5  1  0
  9  6  1  0
 10  4  1  0
 11  5  1  0
 12  2  1  0
 13 10  1  0
 14 15  2  0
 15 21  1  0
 16  3  2  0
 17  9  1  0
 18 14  1  0
 19  6  1  0
 20  7  2  0
 21 13  1  0
 22 10  2  0
 23 15  1  0
 24 28  1  0
 25 14  1  0
 26 27  1  0
 27 19  1  0
 28 23  2  0
 29 24  1  0
 19 30  1  0
  9 11  1  0
  4  7  1  0
 26 17  1  0
 18 24  2  0
M  END
>  <Classification>  (517) 
0

>  <pchembl>  (517) 
4.17

>  <InChI_steorem>  (517) 
InChI=1S/C20H19F2N3O5/c1-10-4-5-30-15-9-24-8-13(17(26)18(27)16(24)20(29)25(10)15)19(28)23-7-11-2-3-12(21)6-14(11)22/h2-3,6,8,10,15,27H,4-5,7,9H2,1H3,(H,23,28)

>  <source>  (517) 
ChEMBL25

>  <source_id>  (517) 
25

>  <optional_reference>  (517) 
10.1124/dmd.112.048918

>  <optional_origin>  (517) 
None

>  <target>  (517) 
BCRP

$$$$

     RDKit          2D

 42 47  0  0  0  0  0  0  0  0999 V2000
    0.0344   -2.0002    0.0000 C   0  0  0  0  0  0  0  0  0  0  0  0
    0.0333   -2.8270    0.0000 C   0  0  0  0  0  0  0  0  0  0  0  0
    0.7477   -3.2397    0.0000 C   0  0  0  0  0  0  0  0  0  0  0  0
    0.7459   -1.5877    0.0000 C   0  0  0  0  0  0  0  0  0  0  0  0
    1.4609   -1.9965    0.0000 C   0  0  0  0  0  0  0  0  0  0  0  0
    1.4643   -2.8291    0.0000 C   0  0  0  0  0  0  0  0  0  0  0  0
    2.1831   -3.2402    0.0000 N   0  0  0  0  0  0  0  0  0  0  0  0
    2.1762   -1.5750    0.0000 C   0  0  0  0  0  0  0  0  0  0  0  0
    2.8995   -1.9906    0.0000 C   0  0  0  0  0  0  0  0  0  0  0  0
    2.9024   -2.8229    0.0000 C   0  0  0  0  0  0  0  0  0  0  0  0
    3.6235   -3.2347    0.0000 C   0  0  0  0  0  0  0  0  0  0  0  0
    4.3421   -2.8154    0.0000 C   0  0  0  0  0  0  0  0  0  0  0  0
    4.3352   -1.9800    0.0000 C   0  0  0  0  0  0  0  0  0  0  0  0
    3.6136   -1.5720    0.0000 C   0  0  0  0  0  0  0  0  0  0  0  0
    2.1717   -0.7506    0.0000 O   0  0  0  0  0  0  0  0  0  0  0  0
    3.6273   -4.0592    0.0000 C   0  0  0  0  0  0  0  0  0  0  0  0
    2.9151   -4.4748    0.0000 O   0  0  0  0  0  0  0  0  0  0  0  0
    4.3432   -4.4682    0.0000 N   0  0  0  0  0  0  0  0  0  0  0  0
    5.0554   -4.0527    0.0000 C   0  0  0  0  0  0  0  0  0  0  0  0
    5.7668   -4.4642    0.0000 C   0  0  0  0  0  0  0  0  0  0  0  0
    6.4785   -4.0493    0.0000 C   0  0  0  0  0  0  0  0  0  0  0  0
    6.4752   -3.2239    0.0000 C   0  0  0  0  0  0  0  0  0  0  0  0
    5.7543   -2.8151    0.0000 C   0  0  0  0  0  0  0  0  0  0  0  0
    5.0456   -3.2323    0.0000 C   0  0  0  0  0  0  0  0  0  0  0  0
    7.1868   -2.8074    0.0000 C   0  0  0  0  0  0  0  0  0  0  0  0
    8.6149   -2.7990    0.0000 N   0  0  0  0  0  0  0  0  0  0  0  0
    7.9020   -3.2147    0.0000 C   0  0  0  0  0  0  0  0  0  0  0  0
    9.3277   -3.2095    0.0000 C   0  0  0  0  0  0  0  0  0  0  0  0
    9.3228   -1.5599    0.0000 C   0  0  0  0  0  0  0  0  0  0  0  0
    8.6057   -1.9738    0.0000 C   0  0  0  0  0  0  0  0  0  0  0  0
   10.0391   -1.9716    0.0000 C   0  0  0  0  0  0  0  0  0  0  0  0
   10.0357   -2.7938    0.0000 C   0  0  0  0  0  0  0  0  0  0  0  0
   10.7449   -3.2059    0.0000 C   0  0  0  0  0  0  0  0  0  0  0  0
   11.4579   -2.7971    0.0000 C   0  0  0  0  0  0  0  0  0  0  0  0
   11.4573   -1.9718    0.0000 C   0  0  0  0  0  0  0  0  0  0  0  0
   10.7475   -1.5634    0.0000 C   0  0  0  0  0  0  0  0  0  0  0  0
   12.1709   -1.5588    0.0000 O   0  0  0  0  0  0  0  0  0  0  0  0
   12.8854   -1.9702    0.0000 C   0  0  0  0  0  0  0  0  0  0  0  0
   12.1715   -3.2101    0.0000 O   0  0  0  0  0  0  0  0  0  0  0  0
   12.8861   -2.7987    0.0000 C   0  0  0  0  0  0  0  0  0  0  0  0
    0.7462   -4.0642    0.0000 O   0  0  0  0  0  0  0  0  0  0  0  0
    0.0315   -4.4752    0.0000 C   0  0  0  0  0  0  0  0  0  0  0  0
 20 21  2  0
  9 10  2  0
 21 22  1  0
  5  6  1  0
 22 23  2  0
 10 11  1  0
 23 24  1  0
 24 19  2  0
 22 25  1  0
 25 27  1  0
 26 27  1  0
 11 12  2  0
  2  3  1  0
 26 28  1  0
 12 13  1  0
  3  6  2  0
 13 14  2  0
 26 30  1  0
 28 32  1  0
 31 29  1  0
 29 30  1  0
 14  9  1  0
  1  2  2  0
 31 32  2  0
  8 15  2  0
 32 33  1  0
  5  8  1  0
 33 34  2  0
 11 16  1  0
 34 35  1  0
  6  7  1  0
 35 36  2  0
 36 31  1  0
 16 17  2  0
 35 37  1  0
  7 10  1  0
 37 38  1  0
 16 18  1  0
 34 39  1  0
  9  8  1  0
 39 40  1  0
 18 19  1  0
  3 41  1  0
  5  4  2  0
 41 42  1  0
 19 20  1  0
  4  1  1  0
M  END
>  <Classification>  (518) 
1

>  <pchembl>  (518) 
6.39

>  <InChI_steorem>  (518) 
InChI=1S/C34H33N3O5/c1-40-28-9-5-7-26-32(28)36-31-25(33(26)38)6-4-8-27(31)34(39)35-24-12-10-21(11-13-24)14-16-37-17-15-22-18-29(41-2)30(42-3)19-23(22)20-37/h4-13,18-19H,14-17,20H2,1-3H3,(H,35,39)(H,36,38)

>  <source>  (518) 
ChEMBL25

>  <source_id>  (518) 
25

>  <optional_reference>  (518) 
10.1016/j.bmc.2007.02.017

>  <optional_origin>  (518) 
None

>  <target>  (518) 
BCRP

$$$$

     RDKit          2D

 44 47  0  0  0  0  0  0  0  0999 V2000
    6.5272    2.4621    0.0000 C   0  0  0  0  0  0  0  0  0  0  0  0
    5.8062    2.8769    0.0000 C   0  0  0  0  0  0  0  0  0  0  0  0
    5.0951    1.6374    0.0000 C   0  0  0  0  0  0  0  0  0  0  0  0
    6.5272    1.6374    0.0000 C   0  0  0  0  0  0  0  0  0  0  0  0
    3.2430   -1.3161    0.0000 C   0  0  0  0  0  0  0  0  0  0  0  0
    5.0951    2.4621    0.0000 C   0  0  0  0  0  0  0  0  0  0  0  0
    5.8062    1.2225    0.0000 O   0  0  0  0  0  0  0  0  0  0  0  0
    2.5565   -0.0517    0.0000 C   0  0  0  0  0  0  0  0  0  0  0  0
    3.2578   -0.4814    0.0000 C   0  0  0  0  0  0  0  0  0  0  0  0
    7.2285    2.8769    0.0000 N   0  0  0  0  0  0  0  0  0  0  0  0
    1.8355   -0.4567    0.0000 O   0  0  0  0  0  0  0  0  0  0  0  0
    2.5171   -1.7457    0.0000 C   0  0  0  0  0  0  0  0  0  0  0  0
    1.8059   -1.3111    0.0000 C   0  0  0  0  0  0  0  0  0  0  0  0
    4.3789    1.2225    0.0000 C   0  0  0  0  0  0  0  0  0  0  0  0
    7.9545    2.4621    0.0000 C   0  0  0  0  0  0  0  0  0  0  0  0
    3.6579    1.6374    0.0000 C   0  0  0  0  0  0  0  0  0  0  0  0
    2.5862    1.0447    0.0000 O   0  0  0  0  0  0  0  0  0  0  0  0
    3.9492   -1.7457    0.0000 O   0  0  0  0  0  0  0  0  0  0  0  0
    4.6604   -1.3259    0.0000 C   0  0  0  0  0  0  0  0  0  0  0  0
    8.6657    2.8769    0.0000 C   0  0  0  0  0  0  0  0  0  0  0  0
    4.3789    2.8769    0.0000 C   0  0  0  0  0  0  0  0  0  0  0  0
   10.0978    2.8917    0.0000 C   0  0  0  0  0  0  0  0  0  0  0  0
    9.3867    2.4769    0.0000 C   0  0  0  0  0  0  0  0  0  0  0  0
    5.8062    3.6968    0.0000 O   0  0  0  0  0  0  0  0  0  0  0  0
   11.5499    2.8522    0.0000 C   0  0  0  0  0  0  0  0  0  0  0  0
    7.2285    1.2225    0.0000 O   0  0  0  0  0  0  0  0  0  0  0  0
    3.6579    2.4621    0.0000 C   0  0  0  0  0  0  0  0  0  0  0  0
   10.0880    3.7116    0.0000 C   0  0  0  0  0  0  0  0  0  0  0  0
    7.9545    1.6374    0.0000 O   0  0  0  0  0  0  0  0  0  0  0  0
   10.8140    2.4769    0.0000 C   0  0  0  0  0  0  0  0  0  0  0  0
    4.6604   -0.4419    0.0000 O   0  0  0  0  0  0  0  0  0  0  0  0
   12.2512    2.4177    0.0000 C   0  0  0  0  0  0  0  0  0  0  0  0
    8.6608    3.7066    0.0000 C   0  0  0  0  0  0  0  0  0  0  0  0
    9.3768    4.1215    0.0000 C   0  0  0  0  0  0  0  0  0  0  0  0
    3.9245   -0.0715    0.0000 O   0  0  0  0  0  0  0  0  0  0  0  0
    5.3864   -1.7160    0.0000 N   0  0  0  0  0  0  0  0  0  0  0  0
    2.5023   -2.5408    0.0000 O   0  0  0  0  0  0  0  0  0  0  0  0
   10.7992    4.1363    0.0000 O   0  0  0  0  0  0  0  0  0  0  0  0
    1.0058   -1.5975    0.0000 C   0  0  0  0  0  0  0  0  0  0  0  0
    1.4305   -2.0271    0.0000 C   0  0  0  0  0  0  0  0  0  0  0  0
    4.3789    0.4026    0.0000 C   0  0  0  0  0  0  0  0  0  0  0  0
   12.2364    1.6324    0.0000 C   0  0  0  0  0  0  0  0  0  0  0  0
   12.8981    2.9263    0.0000 C   0  0  0  0  0  0  0  0  0  0  0  0
    1.7120   -2.8074    0.0000 C   0  0  0  0  0  0  0  0  0  0  0  0
  2  1  2  0
  3  7  1  0
  4  1  1  0
  5  9  1  0
  6  2  1  0
  7  4  1  0
  8 17  1  0
  9  8  1  0
 10  1  1  0
 11  8  1  0
 12 13  1  0
 13 11  1  0
 14  3  2  0
 15 10  1  0
 16 14  1  0
 17 16  1  0
  5 18  1  0
 19 18  1  0
 20 15  1  0
 21  6  2  0
 22 23  2  0
 23 20  1  0
 24  2  1  0
 25 30  1  0
 26  4  2  0
 27 21  1  0
 28 34  2  0
 29 15  2  0
 30 22  1  0
 31 19  2  0
 32 25  2  3
 33 20  2  0
 34 33  1  0
  9 35  1  0
 36 19  1  0
 12 37  1  0
 38 28  1  0
 39 13  1  0
 40 13  1  0
 41 14  1  0
 42 32  1  0
 43 32  1  0
 44 37  1  0
  3  6  1  0
 16 27  2  0
 22 28  1  0
  5 12  1  0
M  END
>  <Classification>  (519) 
0

>  <pchembl>  (519) 
4.18

>  <InChI_steorem>  (519) 
InChI=1S/C31H36N2O11/c1-14(2)7-8-16-13-17(9-11-19(16)34)27(37)33-21-22(35)18-10-12-20(15(3)24(18)42-28(21)38)41-29-23(36)25(43-30(32)39)26(40-6)31(4,5)44-29/h7,9-13,23,25-26,29,34-36H,8H2,1-6H3,(H2,32,39)(H,33,37)

>  <source>  (519) 
ChEMBL25

>  <source_id>  (519) 
25

>  <optional_reference>  (519) 
10.1016/j.bmc.2008.07.034

>  <optional_origin>  (519) 
None

>  <target>  (519) 
BCRP

$$$$

     RDKit          2D

 48 53  0  0  0  0  0  0  0  0999 V2000
    7.6375   -1.3708    0.0000 C   0  0  0  0  0  0  0  0  0  0  0  0
    7.6333   -2.1958    0.0000 C   0  0  0  0  0  0  0  0  0  0  0  0
    6.9208   -0.9583    0.0000 C   0  0  0  0  0  0  0  0  0  0  0  0
    6.9125   -3.4292    0.0000 C   0  0  0  0  0  0  0  0  0  0  0  0
    6.1958   -3.8417    0.0000 C   0  0  0  0  0  0  0  0  0  0  0  0
    6.9167   -2.6042    0.0000 N   0  0  0  0  0  0  0  0  0  0  0  0
    8.3458   -0.9583    0.0000 C   0  0  0  0  0  0  0  0  0  0  0  0
    8.3458   -2.6083    0.0000 C   0  0  0  0  0  0  0  0  0  0  0  0
    0.4875    0.2917    0.0000 C   0  0  0  0  0  0  0  0  0  0  0  0
    5.4833   -5.0750    0.0000 N   0  0  0  0  0  0  0  0  0  0  0  0
    6.2083   -1.3708    0.0000 N   0  0  0  0  0  0  0  0  0  0  0  0
    0.4917    1.1250    0.0000 C   0  0  0  0  0  0  0  0  0  0  0  0
    1.9292    0.2917    0.0000 N   0  0  0  0  0  0  0  0  0  0  0  0
    9.0583   -1.3667    0.0000 C   0  0  0  0  0  0  0  0  0  0  0  0
    9.0625   -2.1958    0.0000 C   0  0  0  0  0  0  0  0  0  0  0  0
    5.4833   -3.4250    0.0000 C   0  0  0  0  0  0  0  0  0  0  0  0
   -0.2250   -0.1167    0.0000 C   0  0  0  0  0  0  0  0  0  0  0  0
   -0.9375    0.2958    0.0000 C   0  0  0  0  0  0  0  0  0  0  0  0
   -0.9375    1.1250    0.0000 C   0  0  0  0  0  0  0  0  0  0  0  0
   -0.2250    1.5375    0.0000 C   0  0  0  0  0  0  0  0  0  0  0  0
    6.1958   -4.6625    0.0000 C   0  0  0  0  0  0  0  0  0  0  0  0
    1.2042   -0.1208    0.0000 C   0  0  0  0  0  0  0  0  0  0  0  0
    4.7708   -3.8375    0.0000 C   0  0  0  0  0  0  0  0  0  0  0  0
    6.9250   -0.1333    0.0000 O   0  0  0  0  0  0  0  0  0  0  0  0
    7.6250   -3.8458    0.0000 O   0  0  0  0  0  0  0  0  0  0  0  0
    4.7667   -4.6583    0.0000 C   0  0  0  0  0  0  0  0  0  0  0  0
    1.2083    1.5458    0.0000 C   0  0  0  0  0  0  0  0  0  0  0  0
    5.4917   -0.9583    0.0000 C   0  0  0  0  0  0  0  0  0  0  0  0
    1.9292    1.1250    0.0000 C   0  0  0  0  0  0  0  0  0  0  0  0
    2.6417   -0.1250    0.0000 C   0  0  0  0  0  0  0  0  0  0  0  0
    9.7708   -0.9542    0.0000 O   0  0  0  0  0  0  0  0  0  0  0  0
   10.4875   -1.3667    0.0000 C   0  0  0  0  0  0  0  0  0  0  0  0
    4.0708   -0.1292    0.0000 C   0  0  0  0  0  0  0  0  0  0  0  0
    9.7750   -2.6083    0.0000 O   0  0  0  0  0  0  0  0  0  0  0  0
   -1.6500    1.5333    0.0000 O   0  0  0  0  0  0  0  0  0  0  0  0
   -1.6542   -0.1167    0.0000 O   0  0  0  0  0  0  0  0  0  0  0  0
    3.3583    0.2875    0.0000 C   0  0  0  0  0  0  0  0  0  0  0  0
    5.4917   -0.1292    0.0000 C   0  0  0  0  0  0  0  0  0  0  0  0
    4.7750   -1.3667    0.0000 C   0  0  0  0  0  0  0  0  0  0  0  0
    4.7792    0.2833    0.0000 C   0  0  0  0  0  0  0  0  0  0  0  0
    4.0625   -0.9542    0.0000 C   0  0  0  0  0  0  0  0  0  0  0  0
    4.0625   -3.4208    0.0000 C   0  0  0  0  0  0  0  0  0  0  0  0
    4.0542   -5.0667    0.0000 C   0  0  0  0  0  0  0  0  0  0  0  0
   10.4875   -2.1958    0.0000 C   0  0  0  0  0  0  0  0  0  0  0  0
   -2.3667    1.1208    0.0000 C   0  0  0  0  0  0  0  0  0  0  0  0
   -2.3667    0.2958    0.0000 C   0  0  0  0  0  0  0  0  0  0  0  0
    3.3458   -3.8292    0.0000 C   0  0  0  0  0  0  0  0  0  0  0  0
    3.3458   -4.6542    0.0000 C   0  0  0  0  0  0  0  0  0  0  0  0
  2  1  1  0
  3  1  1  0
  4  6  1  0
  5  4  1  0
  6  2  1  0
  7  1  2  0
  8  2  2  0
  9 22  1  0
 10 21  2  0
 11  3  1  0
 12 27  1  0
 13 30  1  0
 14  7  1  0
 15 14  2  0
 16  5  2  0
 17  9  2  0
 18 17  1  0
 19 20  1  0
 20 12  2  0
 21  5  1  0
 22 13  1  0
 23 16  1  0
 24  3  2  0
 25  4  2  0
 26 10  1  0
 27 29  1  0
 28 11  1  0
 29 13  1  0
 30 37  1  0
 31 14  1  0
 32 31  1  0
 33 40  2  0
 34 15  1  0
 35 19  1  0
 36 18  1  0
 37 33  1  0
 38 28  2  0
 39 28  1  0
 40 38  1  0
 41 39  2  0
 42 23  2  0
 43 26  2  0
 44 34  1  0
 45 35  1  0
 46 36  1  0
 47 42  1  0
 48 43  1  0
 15  8  1  0
 41 33  1  0
 23 26  1  0
 48 47  2  0
  9 12  1  0
 18 19  2  0
M  END
>  <Classification>  (520) 
1

>  <pchembl>  (520) 
5.84

>  <InChI_steorem>  (520) 
InChI=1S/C38H38N4O6/c1-45-33-18-25-14-16-42(23-28(25)19-34(33)46-2)15-13-24-9-11-29(12-10-24)40-38(44)30-20-35(47-3)36(48-4)21-32(30)41-37(43)27-17-26-7-5-6-8-31(26)39-22-27/h5-12,17-22H,13-16,23H2,1-4H3,(H,40,44)(H,41,43)

>  <source>  (520) 
ChEMBL25

>  <source_id>  (520) 
25

>  <optional_reference>  (520) 
10.1016/j.bmc.2008.07.034

>  <optional_origin>  (520) 
None

>  <target>  (520) 
BCRP

$$$$

     RDKit          2D

 29 32  0  0  0  0  0  0  0  0999 V2000
   13.5664  -17.7557    0.0000 N   0  0  0  0  0  0  0  0  0  0  0  0
   13.0449  -17.1378    0.0000 N   0  0  0  0  0  0  0  0  0  0  0  0
   12.2774  -17.4859    0.0000 C   0  0  0  0  0  0  0  0  0  0  0  0
   12.3752  -18.2943    0.0000 C   0  0  0  0  0  0  0  0  0  0  0  0
   13.1571  -18.4644    0.0000 C   0  0  0  0  0  0  0  0  0  0  0  0
   13.5795  -19.1459    0.0000 C   0  0  0  0  0  0  0  0  0  0  0  0
   13.1797  -19.8665    0.0000 C   0  0  0  0  0  0  0  0  0  0  0  0
   13.5881  -20.5735    0.0000 C   0  0  0  0  0  0  0  0  0  0  0  0
   14.4215  -20.5736    0.0000 C   0  0  0  0  0  0  0  0  0  0  0  0
   14.8173  -19.8535    0.0000 C   0  0  0  0  0  0  0  0  0  0  0  0
   14.4088  -19.1465    0.0000 C   0  0  0  0  0  0  0  0  0  0  0  0
   15.6214  -19.8405    0.0000 O   0  0  0  0  0  0  0  0  0  0  0  0
   16.0645  -20.5365    0.0000 C   0  0  0  0  0  0  0  0  0  0  0  0
   14.8395  -21.2560    0.0000 O   0  0  0  0  0  0  0  0  0  0  0  0
   15.6688  -21.2566    0.0000 C   0  0  0  0  0  0  0  0  0  0  0  0
   13.1965  -21.2931    0.0000 Cl  0  0  0  0  0  0  0  0  0  0  0  0
   11.5687  -17.0766    0.0000 C   0  0  0  0  0  0  0  0  0  0  0  0
   10.8629  -17.4852    0.0000 C   0  0  0  0  0  0  0  0  0  0  0  0
   10.1542  -17.0760    0.0000 C   0  0  0  0  0  0  0  0  0  0  0  0
    9.4485  -17.4846    0.0000 C   0  0  0  0  0  0  0  0  0  0  0  0
    8.7398  -17.0753    0.0000 C   0  0  0  0  0  0  0  0  0  0  0  0
    8.7409  -16.2575    0.0000 C   0  0  0  0  0  0  0  0  0  0  0  0
    9.4508  -15.8488    0.0000 C   0  0  0  0  0  0  0  0  0  0  0  0
   10.1554  -16.2581    0.0000 C   0  0  0  0  0  0  0  0  0  0  0  0
   10.8653  -15.8495    0.0000 C   0  0  0  0  0  0  0  0  0  0  0  0
   11.5698  -16.2587    0.0000 C   0  0  0  0  0  0  0  0  0  0  0  0
   14.3789  -17.6579    0.0000 C   0  0  0  0  0  0  0  0  0  0  0  0
   14.8755  -18.3267    0.0000 O   0  0  0  0  0  0  0  0  0  0  0  0
   14.7181  -16.9120    0.0000 C   0  0  0  0  0  0  0  0  0  0  0  0
  1  2  1  0
  2  3  2  0
  3  4  1  0
  4  5  1  0
  1  5  1  0
  5  6  1  0
  6  7  2  0
  7  8  1  0
  8  9  2  0
  9 10  1  0
 10 11  2  0
  6 11  1  0
 10 12  1  0
 12 13  1  0
  9 14  1  0
 14 15  1  0
  8 16  1  0
  3 17  1  0
 18 17  2  0
 18 19  1  0
 20 19  2  0
 21 20  1  0
 22 21  2  0
 23 22  1  0
 24 23  2  0
 24 19  1  0
 25 24  1  0
 26 25  2  0
 17 26  1  0
  1 27  1  0
 27 28  2  0
 27 29  1  0
M  END
>  <Classification>  (521) 
1

>  <pchembl>  (521) 
5.13

>  <InChI_steorem>  (521) 
InChI=1S/C23H21ClN2O3/c1-14(27)26-21(18-11-19(24)23(29-3)22(12-18)28-2)13-20(25-26)17-9-8-15-6-4-5-7-16(15)10-17/h4-12,21H,13H2,1-3H3

>  <source>  (521) 
ChEMBL25

>  <source_id>  (521) 
25

>  <optional_reference>  (521) 
10.1016/j.bmcl.2016.09.076

>  <optional_origin>  (521) 
None

>  <target>  (521) 
BCRP

$$$$

     RDKit          2D

 21 23  0  0  0  0  0  0  0  0999 V2000
   38.2167  -19.2205    0.0000 C   0  0  0  0  0  0  0  0  0  0  0  0
   38.2156  -20.0441    0.0000 C   0  0  0  0  0  0  0  0  0  0  0  0
   38.9277  -20.4572    0.0000 C   0  0  0  0  0  0  0  0  0  0  0  0
   39.6415  -20.0437    0.0000 C   0  0  0  0  0  0  0  0  0  0  0  0
   39.6387  -19.2169    0.0000 C   0  0  0  0  0  0  0  0  0  0  0  0
   38.9260  -18.8116    0.0000 C   0  0  0  0  0  0  0  0  0  0  0  0
   40.3490  -18.8056    0.0000 C   0  0  0  0  0  0  0  0  0  0  0  0
   41.1005  -19.1327    0.0000 N   0  0  0  0  0  0  0  0  0  0  0  0
   41.6492  -18.5192    0.0000 N   0  0  0  0  0  0  0  0  0  0  0  0
   41.2337  -17.8088    0.0000 N   0  0  0  0  0  0  0  0  0  0  0  0
   40.4310  -17.9860    0.0000 N   0  0  0  0  0  0  0  0  0  0  0  0
   42.4692  -18.5189    0.0000 C   0  0  0  0  0  0  0  0  0  0  0  0
   42.8755  -19.2317    0.0000 C   0  0  0  0  0  0  0  0  0  0  0  0
   43.6948  -19.2318    0.0000 C   0  0  0  0  0  0  0  0  0  0  0  0
   44.1074  -18.5204    0.0000 C   0  0  0  0  0  0  0  0  0  0  0  0
   43.6907  -17.8075    0.0000 C   0  0  0  0  0  0  0  0  0  0  0  0
   42.8728  -17.8109    0.0000 C   0  0  0  0  0  0  0  0  0  0  0  0
   40.3503  -20.4505    0.0000 N   0  0  0  0  0  0  0  0  0  0  0  0
   40.3523  -21.2677    0.0000 C   0  0  0  0  0  0  0  0  0  0  0  0
   41.0610  -21.6745    0.0000 C   0  0  0  0  0  0  0  0  0  0  0  0
   39.6456  -21.6780    0.0000 O   0  0  0  0  0  0  0  0  0  0  0  0
  1  2  2  0
  2  3  1  0
  3  4  2  0
  4  5  1  0
  5  6  2  0
  6  1  1  0
  5  7  1  0
  7  8  2  0
  8  9  1  0
  9 10  1  0
 10 11  2  0
 11  7  1  0
  9 12  1  0
 12 13  2  0
 13 14  1  0
 14 15  2  0
 15 16  1  0
 16 17  2  0
 17 12  1  0
  4 18  1  0
 18 19  1  0
 19 20  1  0
 19 21  2  0
M  END
>  <Classification>  (522) 
1

>  <pchembl>  (522) 
5.16

>  <InChI_steorem>  (522) 
InChI=1S/C15H13N5O/c1-11(21)16-14-10-6-5-9-13(14)15-17-19-20(18-15)12-7-3-2-4-8-12/h2-10H,1H3,(H,16,21)

>  <source>  (522) 
ChEMBL26

>  <source_id>  (522) 
26

>  <optional_reference>  (522) 
10.1016/j.ejmech.2018.01.012

>  <optional_origin>  (522) 
None

>  <target>  (522) 
BCRP

$$$$

     RDKit          2D

 23 25  0  0  0  0  0  0  0  0999 V2000
   28.5590  -19.4805    0.0000 C   0  0  0  0  0  0  0  0  0  0  0  0
   28.5579  -20.3041    0.0000 C   0  0  0  0  0  0  0  0  0  0  0  0
   29.2700  -20.7172    0.0000 C   0  0  0  0  0  0  0  0  0  0  0  0
   29.9838  -20.3037    0.0000 C   0  0  0  0  0  0  0  0  0  0  0  0
   29.9810  -19.4769    0.0000 C   0  0  0  0  0  0  0  0  0  0  0  0
   29.2682  -19.0716    0.0000 C   0  0  0  0  0  0  0  0  0  0  0  0
   30.6913  -19.0656    0.0000 C   0  0  0  0  0  0  0  0  0  0  0  0
   31.4428  -19.3927    0.0000 N   0  0  0  0  0  0  0  0  0  0  0  0
   31.9915  -18.7792    0.0000 N   0  0  0  0  0  0  0  0  0  0  0  0
   31.5760  -18.0688    0.0000 N   0  0  0  0  0  0  0  0  0  0  0  0
   30.7733  -18.2460    0.0000 N   0  0  0  0  0  0  0  0  0  0  0  0
   32.8115  -18.7789    0.0000 C   0  0  0  0  0  0  0  0  0  0  0  0
   33.2178  -19.4917    0.0000 C   0  0  0  0  0  0  0  0  0  0  0  0
   34.0371  -19.4918    0.0000 C   0  0  0  0  0  0  0  0  0  0  0  0
   34.4497  -18.7804    0.0000 C   0  0  0  0  0  0  0  0  0  0  0  0
   34.0330  -18.0675    0.0000 C   0  0  0  0  0  0  0  0  0  0  0  0
   33.2151  -18.0709    0.0000 C   0  0  0  0  0  0  0  0  0  0  0  0
   30.6925  -20.7105    0.0000 N   0  0  0  0  0  0  0  0  0  0  0  0
   30.6946  -21.5277    0.0000 C   0  0  0  0  0  0  0  0  0  0  0  0
   31.4033  -21.9345    0.0000 C   0  0  0  0  0  0  0  0  0  0  0  0
   29.9879  -21.9380    0.0000 O   0  0  0  0  0  0  0  0  0  0  0  0
   35.2669  -18.7790    0.0000 O   0  0  0  0  0  0  0  0  0  0  0  0
   35.6767  -19.4860    0.0000 C   0  0  0  0  0  0  0  0  0  0  0  0
  1  2  2  0
  2  3  1  0
  3  4  2  0
  4  5  1  0
  5  6  2  0
  6  1  1  0
  5  7  1  0
  7  8  2  0
  8  9  1  0
  9 10  1  0
 10 11  2  0
 11  7  1  0
  9 12  1  0
 12 13  2  0
 13 14  1  0
 14 15  2  0
 15 16  1  0
 16 17  2  0
 17 12  1  0
  4 18  1  0
 18 19  1  0
 19 20  1  0
 19 21  2  0
 15 22  1  0
 22 23  1  0
M  END
>  <Classification>  (523) 
1

>  <pchembl>  (523) 
5.49

>  <InChI_steorem>  (523) 
InChI=1S/C16H15N5O2/c1-11(22)17-15-6-4-3-5-14(15)16-18-20-21(19-16)12-7-9-13(23-2)10-8-12/h3-10H,1-2H3,(H,17,22)

>  <source>  (523) 
ChEMBL26

>  <source_id>  (523) 
26

>  <optional_reference>  (523) 
10.1016/j.ejmech.2018.01.012

>  <optional_origin>  (523) 
None

>  <target>  (523) 
BCRP

$$$$

     RDKit          2D

 23 26  0  0  0  0  0  0  0  0999 V2000
   20.9236  -19.1462    0.0000 C   0  0  0  0  0  0  0  0  0  0  0  0
   20.9225  -19.9698    0.0000 C   0  0  0  0  0  0  0  0  0  0  0  0
   21.6347  -20.3829    0.0000 C   0  0  0  0  0  0  0  0  0  0  0  0
   22.3484  -19.9694    0.0000 C   0  0  0  0  0  0  0  0  0  0  0  0
   22.3456  -19.1426    0.0000 C   0  0  0  0  0  0  0  0  0  0  0  0
   21.6329  -18.7373    0.0000 C   0  0  0  0  0  0  0  0  0  0  0  0
   23.0559  -18.7313    0.0000 C   0  0  0  0  0  0  0  0  0  0  0  0
   23.8074  -19.0584    0.0000 N   0  0  0  0  0  0  0  0  0  0  0  0
   24.3561  -18.4449    0.0000 N   0  0  0  0  0  0  0  0  0  0  0  0
   23.9407  -17.7345    0.0000 N   0  0  0  0  0  0  0  0  0  0  0  0
   23.1379  -17.9117    0.0000 N   0  0  0  0  0  0  0  0  0  0  0  0
   25.1761  -18.4446    0.0000 C   0  0  0  0  0  0  0  0  0  0  0  0
   25.5825  -19.1574    0.0000 C   0  0  0  0  0  0  0  0  0  0  0  0
   26.4017  -19.1575    0.0000 C   0  0  0  0  0  0  0  0  0  0  0  0
   26.8143  -18.4461    0.0000 C   0  0  0  0  0  0  0  0  0  0  0  0
   26.3976  -17.7332    0.0000 C   0  0  0  0  0  0  0  0  0  0  0  0
   25.5797  -17.7366    0.0000 C   0  0  0  0  0  0  0  0  0  0  0  0
   23.0533  -20.3761    0.0000 C   0  0  0  0  0  0  0  0  0  0  0  0
   23.0540  -21.1944    0.0000 C   0  0  0  0  0  0  0  0  0  0  0  0
   23.7619  -21.6012    0.0000 C   0  0  0  0  0  0  0  0  0  0  0  0
   24.4695  -21.1908    0.0000 C   0  0  0  0  0  0  0  0  0  0  0  0
   24.4649  -20.3693    0.0000 C   0  0  0  0  0  0  0  0  0  0  0  0
   23.7564  -19.9663    0.0000 C   0  0  0  0  0  0  0  0  0  0  0  0
  1  2  2  0
  2  3  1  0
  3  4  2  0
  4  5  1  0
  5  6  2  0
  6  1  1  0
  5  7  1  0
  7  8  2  0
  8  9  1  0
  9 10  1  0
 10 11  2  0
 11  7  1  0
  9 12  1  0
 12 13  2  0
 13 14  1  0
 14 15  2  0
 15 16  1  0
 16 17  2  0
 17 12  1  0
 18 19  2  0
 19 20  1  0
 20 21  2  0
 21 22  1  0
 22 23  2  0
 23 18  1  0
  4 18  1  0
M  END
>  <Classification>  (524) 
1

>  <pchembl>  (524) 
5.08

>  <InChI_steorem>  (524) 
InChI=1S/C19H14N4/c1-3-9-15(10-4-1)17-13-7-8-14-18(17)19-20-22-23(21-19)16-11-5-2-6-12-16/h1-14H

>  <source>  (524) 
ChEMBL26

>  <source_id>  (524) 
26

>  <optional_reference>  (524) 
10.1016/j.ejmech.2018.01.012

>  <optional_origin>  (524) 
None

>  <target>  (524) 
BCRP

$$$$

     RDKit          2D

 25 27  0  0  0  0  0  0  0  0999 V2000
    7.7458   -3.6833    0.0000 C   0  0  0  0  0  0  0  0  0  0  0  0
    8.4603   -3.2708    0.0000 C   0  0  0  0  0  0  0  0  0  0  0  0
    9.1748   -3.6833    0.0000 C   0  0  0  0  0  0  0  0  0  0  0  0
    8.4603   -2.4458    0.0000 O   0  0  0  0  0  0  0  0  0  0  0  0
    9.8892   -3.2708    0.0000 C   0  0  0  0  0  0  0  0  0  0  0  0
   10.6037   -3.6833    0.0000 C   0  0  0  0  0  0  0  0  0  0  0  0
    7.0318   -3.2679    0.0000 C   0  0  0  0  0  0  0  0  0  0  0  0
    7.0369   -4.9179    0.0000 C   0  0  0  0  0  0  0  0  0  0  0  0
    7.7479   -4.5037    0.0000 C   0  0  0  0  0  0  0  0  0  0  0  0
    6.3174   -4.5056    0.0000 C   0  0  0  0  0  0  0  0  0  0  0  0
    6.3219   -3.6764    0.0000 C   0  0  0  0  0  0  0  0  0  0  0  0
   10.6014   -4.5094    0.0000 C   0  0  0  0  0  0  0  0  0  0  0  0
   11.3150   -4.9218    0.0000 C   0  0  0  0  0  0  0  0  0  0  0  0
   11.3136   -3.2713    0.0000 C   0  0  0  0  0  0  0  0  0  0  0  0
   12.0278   -3.6800    0.0000 C   0  0  0  0  0  0  0  0  0  0  0  0
   12.0315   -4.5078    0.0000 C   0  0  0  0  0  0  0  0  0  0  0  0
   12.8199   -4.7602    0.0000 O   0  0  0  0  0  0  0  0  0  0  0  0
   13.3036   -4.0883    0.0000 C   0  0  0  0  0  0  0  0  0  0  0  0
   12.8140   -3.4208    0.0000 O   0  0  0  0  0  0  0  0  0  0  0  0
    8.4637   -4.9139    0.0000 O   0  0  0  0  0  0  0  0  0  0  0  0
    8.4664   -5.7389    0.0000 C   0  0  0  0  0  0  0  0  0  0  0  0
    5.6025   -4.9173    0.0000 O   0  0  0  0  0  0  0  0  0  0  0  0
    4.8885   -4.5040    0.0000 C   0  0  0  0  0  0  0  0  0  0  0  0
    5.6089   -3.2615    0.0000 O   0  0  0  0  0  0  0  0  0  0  0  0
    5.6117   -2.4365    0.0000 C   0  0  0  0  0  0  0  0  0  0  0  0
  1  2  1  0
 12 13  2  0
 13 16  1  0
  1  7  2  0
 15 14  1  0
 14  6  2  0
 15 16  2  0
  7 11  1  0
  2  4  2  0
 10  8  1  0
  8  9  2  0
 16 17  1  0
 17 18  1  0
 18 19  1  0
 19 15  1  0
  9  1  1  0
  9 20  1  0
 10 11  2  0
 20 21  1  0
  3  5  2  3
 10 22  1  0
  2  3  1  0
 22 23  1  0
  5  6  1  0
 11 24  1  0
  6 12  1  0
 24 25  1  0
M  END
>  <Classification>  (525) 
1

>  <pchembl>  (525) 
6.03

>  <InChI_steorem>  (525) 
InChI=1S/C19H18O6/c1-21-16-10-18(23-3)17(22-2)9-13(16)14(20)6-4-12-5-7-15-19(8-12)25-11-24-15/h4-10H,11H2,1-3H3

>  <source>  (525) 
ChEMBL26

>  <source_id>  (525) 
26

>  <optional_reference>  (525) 
10.1021/acsmedchemlett.8b00289

>  <optional_origin>  (525) 
None

>  <target>  (525) 
BCRP

$$$$

     RDKit          2D

 25 28  0  0  0  0  0  0  0  0999 V2000
   12.1203  -10.7349    0.0000 C   0  0  0  0  0  0  0  0  0  0  0  0
   12.1191  -11.5585    0.0000 C   0  0  0  0  0  0  0  0  0  0  0  0
   12.8313  -11.9716    0.0000 C   0  0  0  0  0  0  0  0  0  0  0  0
   13.5451  -11.5581    0.0000 C   0  0  0  0  0  0  0  0  0  0  0  0
   13.5422  -10.7313    0.0000 C   0  0  0  0  0  0  0  0  0  0  0  0
   12.8295  -10.3260    0.0000 C   0  0  0  0  0  0  0  0  0  0  0  0
   14.2525  -10.3200    0.0000 C   0  0  0  0  0  0  0  0  0  0  0  0
   15.0040  -10.6471    0.0000 N   0  0  0  0  0  0  0  0  0  0  0  0
   15.5527  -10.0336    0.0000 N   0  0  0  0  0  0  0  0  0  0  0  0
   15.1373   -9.3233    0.0000 N   0  0  0  0  0  0  0  0  0  0  0  0
   14.3345   -9.5004    0.0000 N   0  0  0  0  0  0  0  0  0  0  0  0
   16.3727  -10.0333    0.0000 C   0  0  0  0  0  0  0  0  0  0  0  0
   16.7791  -10.7462    0.0000 C   0  0  0  0  0  0  0  0  0  0  0  0
   17.5983  -10.7462    0.0000 C   0  0  0  0  0  0  0  0  0  0  0  0
   18.0110  -10.0348    0.0000 C   0  0  0  0  0  0  0  0  0  0  0  0
   17.5942   -9.3219    0.0000 C   0  0  0  0  0  0  0  0  0  0  0  0
   16.7763   -9.3253    0.0000 C   0  0  0  0  0  0  0  0  0  0  0  0
   14.2538  -11.9649    0.0000 N   0  0  0  0  0  0  0  0  0  0  0  0
   14.2558  -12.7821    0.0000 C   0  0  0  0  0  0  0  0  0  0  0  0
   14.9645  -13.1889    0.0000 C   0  0  0  0  0  0  0  0  0  0  0  0
   13.5491  -13.1925    0.0000 O   0  0  0  0  0  0  0  0  0  0  0  0
   15.0542  -13.9975    0.0000 S   0  0  0  0  0  0  0  0  0  0  0  0
   15.8540  -14.1654    0.0000 C   0  0  0  0  0  0  0  0  0  0  0  0
   16.2609  -13.4566    0.0000 C   0  0  0  0  0  0  0  0  0  0  0  0
   15.7125  -12.8508    0.0000 C   0  0  0  0  0  0  0  0  0  0  0  0
  1  2  2  0
  2  3  1  0
  3  4  2  0
  4  5  1  0
  5  6  2  0
  6  1  1  0
  5  7  1  0
  7  8  2  0
  8  9  1  0
  9 10  1  0
 10 11  2  0
 11  7  1  0
  9 12  1  0
 12 13  2  0
 13 14  1  0
 14 15  2  0
 15 16  1  0
 16 17  2  0
 17 12  1  0
  4 18  1  0
 18 19  1  0
 19 20  1  0
 19 21  2  0
 20 22  1  0
 22 23  1  0
 23 24  2  0
 24 25  1  0
 25 20  2  0
M  END
>  <Classification>  (526) 
1

>  <pchembl>  (526) 
6.57

>  <InChI_steorem>  (526) 
InChI=1S/C18H13N5OS/c24-18(16-11-6-12-25-16)19-15-10-5-4-9-14(15)17-20-22-23(21-17)13-7-2-1-3-8-13/h1-12H,(H,19,24)

>  <source>  (526) 
ChEMBL26

>  <source_id>  (526) 
26

>  <optional_reference>  (526) 
10.1016/j.ejmech.2018.01.012

>  <optional_origin>  (526) 
None

>  <target>  (526) 
BCRP

$$$$

     RDKit          2D

 26 28  0  0  0  0  0  0  0  0999 V2000
    3.2632   -3.4668    0.0000 C   0  0  0  0  0  0  0  0  0  0  0  0
    3.2621   -4.2864    0.0000 C   0  0  0  0  0  0  0  0  0  0  0  0
    3.9701   -4.6953    0.0000 C   0  0  0  0  0  0  0  0  0  0  0  0
    4.6798   -4.2859    0.0000 C   0  0  0  0  0  0  0  0  0  0  0  0
    4.6770   -3.4632    0.0000 C   0  0  0  0  0  0  0  0  0  0  0  0
    3.9683   -3.0580    0.0000 C   0  0  0  0  0  0  0  0  0  0  0  0
    2.5540   -4.6944    0.0000 O   0  0  0  0  0  0  0  0  0  0  0  0
    3.9699   -5.5125    0.0000 O   0  0  0  0  0  0  0  0  0  0  0  0
    3.9659   -2.2408    0.0000 O   0  0  0  0  0  0  0  0  0  0  0  0
    3.2570   -1.8343    0.0000 C   0  0  0  0  0  0  0  0  0  0  0  0
    1.8467   -4.2853    0.0000 C   0  0  0  0  0  0  0  0  0  0  0  0
    3.2621   -5.9209    0.0000 C   0  0  0  0  0  0  0  0  0  0  0  0
    5.3831   -3.0520    0.0000 C   0  0  0  0  0  0  0  0  0  0  0  0
    6.0924   -3.4579    0.0000 C   0  0  0  0  0  0  0  0  0  0  0  0
    5.3800   -2.2348    0.0000 O   0  0  0  0  0  0  0  0  0  0  0  0
    6.7985   -3.0466    0.0000 C   0  0  0  0  0  0  0  0  0  0  0  0
    7.5078   -3.4526    0.0000 C   0  0  0  0  0  0  0  0  0  0  0  0
    7.5078   -4.2686    0.0000 C   0  0  0  0  0  0  0  0  0  0  0  0
    8.2162   -4.6745    0.0000 C   0  0  0  0  0  0  0  0  0  0  0  0
    8.2086   -3.0396    0.0000 C   0  0  0  0  0  0  0  0  0  0  0  0
    8.9176   -3.4418    0.0000 C   0  0  0  0  0  0  0  0  0  0  0  0
    8.9205   -4.2616    0.0000 C   0  0  0  0  0  0  0  0  0  0  0  0
    9.6308   -4.6672    0.0000 N   0  0  0  0  0  0  0  0  0  0  0  0
   10.3388   -4.2541    0.0000 C   0  0  0  0  0  0  0  0  0  0  0  0
   10.3318   -3.4312    0.0000 C   0  0  0  0  0  0  0  0  0  0  0  0
    9.6209   -3.0292    0.0000 N   0  0  0  0  0  0  0  0  0  0  0  0
  1  2  2  0
  2  3  1  0
  3  4  2  0
  4  5  1  0
  5  6  2  0
  6  1  1  0
  2  7  1  0
  3  8  1  0
  6  9  1  0
  9 10  1  0
  7 11  1  0
  8 12  1  0
  5 13  1  0
 13 14  1  0
 13 15  2  0
 14 16  2  3
 16 17  1  0
 17 18  2  0
 18 19  1  0
 19 22  2  0
 21 20  2  0
 20 17  1  0
 21 22  1  0
 22 23  1  0
 23 24  2  0
 24 25  1  0
 25 26  2  0
 26 21  1  0
M  END
>  <Classification>  (527) 
1

>  <pchembl>  (527) 
5.85

>  <InChI_steorem>  (527) 
InChI=1S/C20H18N2O4/c1-24-18-12-20(26-3)19(25-2)11-14(18)17(23)7-5-13-4-6-15-16(10-13)22-9-8-21-15/h4-12H,1-3H3

>  <source>  (527) 
ChEMBL26

>  <source_id>  (527) 
26

>  <optional_reference>  (527) 
10.1021/acsmedchemlett.8b00289

>  <optional_origin>  (527) 
None

>  <target>  (527) 
BCRP

$$$$

     RDKit          2D

 26 29  0  0  0  0  0  0  0  0999 V2000
    0.8942   -3.4751    0.0000 C   0  0  0  0  0  0  0  0  0  0  0  0
    0.8930   -4.2988    0.0000 C   0  0  0  0  0  0  0  0  0  0  0  0
    1.6052   -4.7118    0.0000 C   0  0  0  0  0  0  0  0  0  0  0  0
    1.6034   -3.0662    0.0000 C   0  0  0  0  0  0  0  0  0  0  0  0
    2.3162   -3.4715    0.0000 C   0  0  0  0  0  0  0  0  0  0  0  0
    2.3169   -4.2946    0.0000 C   0  0  0  0  0  0  0  0  0  0  0  0
    3.0296   -4.7058    0.0000 N   0  0  0  0  0  0  0  0  0  0  0  0
    3.7379   -4.2909    0.0000 C   0  0  0  0  0  0  0  0  0  0  0  0
    3.7331   -3.4646    0.0000 N   0  0  0  0  0  0  0  0  0  0  0  0
    3.0240   -3.0613    0.0000 C   0  0  0  0  0  0  0  0  0  0  0  0
    4.4477   -4.6968    0.0000 C   0  0  0  0  0  0  0  0  0  0  0  0
    4.4496   -5.5192    0.0000 C   0  0  0  0  0  0  0  0  0  0  0  0
    5.1622   -5.9250    0.0000 C   0  0  0  0  0  0  0  0  0  0  0  0
    5.8734   -5.5136    0.0000 C   0  0  0  0  0  0  0  0  0  0  0  0
    5.8676   -4.6880    0.0000 C   0  0  0  0  0  0  0  0  0  0  0  0
    5.1544   -4.2818    0.0000 C   0  0  0  0  0  0  0  0  0  0  0  0
    3.0197   -2.2399    0.0000 N   0  0  0  0  0  0  0  0  0  0  0  0
    3.7252   -1.8235    0.0000 C   0  0  0  0  0  0  0  0  0  0  0  0
    4.4346   -2.2358    0.0000 C   0  0  0  0  0  0  0  0  0  0  0  0
    5.1438   -1.8200    0.0000 C   0  0  0  0  0  0  0  0  0  0  0  0
    5.1399   -0.9979    0.0000 C   0  0  0  0  0  0  0  0  0  0  0  0
    4.4209   -0.5932    0.0000 C   0  0  0  0  0  0  0  0  0  0  0  0
    3.7147   -1.0072    0.0000 C   0  0  0  0  0  0  0  0  0  0  0  0
    5.1653   -6.7454    0.0000 N   0  0  0  0  0  0  0  0  0  0  0  0
    5.8744   -7.1516    0.0000 O   0  0  0  0  0  0  0  0  0  0  0  0
    4.4590   -7.1564    0.0000 O   0  0  0  0  0  0  0  0  0  0  0  0
  1  2  2  0
  2  3  1  0
  3  6  2  0
  5  4  2  0
  4  1  1  0
  5  6  1  0
  6  7  1  0
  7  8  2  0
  8  9  1  0
  9 10  2  0
 10  5  1  0
 11 12  2  0
 12 13  1  0
 13 14  2  0
 14 15  1  0
 15 16  2  0
 16 11  1  0
  8 11  1  0
 10 17  1  0
 17 18  1  0
 18 19  2  0
 19 20  1  0
 20 21  2  0
 21 22  1  0
 22 23  2  0
 23 18  1  0
 24 25  2  0
 24 26  1  0
 13 24  1  0
M  CHG  2  24   1  26  -1
M  END
>  <Classification>  (528) 
1

>  <pchembl>  (528) 
6.97

>  <InChI_steorem>  (528) 
InChI=1S/C20H14N4O2/c25-24(26)16-10-6-7-14(13-16)19-22-18-12-5-4-11-17(18)20(23-19)21-15-8-2-1-3-9-15/h1-13H,(H,21,22,23)

>  <source>  (528) 
ChEMBL26

>  <source_id>  (528) 
26

>  <optional_reference>  (528) 
10.1016/j.ejmech.2017.08.020

>  <optional_origin>  (528) 
None

>  <target>  (528) 
BCRP

$$$$

     RDKit          2D

 26 29  0  0  0  0  0  0  0  0999 V2000
   10.7005  -27.2232    0.0000 C   0  0  0  0  0  0  0  0  0  0  0  0
   10.6993  -28.0468    0.0000 C   0  0  0  0  0  0  0  0  0  0  0  0
   11.4115  -28.4599    0.0000 C   0  0  0  0  0  0  0  0  0  0  0  0
   12.1253  -28.0464    0.0000 C   0  0  0  0  0  0  0  0  0  0  0  0
   12.1225  -27.2196    0.0000 C   0  0  0  0  0  0  0  0  0  0  0  0
   11.4097  -26.8143    0.0000 C   0  0  0  0  0  0  0  0  0  0  0  0
   12.8328  -26.8083    0.0000 C   0  0  0  0  0  0  0  0  0  0  0  0
   13.5843  -27.1353    0.0000 N   0  0  0  0  0  0  0  0  0  0  0  0
   14.1329  -26.5219    0.0000 N   0  0  0  0  0  0  0  0  0  0  0  0
   13.7175  -25.8115    0.0000 N   0  0  0  0  0  0  0  0  0  0  0  0
   12.9148  -25.9887    0.0000 N   0  0  0  0  0  0  0  0  0  0  0  0
   14.9529  -26.5216    0.0000 C   0  0  0  0  0  0  0  0  0  0  0  0
   15.3593  -27.2344    0.0000 C   0  0  0  0  0  0  0  0  0  0  0  0
   16.1786  -27.2345    0.0000 C   0  0  0  0  0  0  0  0  0  0  0  0
   16.5912  -26.5231    0.0000 C   0  0  0  0  0  0  0  0  0  0  0  0
   16.1745  -25.8102    0.0000 C   0  0  0  0  0  0  0  0  0  0  0  0
   15.3566  -25.8136    0.0000 C   0  0  0  0  0  0  0  0  0  0  0  0
   12.8340  -28.4532    0.0000 N   0  0  0  0  0  0  0  0  0  0  0  0
   12.8360  -29.2704    0.0000 C   0  0  0  0  0  0  0  0  0  0  0  0
   13.5448  -29.6772    0.0000 C   0  0  0  0  0  0  0  0  0  0  0  0
   12.1293  -29.6807    0.0000 O   0  0  0  0  0  0  0  0  0  0  0  0
   13.5412  -30.4927    0.0000 C   0  0  0  0  0  0  0  0  0  0  0  0
   14.2458  -30.8994    0.0000 C   0  0  0  0  0  0  0  0  0  0  0  0
   14.9549  -30.4926    0.0000 C   0  0  0  0  0  0  0  0  0  0  0  0
   14.9549  -29.6744    0.0000 C   0  0  0  0  0  0  0  0  0  0  0  0
   14.2457  -29.2632    0.0000 C   0  0  0  0  0  0  0  0  0  0  0  0
  1  2  2  0
  2  3  1  0
  3  4  2  0
  4  5  1  0
  5  6  2  0
  6  1  1  0
  5  7  1  0
  7  8  2  0
  8  9  1  0
  9 10  1  0
 10 11  2  0
 11  7  1  0
  9 12  1  0
 12 13  2  0
 13 14  1  0
 14 15  2  0
 15 16  1  0
 16 17  2  0
 17 12  1  0
  4 18  1  0
 18 19  1  0
 19 20  1  0
 19 21  2  0
 20 22  1  0
 20 26  1  0
 22 23  1  0
 23 24  1  0
 24 25  1  0
 25 26  1  0
M  END
>  <Classification>  (529) 
1

>  <pchembl>  (529) 
6.54

>  <InChI_steorem>  (529) 
InChI=1S/C20H21N5O/c26-20(15-9-3-1-4-10-15)21-18-14-8-7-13-17(18)19-22-24-25(23-19)16-11-5-2-6-12-16/h2,5-8,11-15H,1,3-4,9-10H2,(H,21,26)

>  <source>  (529) 
ChEMBL26

>  <source_id>  (529) 
26

>  <optional_reference>  (529) 
10.1016/j.ejmech.2018.01.012

>  <optional_origin>  (529) 
None

>  <target>  (529) 
BCRP

$$$$

     RDKit          2D

 26 29  0  0  0  0  0  0  0  0999 V2000
    1.8682  -11.3787    0.0000 C   0  0  0  0  0  0  0  0  0  0  0  0
    1.8671  -12.2024    0.0000 C   0  0  0  0  0  0  0  0  0  0  0  0
    2.5792  -12.6155    0.0000 C   0  0  0  0  0  0  0  0  0  0  0  0
    2.5775  -10.9699    0.0000 C   0  0  0  0  0  0  0  0  0  0  0  0
    3.2902  -11.3751    0.0000 C   0  0  0  0  0  0  0  0  0  0  0  0
    3.2910  -12.1983    0.0000 C   0  0  0  0  0  0  0  0  0  0  0  0
    4.0036  -12.6095    0.0000 N   0  0  0  0  0  0  0  0  0  0  0  0
    4.7160  -12.1945    0.0000 C   0  0  0  0  0  0  0  0  0  0  0  0
    4.7113  -11.3683    0.0000 N   0  0  0  0  0  0  0  0  0  0  0  0
    3.9980  -10.9649    0.0000 C   0  0  0  0  0  0  0  0  0  0  0  0
    3.9937  -10.1436    0.0000 N   0  0  0  0  0  0  0  0  0  0  0  0
    4.7034   -9.7271    0.0000 C   0  0  0  0  0  0  0  0  0  0  0  0
    5.4128  -10.1395    0.0000 C   0  0  0  0  0  0  0  0  0  0  0  0
    6.1220   -9.7237    0.0000 C   0  0  0  0  0  0  0  0  0  0  0  0
    6.1181   -8.9015    0.0000 C   0  0  0  0  0  0  0  0  0  0  0  0
    5.3991   -8.4969    0.0000 C   0  0  0  0  0  0  0  0  0  0  0  0
    4.6928   -8.9108    0.0000 C   0  0  0  0  0  0  0  0  0  0  0  0
    5.4294  -12.6045    0.0000 C   0  0  0  0  0  0  0  0  0  0  0  0
    5.4277  -13.4228    0.0000 C   0  0  0  0  0  0  0  0  0  0  0  0
    6.1403  -13.8286    0.0000 N   0  0  0  0  0  0  0  0  0  0  0  0
    6.8474  -13.4172    0.0000 C   0  0  0  0  0  0  0  0  0  0  0  0
    6.8416  -12.5917    0.0000 C   0  0  0  0  0  0  0  0  0  0  0  0
    6.1326  -12.1855    0.0000 C   0  0  0  0  0  0  0  0  0  0  0  0
    1.1604  -10.9703    0.0000 N   0  0  0  0  0  0  0  0  0  0  0  0
    6.8316  -10.1330    0.0000 O   0  0  0  0  0  0  0  0  0  0  0  0
    6.8356  -10.9543    0.0000 C   0  0  0  0  0  0  0  0  0  0  0  0
  1  2  2  0
  2  3  1  0
  3  6  2  0
  5  4  2  0
  4  1  1  0
  5  6  1  0
  6  7  1  0
  7  8  2  0
  8  9  1  0
  9 10  2  0
 10  5  1  0
 10 11  1  0
 11 12  1  0
 12 13  2  0
 13 14  1  0
 14 15  2  0
 15 16  1  0
 16 17  2  0
 17 12  1  0
  8 18  1  0
 18 19  2  0
 19 20  1  0
 20 21  2  0
 21 22  1  0
 22 23  2  0
 23 18  1  0
  1 24  1  0
 14 25  1  0
 25 26  1  0
M  END
>  <Classification>  (530) 
1

>  <pchembl>  (530) 
6.43

>  <InChI_steorem>  (530) 
InChI=1S/C20H17N5O/c1-26-16-6-2-5-15(11-16)23-20-17-10-14(21)7-8-18(17)24-19(25-20)13-4-3-9-22-12-13/h2-12H,21H2,1H3,(H,23,24,25)

>  <source>  (530) 
ChEMBL26

>  <source_id>  (530) 
26

>  <optional_reference>  (530) 
10.1021/acs.jmedchem.8b01011

>  <optional_origin>  (530) 
None

>  <target>  (530) 
BCRP

$$$$

     RDKit          2D

 26 29  0  0  0  0  0  0  0  0999 V2000
   19.4420   -3.0541    0.0000 C   0  0  0  0  0  0  0  0  0  0  0  0
   19.4408   -3.8778    0.0000 C   0  0  0  0  0  0  0  0  0  0  0  0
   20.1530   -4.2909    0.0000 C   0  0  0  0  0  0  0  0  0  0  0  0
   20.8668   -3.8773    0.0000 C   0  0  0  0  0  0  0  0  0  0  0  0
   20.8639   -3.0505    0.0000 C   0  0  0  0  0  0  0  0  0  0  0  0
   20.1512   -2.6452    0.0000 C   0  0  0  0  0  0  0  0  0  0  0  0
   21.5742   -2.6393    0.0000 C   0  0  0  0  0  0  0  0  0  0  0  0
   22.3258   -2.9663    0.0000 N   0  0  0  0  0  0  0  0  0  0  0  0
   22.8744   -2.3528    0.0000 N   0  0  0  0  0  0  0  0  0  0  0  0
   22.4590   -1.6425    0.0000 N   0  0  0  0  0  0  0  0  0  0  0  0
   21.6562   -1.8196    0.0000 N   0  0  0  0  0  0  0  0  0  0  0  0
   23.6944   -2.3525    0.0000 C   0  0  0  0  0  0  0  0  0  0  0  0
   24.1008   -3.0654    0.0000 C   0  0  0  0  0  0  0  0  0  0  0  0
   24.9200   -3.0654    0.0000 C   0  0  0  0  0  0  0  0  0  0  0  0
   25.3327   -2.3540    0.0000 C   0  0  0  0  0  0  0  0  0  0  0  0
   24.9160   -1.6411    0.0000 C   0  0  0  0  0  0  0  0  0  0  0  0
   24.0980   -1.6446    0.0000 C   0  0  0  0  0  0  0  0  0  0  0  0
   21.5755   -4.2841    0.0000 N   0  0  0  0  0  0  0  0  0  0  0  0
   21.5775   -5.1013    0.0000 C   0  0  0  0  0  0  0  0  0  0  0  0
   22.2862   -5.5082    0.0000 C   0  0  0  0  0  0  0  0  0  0  0  0
   20.8708   -5.5117    0.0000 O   0  0  0  0  0  0  0  0  0  0  0  0
   22.2863   -6.3240    0.0000 C   0  0  0  0  0  0  0  0  0  0  0  0
   22.9942   -6.7308    0.0000 C   0  0  0  0  0  0  0  0  0  0  0  0
   22.9887   -5.0959    0.0000 C   0  0  0  0  0  0  0  0  0  0  0  0
   23.6938   -5.4984    0.0000 C   0  0  0  0  0  0  0  0  0  0  0  0
   23.7001   -6.3170    0.0000 N   0  0  0  0  0  0  0  0  0  0  0  0
  1  2  2  0
  2  3  1  0
  3  4  2  0
  4  5  1  0
  5  6  2  0
  6  1  1  0
  5  7  1  0
  7  8  2  0
  8  9  1  0
  9 10  1  0
 10 11  2  0
 11  7  1  0
  9 12  1  0
 12 13  2  0
 13 14  1  0
 14 15  2  0
 15 16  1  0
 16 17  2  0
 17 12  1  0
  4 18  1  0
 18 19  1  0
 19 20  1  0
 19 21  2  0
 20 22  2  0
 22 23  1  0
 23 26  2  0
 24 20  1  0
 24 25  2  0
 25 26  1  0
M  END
>  <Classification>  (531) 
1

>  <pchembl>  (531) 
6.54

>  <InChI_steorem>  (531) 
InChI=1S/C19H14N6O/c26-19(14-10-12-20-13-11-14)21-17-9-5-4-8-16(17)18-22-24-25(23-18)15-6-2-1-3-7-15/h1-13H,(H,21,26)

>  <source>  (531) 
ChEMBL26

>  <source_id>  (531) 
26

>  <optional_reference>  (531) 
10.1016/j.ejmech.2018.01.012

>  <optional_origin>  (531) 
None

>  <target>  (531) 
BCRP

$$$$

     RDKit          2D

 26 29  0  0  0  0  0  0  0  0999 V2000
    2.1654  -10.9949    0.0000 C   0  0  0  0  0  0  0  0  0  0  0  0
    2.1642  -11.8186    0.0000 C   0  0  0  0  0  0  0  0  0  0  0  0
    2.8764  -12.2317    0.0000 C   0  0  0  0  0  0  0  0  0  0  0  0
    3.5902  -11.8181    0.0000 C   0  0  0  0  0  0  0  0  0  0  0  0
    3.5874  -10.9913    0.0000 C   0  0  0  0  0  0  0  0  0  0  0  0
    2.8746  -10.5860    0.0000 C   0  0  0  0  0  0  0  0  0  0  0  0
    4.2977  -10.5800    0.0000 N   0  0  0  0  0  0  0  0  0  0  0  0
    5.0492  -10.9071    0.0000 C   0  0  0  0  0  0  0  0  0  0  0  0
    5.5978  -10.2936    0.0000 C   0  0  0  0  0  0  0  0  0  0  0  0
    5.1824   -9.5833    0.0000 N   0  0  0  0  0  0  0  0  0  0  0  0
    4.3796   -9.7604    0.0000 N   0  0  0  0  0  0  0  0  0  0  0  0
    6.4178  -10.2933    0.0000 C   0  0  0  0  0  0  0  0  0  0  0  0
    6.8242  -11.0062    0.0000 C   0  0  0  0  0  0  0  0  0  0  0  0
    7.6435  -11.0062    0.0000 C   0  0  0  0  0  0  0  0  0  0  0  0
    8.0561  -10.2948    0.0000 C   0  0  0  0  0  0  0  0  0  0  0  0
    7.6394   -9.5819    0.0000 C   0  0  0  0  0  0  0  0  0  0  0  0
    6.8215   -9.5854    0.0000 C   0  0  0  0  0  0  0  0  0  0  0  0
    4.3027  -12.2297    0.0000 N   0  0  0  0  0  0  0  0  0  0  0  0
    4.3040  -13.0510    0.0000 C   0  0  0  0  0  0  0  0  0  0  0  0
    5.0164  -13.4585    0.0000 C   0  0  0  0  0  0  0  0  0  0  0  0
    3.5928  -13.4607    0.0000 O   0  0  0  0  0  0  0  0  0  0  0  0
    5.0131  -14.2772    0.0000 C   0  0  0  0  0  0  0  0  0  0  0  0
    5.7248  -14.6887    0.0000 C   0  0  0  0  0  0  0  0  0  0  0  0
    6.4369  -14.2748    0.0000 C   0  0  0  0  0  0  0  0  0  0  0  0
    6.4330  -13.4493    0.0000 C   0  0  0  0  0  0  0  0  0  0  0  0
    5.7208  -13.0456    0.0000 C   0  0  0  0  0  0  0  0  0  0  0  0
  1  2  2  0
  2  3  1  0
  3  4  2  0
  4  5  1  0
  5  6  2  0
  6  1  1  0
  5  7  1  0
  7  8  1  0
  8  9  2  0
  9 10  1  0
 10 11  2  0
 11  7  1  0
  9 12  1  0
 12 13  2  0
 13 14  1  0
 14 15  2  0
 15 16  1  0
 16 17  2  0
 17 12  1  0
  4 18  1  0
 18 19  1  0
 19 20  1  0
 19 21  2  0
 20 22  2  0
 22 23  1  0
 23 24  2  0
 24 25  1  0
 25 26  2  0
 26 20  1  0
M  END
>  <Classification>  (532) 
0

>  <pchembl>  (532) 
4.82

>  <InChI_steorem>  (532) 
InChI=1S/C21H16N4O/c26-21(17-11-5-2-6-12-17)22-18-13-7-8-14-20(18)25-15-19(23-24-25)16-9-3-1-4-10-16/h1-15H,(H,22,26)

>  <source>  (532) 
ChEMBL26

>  <source_id>  (532) 
26

>  <optional_reference>  (532) 
10.1016/j.ejmech.2018.01.012

>  <optional_origin>  (532) 
None

>  <target>  (532) 
BCRP

$$$$

     RDKit          2D

 26 29  0  0  0  0  0  0  0  0999 V2000
   24.2543   -4.3336    0.0000 C   0  0  0  0  0  0  0  0  0  0  0  0
   24.2532   -5.1572    0.0000 C   0  0  0  0  0  0  0  0  0  0  0  0
   24.9653   -5.5703    0.0000 C   0  0  0  0  0  0  0  0  0  0  0  0
   24.9635   -3.9247    0.0000 C   0  0  0  0  0  0  0  0  0  0  0  0
   25.6763   -4.3300    0.0000 C   0  0  0  0  0  0  0  0  0  0  0  0
   25.6770   -5.1531    0.0000 C   0  0  0  0  0  0  0  0  0  0  0  0
   26.3897   -5.5643    0.0000 N   0  0  0  0  0  0  0  0  0  0  0  0
   27.0980   -5.1493    0.0000 C   0  0  0  0  0  0  0  0  0  0  0  0
   27.0932   -4.3231    0.0000 N   0  0  0  0  0  0  0  0  0  0  0  0
   26.3841   -3.9197    0.0000 C   0  0  0  0  0  0  0  0  0  0  0  0
   27.8078   -5.5552    0.0000 C   0  0  0  0  0  0  0  0  0  0  0  0
   27.8097   -6.3777    0.0000 C   0  0  0  0  0  0  0  0  0  0  0  0
   28.5223   -6.7834    0.0000 C   0  0  0  0  0  0  0  0  0  0  0  0
   29.2335   -6.3720    0.0000 C   0  0  0  0  0  0  0  0  0  0  0  0
   29.2277   -5.5465    0.0000 C   0  0  0  0  0  0  0  0  0  0  0  0
   28.5145   -5.1403    0.0000 C   0  0  0  0  0  0  0  0  0  0  0  0
   26.3798   -3.0984    0.0000 N   0  0  0  0  0  0  0  0  0  0  0  0
   27.0853   -2.6819    0.0000 C   0  0  0  0  0  0  0  0  0  0  0  0
   27.7947   -3.0943    0.0000 C   0  0  0  0  0  0  0  0  0  0  0  0
   28.5039   -2.6785    0.0000 C   0  0  0  0  0  0  0  0  0  0  0  0
   28.5000   -1.8563    0.0000 C   0  0  0  0  0  0  0  0  0  0  0  0
   27.7811   -1.4517    0.0000 C   0  0  0  0  0  0  0  0  0  0  0  0
   27.0748   -1.8657    0.0000 C   0  0  0  0  0  0  0  0  0  0  0  0
   29.9327   -5.1333    0.0000 O   0  0  0  0  0  0  0  0  0  0  0  0
   30.6431   -5.5374    0.0000 C   0  0  0  0  0  0  0  0  0  0  0  0
   29.2140   -3.0831    0.0000 F   0  0  0  0  0  0  0  0  0  0  0  0
  1  2  2  0
  2  3  1  0
  3  6  2  0
  5  4  2  0
  4  1  1  0
  5  6  1  0
  6  7  1  0
  7  8  2  0
  8  9  1  0
  9 10  2  0
 10  5  1  0
 11 12  2  0
 12 13  1  0
 13 14  2  0
 14 15  1  0
 15 16  2  0
 16 11  1  0
  8 11  1  0
 10 17  1  0
 17 18  1  0
 18 19  2  0
 19 20  1  0
 20 21  2  0
 21 22  1  0
 22 23  2  0
 23 18  1  0
 15 24  1  0
 24 25  1  0
 20 26  1  0
M  END
>  <Classification>  (533) 
1

>  <pchembl>  (533) 
5.79

>  <InChI_steorem>  (533) 
InChI=1S/C21H16FN3O/c1-26-17-9-4-6-14(12-17)20-24-19-11-3-2-10-18(19)21(25-20)23-16-8-5-7-15(22)13-16/h2-13H,1H3,(H,23,24,25)

>  <source>  (533) 
ChEMBL26

>  <source_id>  (533) 
26

>  <optional_reference>  (533) 
10.1016/j.ejmech.2017.08.020

>  <optional_origin>  (533) 
None

>  <target>  (533) 
BCRP

$$$$

     RDKit          2D

 26 29  0  0  0  0  0  0  0  0999 V2000
    2.5327   -4.3336    0.0000 C   0  0  0  0  0  0  0  0  0  0  0  0
    2.5316   -5.1572    0.0000 C   0  0  0  0  0  0  0  0  0  0  0  0
    3.2437   -5.5703    0.0000 C   0  0  0  0  0  0  0  0  0  0  0  0
    3.2419   -3.9247    0.0000 C   0  0  0  0  0  0  0  0  0  0  0  0
    3.9547   -4.3300    0.0000 C   0  0  0  0  0  0  0  0  0  0  0  0
    3.9554   -5.1531    0.0000 C   0  0  0  0  0  0  0  0  0  0  0  0
    4.6640   -5.5643    0.0000 N   0  0  0  0  0  0  0  0  0  0  0  0
    5.3764   -5.1493    0.0000 C   0  0  0  0  0  0  0  0  0  0  0  0
    5.3716   -4.3231    0.0000 N   0  0  0  0  0  0  0  0  0  0  0  0
    4.6584   -3.9197    0.0000 C   0  0  0  0  0  0  0  0  0  0  0  0
    4.6541   -3.0984    0.0000 N   0  0  0  0  0  0  0  0  0  0  0  0
    5.3637   -2.6819    0.0000 C   0  0  0  0  0  0  0  0  0  0  0  0
    6.0731   -3.0943    0.0000 C   0  0  0  0  0  0  0  0  0  0  0  0
    6.7823   -2.6785    0.0000 C   0  0  0  0  0  0  0  0  0  0  0  0
    6.7784   -1.8563    0.0000 C   0  0  0  0  0  0  0  0  0  0  0  0
    6.0595   -1.4517    0.0000 C   0  0  0  0  0  0  0  0  0  0  0  0
    5.3532   -1.8657    0.0000 C   0  0  0  0  0  0  0  0  0  0  0  0
    6.0898   -5.5593    0.0000 C   0  0  0  0  0  0  0  0  0  0  0  0
    6.0881   -6.3777    0.0000 C   0  0  0  0  0  0  0  0  0  0  0  0
    6.8007   -6.7834    0.0000 C   0  0  0  0  0  0  0  0  0  0  0  0
    7.5119   -6.3720    0.0000 C   0  0  0  0  0  0  0  0  0  0  0  0
    7.5061   -5.5465    0.0000 C   0  0  0  0  0  0  0  0  0  0  0  0
    6.7929   -5.1403    0.0000 C   0  0  0  0  0  0  0  0  0  0  0  0
    1.8201   -3.9254    0.0000 N   0  0  0  0  0  0  0  0  0  0  0  0
    1.1083   -4.3341    0.0000 O   0  0  0  0  0  0  0  0  0  0  0  0
    1.8199   -3.1041    0.0000 O   0  0  0  0  0  0  0  0  0  0  0  0
  1  2  2  0
  2  3  1  0
  3  6  2  0
  5  4  2  0
  4  1  1  0
  5  6  1  0
  6  7  1  0
  7  8  2  0
  8  9  1  0
  9 10  2  0
 10  5  1  0
 10 11  1  0
 11 12  1  0
 12 13  2  0
 13 14  1  0
 14 15  2  0
 15 16  1  0
 16 17  2  0
 17 12  1  0
  8 18  1  0
 18 19  2  0
 19 20  1  0
 20 21  2  0
 21 22  1  0
 22 23  2  0
 23 18  1  0
 24 25  2  0
 24 26  1  0
  1 24  1  0
M  CHG  2  24   1  26  -1
M  END
>  <Classification>  (534) 
1

>  <pchembl>  (534) 
6.97

>  <InChI_steorem>  (534) 
InChI=1S/C20H14N4O2/c25-24(26)16-11-12-18-17(13-16)20(21-15-9-5-2-6-10-15)23-19(22-18)14-7-3-1-4-8-14/h1-13H,(H,21,22,23)

>  <source>  (534) 
ChEMBL26

>  <source_id>  (534) 
26

>  <optional_reference>  (534) 
10.1021/acs.jmedchem.8b01011

>  <optional_origin>  (534) 
None

>  <target>  (534) 
BCRP

$$$$

     RDKit          2D

 26 29  0  0  0  0  0  0  0  0999 V2000
   27.0732   -2.5960    0.0000 C   0  0  0  0  0  0  0  0  0  0  0  0
   27.0721   -3.4197    0.0000 C   0  0  0  0  0  0  0  0  0  0  0  0
   27.7842   -3.8327    0.0000 C   0  0  0  0  0  0  0  0  0  0  0  0
   28.4980   -3.4192    0.0000 C   0  0  0  0  0  0  0  0  0  0  0  0
   28.4952   -2.5924    0.0000 C   0  0  0  0  0  0  0  0  0  0  0  0
   27.7824   -2.1871    0.0000 C   0  0  0  0  0  0  0  0  0  0  0  0
   29.2055   -2.1811    0.0000 C   0  0  0  0  0  0  0  0  0  0  0  0
   29.9570   -2.5082    0.0000 N   0  0  0  0  0  0  0  0  0  0  0  0
   30.5056   -1.8947    0.0000 N   0  0  0  0  0  0  0  0  0  0  0  0
   30.0902   -1.1844    0.0000 N   0  0  0  0  0  0  0  0  0  0  0  0
   29.2875   -1.3615    0.0000 N   0  0  0  0  0  0  0  0  0  0  0  0
   31.3257   -1.8944    0.0000 C   0  0  0  0  0  0  0  0  0  0  0  0
   31.7320   -2.6073    0.0000 C   0  0  0  0  0  0  0  0  0  0  0  0
   32.5513   -2.6073    0.0000 C   0  0  0  0  0  0  0  0  0  0  0  0
   32.9639   -1.8959    0.0000 C   0  0  0  0  0  0  0  0  0  0  0  0
   32.5472   -1.1830    0.0000 C   0  0  0  0  0  0  0  0  0  0  0  0
   31.7293   -1.1864    0.0000 C   0  0  0  0  0  0  0  0  0  0  0  0
   29.2067   -3.8260    0.0000 N   0  0  0  0  0  0  0  0  0  0  0  0
   29.2088   -4.6432    0.0000 C   0  0  0  0  0  0  0  0  0  0  0  0
   29.9175   -5.0501    0.0000 C   0  0  0  0  0  0  0  0  0  0  0  0
   28.5021   -5.0536    0.0000 O   0  0  0  0  0  0  0  0  0  0  0  0
   29.9175   -5.8659    0.0000 C   0  0  0  0  0  0  0  0  0  0  0  0
   30.6254   -6.2726    0.0000 N   0  0  0  0  0  0  0  0  0  0  0  0
   30.6200   -4.6378    0.0000 C   0  0  0  0  0  0  0  0  0  0  0  0
   31.3250   -5.0402    0.0000 C   0  0  0  0  0  0  0  0  0  0  0  0
   31.3313   -5.8589    0.0000 C   0  0  0  0  0  0  0  0  0  0  0  0
  1  2  2  0
  2  3  1  0
  3  4  2  0
  4  5  1  0
  5  6  2  0
  6  1  1  0
  5  7  1  0
  7  8  2  0
  8  9  1  0
  9 10  1  0
 10 11  2  0
 11  7  1  0
  9 12  1  0
 12 13  2  0
 13 14  1  0
 14 15  2  0
 15 16  1  0
 16 17  2  0
 17 12  1  0
  4 18  1  0
 18 19  1  0
 19 20  1  0
 19 21  2  0
 20 22  2  0
 22 23  1  0
 23 26  2  0
 24 20  1  0
 24 25  2  0
 25 26  1  0
M  END
>  <Classification>  (535) 
1

>  <pchembl>  (535) 
6.35

>  <InChI_steorem>  (535) 
InChI=1S/C19H14N6O/c26-19(14-7-6-12-20-13-14)21-17-11-5-4-10-16(17)18-22-24-25(23-18)15-8-2-1-3-9-15/h1-13H,(H,21,26)

>  <source>  (535) 
ChEMBL26

>  <source_id>  (535) 
26

>  <optional_reference>  (535) 
10.1016/j.ejmech.2018.01.012

>  <optional_origin>  (535) 
None

>  <target>  (535) 
BCRP

$$$$

     RDKit          2D

 26 29  0  0  0  0  0  0  0  0999 V2000
   34.5641   -2.2369    0.0000 C   0  0  0  0  0  0  0  0  0  0  0  0
   34.5630   -3.0606    0.0000 C   0  0  0  0  0  0  0  0  0  0  0  0
   35.2751   -3.4737    0.0000 C   0  0  0  0  0  0  0  0  0  0  0  0
   35.9889   -3.0601    0.0000 C   0  0  0  0  0  0  0  0  0  0  0  0
   35.9861   -2.2333    0.0000 C   0  0  0  0  0  0  0  0  0  0  0  0
   35.2734   -1.8281    0.0000 C   0  0  0  0  0  0  0  0  0  0  0  0
   36.6964   -1.8221    0.0000 C   0  0  0  0  0  0  0  0  0  0  0  0
   37.4479   -2.1491    0.0000 N   0  0  0  0  0  0  0  0  0  0  0  0
   37.9966   -1.5356    0.0000 N   0  0  0  0  0  0  0  0  0  0  0  0
   37.5811   -0.8253    0.0000 N   0  0  0  0  0  0  0  0  0  0  0  0
   36.7784   -1.0024    0.0000 N   0  0  0  0  0  0  0  0  0  0  0  0
   38.8166   -1.5353    0.0000 C   0  0  0  0  0  0  0  0  0  0  0  0
   39.2229   -2.2482    0.0000 C   0  0  0  0  0  0  0  0  0  0  0  0
   40.0422   -2.2482    0.0000 C   0  0  0  0  0  0  0  0  0  0  0  0
   40.4548   -1.5368    0.0000 C   0  0  0  0  0  0  0  0  0  0  0  0
   40.0381   -0.8239    0.0000 C   0  0  0  0  0  0  0  0  0  0  0  0
   39.2202   -0.8274    0.0000 C   0  0  0  0  0  0  0  0  0  0  0  0
   36.6977   -3.4670    0.0000 N   0  0  0  0  0  0  0  0  0  0  0  0
   36.6997   -4.2841    0.0000 C   0  0  0  0  0  0  0  0  0  0  0  0
   37.4084   -4.6910    0.0000 C   0  0  0  0  0  0  0  0  0  0  0  0
   35.9930   -4.6945    0.0000 O   0  0  0  0  0  0  0  0  0  0  0  0
   37.4085   -5.5068    0.0000 N   0  0  0  0  0  0  0  0  0  0  0  0
   38.1164   -5.9136    0.0000 C   0  0  0  0  0  0  0  0  0  0  0  0
   38.1109   -4.2787    0.0000 C   0  0  0  0  0  0  0  0  0  0  0  0
   38.8159   -4.6812    0.0000 C   0  0  0  0  0  0  0  0  0  0  0  0
   38.8222   -5.4998    0.0000 C   0  0  0  0  0  0  0  0  0  0  0  0
  1  2  2  0
  2  3  1  0
  3  4  2  0
  4  5  1  0
  5  6  2  0
  6  1  1  0
  5  7  1  0
  7  8  2  0
  8  9  1  0
  9 10  1  0
 10 11  2  0
 11  7  1  0
  9 12  1  0
 12 13  2  0
 13 14  1  0
 14 15  2  0
 15 16  1  0
 16 17  2  0
 17 12  1  0
  4 18  1  0
 18 19  1  0
 19 20  1  0
 19 21  2  0
 20 22  2  0
 22 23  1  0
 23 26  2  0
 24 20  1  0
 24 25  2  0
 25 26  1  0
M  END
>  <Classification>  (536) 
1

>  <pchembl>  (536) 
6.13

>  <InChI_steorem>  (536) 
InChI=1S/C19H14N6O/c26-19(17-12-6-7-13-20-17)21-16-11-5-4-10-15(16)18-22-24-25(23-18)14-8-2-1-3-9-14/h1-13H,(H,21,26)

>  <source>  (536) 
ChEMBL26

>  <source_id>  (536) 
26

>  <optional_reference>  (536) 
10.1016/j.ejmech.2018.01.012

>  <optional_origin>  (536) 
None

>  <target>  (536) 
BCRP

$$$$

     RDKit          2D

 26 29  0  0  0  0  0  0  0  0999 V2000
    6.7177   -4.0570    0.0000 C   0  0  0  0  0  0  0  0  0  0  0  0
    6.7166   -4.8807    0.0000 C   0  0  0  0  0  0  0  0  0  0  0  0
    7.4287   -5.2938    0.0000 C   0  0  0  0  0  0  0  0  0  0  0  0
    7.4269   -3.6482    0.0000 C   0  0  0  0  0  0  0  0  0  0  0  0
    8.1397   -4.0534    0.0000 C   0  0  0  0  0  0  0  0  0  0  0  0
    8.1405   -4.8766    0.0000 C   0  0  0  0  0  0  0  0  0  0  0  0
    8.8531   -5.2878    0.0000 N   0  0  0  0  0  0  0  0  0  0  0  0
    9.5614   -4.8728    0.0000 C   0  0  0  0  0  0  0  0  0  0  0  0
    9.5566   -4.0466    0.0000 N   0  0  0  0  0  0  0  0  0  0  0  0
    8.8475   -3.6432    0.0000 C   0  0  0  0  0  0  0  0  0  0  0  0
   10.2712   -5.2787    0.0000 C   0  0  0  0  0  0  0  0  0  0  0  0
   10.2731   -6.1011    0.0000 C   0  0  0  0  0  0  0  0  0  0  0  0
   10.9857   -6.5069    0.0000 C   0  0  0  0  0  0  0  0  0  0  0  0
   11.6969   -6.0955    0.0000 C   0  0  0  0  0  0  0  0  0  0  0  0
   11.6911   -5.2700    0.0000 C   0  0  0  0  0  0  0  0  0  0  0  0
   10.9779   -4.8638    0.0000 C   0  0  0  0  0  0  0  0  0  0  0  0
    8.8432   -2.8219    0.0000 N   0  0  0  0  0  0  0  0  0  0  0  0
    9.5487   -2.4054    0.0000 C   0  0  0  0  0  0  0  0  0  0  0  0
   10.9888   -7.3273    0.0000 N   0  0  0  0  0  0  0  0  0  0  0  0
   11.6979   -7.7335    0.0000 O   0  0  0  0  0  0  0  0  0  0  0  0
   10.2825   -7.7383    0.0000 O   0  0  0  0  0  0  0  0  0  0  0  0
   10.2614   -2.8131    0.0000 C   0  0  0  0  0  0  0  0  0  0  0  0
   10.9649   -2.4002    0.0000 C   0  0  0  0  0  0  0  0  0  0  0  0
   10.9612   -1.5805    0.0000 C   0  0  0  0  0  0  0  0  0  0  0  0
   10.2479   -1.1756    0.0000 C   0  0  0  0  0  0  0  0  0  0  0  0
    9.5383   -1.5903    0.0000 C   0  0  0  0  0  0  0  0  0  0  0  0
  1  2  2  0
  2  3  1  0
  3  6  2  0
  5  4  2  0
  4  1  1  0
  5  6  1  0
  6  7  1  0
  7  8  2  0
  8  9  1  0
  9 10  2  0
 10  5  1  0
 11 12  2  0
 12 13  1  0
 13 14  2  0
 14 15  1  0
 15 16  2  0
 16 11  1  0
  8 11  1  0
 10 17  1  0
 17 18  1  0
 19 20  2  0
 19 21  1  0
 13 19  1  0
 18 22  1  0
 18 26  1  0
 22 23  1  0
 23 24  1  0
 24 25  1  0
 25 26  1  0
M  CHG  2  19   1  21  -1
M  END
>  <Classification>  (537) 
1

>  <pchembl>  (537) 
5.56

>  <InChI_steorem>  (537) 
InChI=1S/C20H20N4O2/c25-24(26)16-10-6-7-14(13-16)19-22-18-12-5-4-11-17(18)20(23-19)21-15-8-2-1-3-9-15/h4-7,10-13,15H,1-3,8-9H2,(H,21,22,23)

>  <source>  (537) 
ChEMBL26

>  <source_id>  (537) 
26

>  <optional_reference>  (537) 
10.1016/j.ejmech.2017.08.020

>  <optional_origin>  (537) 
None

>  <target>  (537) 
BCRP

$$$$

     RDKit          2D

 26 29  0  0  0  0  0  0  0  0999 V2000
    8.5419  -24.8418    0.0000 C   0  0  0  0  0  0  0  0  0  0  0  0
    8.5408  -25.6613    0.0000 C   0  0  0  0  0  0  0  0  0  0  0  0
    9.2488  -26.0703    0.0000 C   0  0  0  0  0  0  0  0  0  0  0  0
    9.9585  -25.6608    0.0000 C   0  0  0  0  0  0  0  0  0  0  0  0
    9.9557  -24.8382    0.0000 C   0  0  0  0  0  0  0  0  0  0  0  0
    9.2471  -24.4329    0.0000 C   0  0  0  0  0  0  0  0  0  0  0  0
   10.6614  -24.4244    0.0000 C   0  0  0  0  0  0  0  0  0  0  0  0
   11.4092  -24.7539    0.0000 O   0  0  0  0  0  0  0  0  0  0  0  0
   11.9538  -24.1446    0.0000 C   0  0  0  0  0  0  0  0  0  0  0  0
   11.5425  -23.4384    0.0000 N   0  0  0  0  0  0  0  0  0  0  0  0
   10.7438  -23.6114    0.0000 N   0  0  0  0  0  0  0  0  0  0  0  0
   10.6669  -26.0683    0.0000 N   0  0  0  0  0  0  0  0  0  0  0  0
   10.6681  -26.8855    0.0000 C   0  0  0  0  0  0  0  0  0  0  0  0
   11.3765  -27.2930    0.0000 C   0  0  0  0  0  0  0  0  0  0  0  0
    9.9611  -27.2952    0.0000 O   0  0  0  0  0  0  0  0  0  0  0  0
   11.3732  -28.1075    0.0000 C   0  0  0  0  0  0  0  0  0  0  0  0
   12.0807  -28.5149    0.0000 C   0  0  0  0  0  0  0  0  0  0  0  0
   12.7887  -28.1052    0.0000 C   0  0  0  0  0  0  0  0  0  0  0  0
   12.7848  -27.2837    0.0000 C   0  0  0  0  0  0  0  0  0  0  0  0
   12.0767  -26.8800    0.0000 C   0  0  0  0  0  0  0  0  0  0  0  0
   12.7643  -24.2279    0.0000 C   0  0  0  0  0  0  0  0  0  0  0  0
   13.0987  -24.9747    0.0000 C   0  0  0  0  0  0  0  0  0  0  0  0
   13.9109  -25.0574    0.0000 C   0  0  0  0  0  0  0  0  0  0  0  0
   14.3897  -24.3940    0.0000 C   0  0  0  0  0  0  0  0  0  0  0  0
   14.0503  -23.6459    0.0000 C   0  0  0  0  0  0  0  0  0  0  0  0
   13.2391  -23.5669    0.0000 C   0  0  0  0  0  0  0  0  0  0  0  0
  1  2  2  0
  2  3  1  0
  3  4  2  0
  4  5  1  0
  5  6  2  0
  6  1  1  0
  7  8  1  0
  8  9  1  0
  9 10  2  0
 10 11  1  0
 11  7  2  0
  5  7  1  0
  4 12  1  0
 12 13  1  0
 13 14  1  0
 13 15  2  0
 14 16  2  0
 16 17  1  0
 17 18  2  0
 18 19  1  0
 19 20  2  0
 20 14  1  0
 21 22  2  0
 22 23  1  0
 23 24  2  0
 24 25  1  0
 25 26  2  0
 26 21  1  0
  9 21  1  0
M  END
>  <Classification>  (538) 
1

>  <pchembl>  (538) 
6.95

>  <InChI_steorem>  (538) 
InChI=1S/C21H15N3O2/c25-19(15-9-3-1-4-10-15)22-18-14-8-7-13-17(18)21-24-23-20(26-21)16-11-5-2-6-12-16/h1-14H,(H,22,25)

>  <source>  (538) 
ChEMBL26

>  <source_id>  (538) 
26

>  <optional_reference>  (538) 
10.1016/j.ejmech.2018.01.012

>  <optional_origin>  (538) 
None

>  <target>  (538) 
BCRP

$$$$

     RDKit          2D

 26 29  0  0  0  0  0  0  0  0999 V2000
    9.1404  -11.8369    0.0000 C   0  0  0  0  0  0  0  0  0  0  0  0
    9.1392  -12.6605    0.0000 C   0  0  0  0  0  0  0  0  0  0  0  0
    9.8514  -13.0736    0.0000 C   0  0  0  0  0  0  0  0  0  0  0  0
    9.8496  -11.4280    0.0000 C   0  0  0  0  0  0  0  0  0  0  0  0
   10.5624  -11.8333    0.0000 C   0  0  0  0  0  0  0  0  0  0  0  0
   10.5631  -12.6564    0.0000 C   0  0  0  0  0  0  0  0  0  0  0  0
   11.2758  -13.0676    0.0000 N   0  0  0  0  0  0  0  0  0  0  0  0
   11.9841  -12.6526    0.0000 C   0  0  0  0  0  0  0  0  0  0  0  0
   11.9793  -11.8264    0.0000 N   0  0  0  0  0  0  0  0  0  0  0  0
   11.2702  -11.4230    0.0000 C   0  0  0  0  0  0  0  0  0  0  0  0
   11.2659  -10.6017    0.0000 N   0  0  0  0  0  0  0  0  0  0  0  0
   11.9714  -10.1852    0.0000 C   0  0  0  0  0  0  0  0  0  0  0  0
   12.6808  -10.5976    0.0000 C   0  0  0  0  0  0  0  0  0  0  0  0
   13.3900  -10.1818    0.0000 C   0  0  0  0  0  0  0  0  0  0  0  0
   13.3861   -9.3596    0.0000 C   0  0  0  0  0  0  0  0  0  0  0  0
   12.6671   -8.9550    0.0000 C   0  0  0  0  0  0  0  0  0  0  0  0
   11.9609   -9.3690    0.0000 C   0  0  0  0  0  0  0  0  0  0  0  0
   12.6975  -13.0626    0.0000 C   0  0  0  0  0  0  0  0  0  0  0  0
   12.6958  -13.8810    0.0000 C   0  0  0  0  0  0  0  0  0  0  0  0
   13.4084  -14.2867    0.0000 N   0  0  0  0  0  0  0  0  0  0  0  0
   14.1196  -13.8753    0.0000 C   0  0  0  0  0  0  0  0  0  0  0  0
   14.1138  -13.0498    0.0000 C   0  0  0  0  0  0  0  0  0  0  0  0
   13.4006  -12.6436    0.0000 C   0  0  0  0  0  0  0  0  0  0  0  0
    8.4285  -11.4284    0.0000 N   0  0  0  0  0  0  0  0  0  0  0  0
   14.0952   -8.9463    0.0000 O   0  0  0  0  0  0  0  0  0  0  0  0
   14.8098   -9.3502    0.0000 C   0  0  0  0  0  0  0  0  0  0  0  0
  1  2  2  0
  2  3  1  0
  3  6  2  0
  5  4  2  0
  4  1  1  0
  5  6  1  0
  6  7  1  0
  7  8  2  0
  8  9  1  0
  9 10  2  0
 10  5  1  0
 10 11  1  0
 11 12  1  0
 12 13  2  0
 13 14  1  0
 14 15  2  0
 15 16  1  0
 16 17  2  0
 17 12  1  0
  8 18  1  0
 18 19  2  0
 19 20  1  0
 20 21  2  0
 21 22  1  0
 22 23  2  0
 23 18  1  0
  1 24  1  0
 15 25  1  0
 25 26  1  0
M  END
>  <Classification>  (539) 
1

>  <pchembl>  (539) 
6.19

>  <InChI_steorem>  (539) 
InChI=1S/C20H17N5O/c1-26-16-7-5-15(6-8-16)23-20-17-11-14(21)4-9-18(17)24-19(25-20)13-3-2-10-22-12-13/h2-12H,21H2,1H3,(H,23,24,25)

>  <source>  (539) 
ChEMBL26

>  <source_id>  (539) 
26

>  <optional_reference>  (539) 
10.1021/acs.jmedchem.8b01011

>  <optional_origin>  (539) 
None

>  <target>  (539) 
BCRP

$$$$

     RDKit          2D

 27 30  0  0  0  0  0  0  0  0999 V2000
   11.4393  -11.6965    0.0000 C   0  0  0  0  0  0  0  0  0  0  0  0
   11.4381  -12.5202    0.0000 C   0  0  0  0  0  0  0  0  0  0  0  0
   12.1503  -12.9292    0.0000 C   0  0  0  0  0  0  0  0  0  0  0  0
   12.1485  -11.2835    0.0000 C   0  0  0  0  0  0  0  0  0  0  0  0
   12.8612  -11.6929    0.0000 C   0  0  0  0  0  0  0  0  0  0  0  0
   12.8620  -12.5161    0.0000 C   0  0  0  0  0  0  0  0  0  0  0  0
   13.5705  -12.9231    0.0000 N   0  0  0  0  0  0  0  0  0  0  0  0
   14.2829  -12.5123    0.0000 C   0  0  0  0  0  0  0  0  0  0  0  0
   14.2782  -11.6861    0.0000 N   0  0  0  0  0  0  0  0  0  0  0  0
   13.5650  -11.2786    0.0000 C   0  0  0  0  0  0  0  0  0  0  0  0
   13.5606  -10.4573    0.0000 N   0  0  0  0  0  0  0  0  0  0  0  0
   14.2703  -10.0449    0.0000 C   0  0  0  0  0  0  0  0  0  0  0  0
   14.9797  -10.4531    0.0000 C   0  0  0  0  0  0  0  0  0  0  0  0
   15.6889  -10.0415    0.0000 C   0  0  0  0  0  0  0  0  0  0  0  0
   15.6850   -9.2193    0.0000 C   0  0  0  0  0  0  0  0  0  0  0  0
   14.9660   -8.8105    0.0000 C   0  0  0  0  0  0  0  0  0  0  0  0
   14.2598   -9.2286    0.0000 C   0  0  0  0  0  0  0  0  0  0  0  0
   14.9963  -12.9182    0.0000 C   0  0  0  0  0  0  0  0  0  0  0  0
   14.9946  -13.7365    0.0000 C   0  0  0  0  0  0  0  0  0  0  0  0
   15.7072  -14.1464    0.0000 C   0  0  0  0  0  0  0  0  0  0  0  0
   16.4184  -13.7309    0.0000 C   0  0  0  0  0  0  0  0  0  0  0  0
   16.4126  -12.9053    0.0000 C   0  0  0  0  0  0  0  0  0  0  0  0
   15.6995  -12.5033    0.0000 C   0  0  0  0  0  0  0  0  0  0  0  0
   10.7266  -11.2842    0.0000 N   0  0  0  0  0  0  0  0  0  0  0  0
   10.0149  -11.6971    0.0000 O   0  0  0  0  0  0  0  0  0  0  0  0
   10.7264  -10.4629    0.0000 O   0  0  0  0  0  0  0  0  0  0  0  0
   14.9588   -7.9892    0.0000 F   0  0  0  0  0  0  0  0  0  0  0  0
  1  2  2  0
  2  3  1  0
  3  6  2  0
  5  4  2  0
  4  1  1  0
  5  6  1  0
  6  7  1  0
  7  8  2  0
  8  9  1  0
  9 10  2  0
 10  5  1  0
 10 11  1  0
 11 12  1  0
 12 13  2  0
 13 14  1  0
 14 15  2  0
 15 16  1  0
 16 17  2  0
 17 12  1  0
  8 18  1  0
 18 19  2  0
 19 20  1  0
 20 21  2  0
 21 22  1  0
 22 23  2  0
 23 18  1  0
 24 25  2  0
 24 26  1  0
  1 24  1  0
 16 27  1  0
M  CHG  2  24   1  26  -1
M  END
>  <Classification>  (540) 
1

>  <pchembl>  (540) 
7.29

>  <InChI_steorem>  (540) 
InChI=1S/C20H13FN4O2/c21-14-7-4-8-15(11-14)22-20-17-12-16(25(26)27)9-10-18(17)23-19(24-20)13-5-2-1-3-6-13/h1-12H,(H,22,23,24)

>  <source>  (540) 
ChEMBL26

>  <source_id>  (540) 
26

>  <optional_reference>  (540) 
10.1021/acs.jmedchem.8b01011

>  <optional_origin>  (540) 
None

>  <target>  (540) 
BCRP

$$$$

     RDKit          2D

 27 30  0  0  0  0  0  0  0  0999 V2000
   14.3201  -11.0609    0.0000 C   0  0  0  0  0  0  0  0  0  0  0  0
   14.3189  -11.8846    0.0000 C   0  0  0  0  0  0  0  0  0  0  0  0
   15.0311  -12.2977    0.0000 C   0  0  0  0  0  0  0  0  0  0  0  0
   15.0293  -10.6521    0.0000 C   0  0  0  0  0  0  0  0  0  0  0  0
   15.7421  -11.0573    0.0000 C   0  0  0  0  0  0  0  0  0  0  0  0
   15.7428  -11.8805    0.0000 C   0  0  0  0  0  0  0  0  0  0  0  0
   16.4555  -12.2917    0.0000 N   0  0  0  0  0  0  0  0  0  0  0  0
   17.1637  -11.8767    0.0000 C   0  0  0  0  0  0  0  0  0  0  0  0
   17.1590  -11.0505    0.0000 N   0  0  0  0  0  0  0  0  0  0  0  0
   16.4499  -10.6471    0.0000 C   0  0  0  0  0  0  0  0  0  0  0  0
   17.8736  -12.2826    0.0000 C   0  0  0  0  0  0  0  0  0  0  0  0
   17.8754  -13.1050    0.0000 C   0  0  0  0  0  0  0  0  0  0  0  0
   18.5880  -13.5108    0.0000 C   0  0  0  0  0  0  0  0  0  0  0  0
   19.2992  -13.0994    0.0000 C   0  0  0  0  0  0  0  0  0  0  0  0
   19.2934  -12.2739    0.0000 C   0  0  0  0  0  0  0  0  0  0  0  0
   18.5803  -11.8677    0.0000 C   0  0  0  0  0  0  0  0  0  0  0  0
   16.4456   -9.8258    0.0000 N   0  0  0  0  0  0  0  0  0  0  0  0
   17.1511   -9.4093    0.0000 C   0  0  0  0  0  0  0  0  0  0  0  0
   17.8605   -9.8217    0.0000 C   0  0  0  0  0  0  0  0  0  0  0  0
   18.5697   -9.4059    0.0000 C   0  0  0  0  0  0  0  0  0  0  0  0
   18.5658   -8.5837    0.0000 C   0  0  0  0  0  0  0  0  0  0  0  0
   17.8468   -8.1791    0.0000 C   0  0  0  0  0  0  0  0  0  0  0  0
   17.1406   -8.5930    0.0000 C   0  0  0  0  0  0  0  0  0  0  0  0
   20.0086  -13.5052    0.0000 O   0  0  0  0  0  0  0  0  0  0  0  0
   20.0118  -14.3224    0.0000 C   0  0  0  0  0  0  0  0  0  0  0  0
   19.2797   -9.8104    0.0000 O   0  0  0  0  0  0  0  0  0  0  0  0
   19.2844  -10.6276    0.0000 C   0  0  0  0  0  0  0  0  0  0  0  0
  1  2  2  0
  2  3  1  0
  3  6  2  0
  5  4  2  0
  4  1  1  0
  5  6  1  0
  6  7  1  0
  7  8  2  0
  8  9  1  0
  9 10  2  0
 10  5  1  0
 11 12  2  0
 12 13  1  0
 13 14  2  0
 14 15  1  0
 15 16  2  0
 16 11  1  0
  8 11  1  0
 10 17  1  0
 17 18  1  0
 18 19  2  0
 19 20  1  0
 20 21  2  0
 21 22  1  0
 22 23  2  0
 23 18  1  0
 14 24  1  0
 24 25  1  0
 20 26  1  0
 26 27  1  0
M  END
>  <Classification>  (541) 
1

>  <pchembl>  (541) 
5.67

>  <InChI_steorem>  (541) 
InChI=1S/C22H19N3O2/c1-26-17-12-10-15(11-13-17)21-24-20-9-4-3-8-19(20)22(25-21)23-16-6-5-7-18(14-16)27-2/h3-14H,1-2H3,(H,23,24,25)

>  <source>  (541) 
ChEMBL26

>  <source_id>  (541) 
26

>  <optional_reference>  (541) 
10.1016/j.ejmech.2017.08.020

>  <optional_origin>  (541) 
None

>  <target>  (541) 
BCRP

$$$$

     RDKit          2D

 27 30  0  0  0  0  0  0  0  0999 V2000
   16.3796   -4.8907    0.0000 C   0  0  0  0  0  0  0  0  0  0  0  0
   16.3784   -5.7144    0.0000 C   0  0  0  0  0  0  0  0  0  0  0  0
   17.0906   -6.1275    0.0000 C   0  0  0  0  0  0  0  0  0  0  0  0
   17.0888   -4.4819    0.0000 C   0  0  0  0  0  0  0  0  0  0  0  0
   17.8015   -4.8871    0.0000 C   0  0  0  0  0  0  0  0  0  0  0  0
   17.8023   -5.7103    0.0000 C   0  0  0  0  0  0  0  0  0  0  0  0
   18.5150   -6.1215    0.0000 N   0  0  0  0  0  0  0  0  0  0  0  0
   19.2232   -5.7065    0.0000 C   0  0  0  0  0  0  0  0  0  0  0  0
   19.2185   -4.8803    0.0000 N   0  0  0  0  0  0  0  0  0  0  0  0
   18.5094   -4.4769    0.0000 C   0  0  0  0  0  0  0  0  0  0  0  0
   19.9331   -6.1124    0.0000 C   0  0  0  0  0  0  0  0  0  0  0  0
   19.9349   -6.9348    0.0000 C   0  0  0  0  0  0  0  0  0  0  0  0
   20.6475   -7.3406    0.0000 C   0  0  0  0  0  0  0  0  0  0  0  0
   21.3587   -6.9292    0.0000 C   0  0  0  0  0  0  0  0  0  0  0  0
   21.3529   -6.1037    0.0000 C   0  0  0  0  0  0  0  0  0  0  0  0
   20.6398   -5.6975    0.0000 C   0  0  0  0  0  0  0  0  0  0  0  0
   18.5050   -3.6556    0.0000 N   0  0  0  0  0  0  0  0  0  0  0  0
   19.2106   -3.2391    0.0000 C   0  0  0  0  0  0  0  0  0  0  0  0
   19.9200   -3.6515    0.0000 C   0  0  0  0  0  0  0  0  0  0  0  0
   20.6292   -3.2357    0.0000 C   0  0  0  0  0  0  0  0  0  0  0  0
   20.6253   -2.4135    0.0000 C   0  0  0  0  0  0  0  0  0  0  0  0
   19.9063   -2.0088    0.0000 C   0  0  0  0  0  0  0  0  0  0  0  0
   19.2001   -2.4228    0.0000 C   0  0  0  0  0  0  0  0  0  0  0  0
   22.0580   -5.6905    0.0000 O   0  0  0  0  0  0  0  0  0  0  0  0
   22.7683   -6.0945    0.0000 C   0  0  0  0  0  0  0  0  0  0  0  0
   21.3356   -3.6434    0.0000 C   0  0  0  0  0  0  0  0  0  0  0  0
   22.0456   -4.0479    0.0000 N   0  0  0  0  0  0  0  0  0  0  0  0
  1  2  2  0
  2  3  1  0
  3  6  2  0
  5  4  2  0
  4  1  1  0
  5  6  1  0
  6  7  1  0
  7  8  2  0
  8  9  1  0
  9 10  2  0
 10  5  1  0
 11 12  2  0
 12 13  1  0
 13 14  2  0
 14 15  1  0
 15 16  2  0
 16 11  1  0
  8 11  1  0
 10 17  1  0
 17 18  1  0
 18 19  2  0
 19 20  1  0
 20 21  2  0
 21 22  1  0
 22 23  2  0
 23 18  1  0
 15 24  1  0
 24 25  1  0
 26 27  3  0
 20 26  1  0
M  END
>  <Classification>  (542) 
1

>  <pchembl>  (542) 
6.45

>  <InChI_steorem>  (542) 
InChI=1S/C22H16N4O/c1-27-18-9-5-7-16(13-18)21-25-20-11-3-2-10-19(20)22(26-21)24-17-8-4-6-15(12-17)14-23/h2-13H,1H3,(H,24,25,26)

>  <source>  (542) 
ChEMBL26

>  <source_id>  (542) 
26

>  <optional_reference>  (542) 
10.1016/j.ejmech.2017.08.020

>  <optional_origin>  (542) 
None

>  <target>  (542) 
BCRP

$$$$

     RDKit          2D

 27 30  0  0  0  0  0  0  0  0999 V2000
   21.5922  -20.8136    0.0000 C   0  0  0  0  0  0  0  0  0  0  0  0
   21.5911  -21.6372    0.0000 C   0  0  0  0  0  0  0  0  0  0  0  0
   22.3033  -22.0503    0.0000 C   0  0  0  0  0  0  0  0  0  0  0  0
   22.3015  -20.4047    0.0000 C   0  0  0  0  0  0  0  0  0  0  0  0
   23.0142  -20.8100    0.0000 C   0  0  0  0  0  0  0  0  0  0  0  0
   23.0150  -21.6331    0.0000 C   0  0  0  0  0  0  0  0  0  0  0  0
   23.7277  -22.0443    0.0000 N   0  0  0  0  0  0  0  0  0  0  0  0
   24.4359  -21.6294    0.0000 C   0  0  0  0  0  0  0  0  0  0  0  0
   24.4312  -20.8031    0.0000 N   0  0  0  0  0  0  0  0  0  0  0  0
   23.7221  -20.3997    0.0000 C   0  0  0  0  0  0  0  0  0  0  0  0
   25.1458  -22.0353    0.0000 C   0  0  0  0  0  0  0  0  0  0  0  0
   25.1476  -22.8577    0.0000 C   0  0  0  0  0  0  0  0  0  0  0  0
   25.8602  -23.2634    0.0000 C   0  0  0  0  0  0  0  0  0  0  0  0
   26.5714  -22.8520    0.0000 C   0  0  0  0  0  0  0  0  0  0  0  0
   26.5656  -22.0265    0.0000 C   0  0  0  0  0  0  0  0  0  0  0  0
   25.8525  -21.6203    0.0000 C   0  0  0  0  0  0  0  0  0  0  0  0
   23.7177  -19.5784    0.0000 N   0  0  0  0  0  0  0  0  0  0  0  0
   24.4233  -19.1620    0.0000 C   0  0  0  0  0  0  0  0  0  0  0  0
   25.1327  -19.5743    0.0000 C   0  0  0  0  0  0  0  0  0  0  0  0
   25.8419  -19.1585    0.0000 C   0  0  0  0  0  0  0  0  0  0  0  0
   25.8380  -18.3363    0.0000 C   0  0  0  0  0  0  0  0  0  0  0  0
   25.1190  -17.9317    0.0000 C   0  0  0  0  0  0  0  0  0  0  0  0
   24.4127  -18.3457    0.0000 C   0  0  0  0  0  0  0  0  0  0  0  0
   25.8634  -24.0839    0.0000 N   0  0  0  0  0  0  0  0  0  0  0  0
   26.5725  -24.4901    0.0000 O   0  0  0  0  0  0  0  0  0  0  0  0
   25.1571  -24.4948    0.0000 O   0  0  0  0  0  0  0  0  0  0  0  0
   26.5424  -17.9222    0.0000 I   0  0  0  0  0  0  0  0  0  0  0  0
  1  2  2  0
  2  3  1  0
  3  6  2  0
  5  4  2  0
  4  1  1  0
  5  6  1  0
  6  7  1  0
  7  8  2  0
  8  9  1  0
  9 10  2  0
 10  5  1  0
 11 12  2  0
 12 13  1  0
 13 14  2  0
 14 15  1  0
 15 16  2  0
 16 11  1  0
  8 11  1  0
 10 17  1  0
 17 18  1  0
 18 19  2  0
 19 20  1  0
 20 21  2  0
 21 22  1  0
 22 23  2  0
 23 18  1  0
 24 25  2  0
 24 26  1  0
 13 24  1  0
 21 27  1  0
M  CHG  2  24   1  26  -1
M  END
>  <Classification>  (543) 
1

>  <pchembl>  (543) 
5.75

>  <InChI_steorem>  (543) 
InChI=1S/C20H13IN4O2/c21-14-8-10-15(11-9-14)22-20-17-6-1-2-7-18(17)23-19(24-20)13-4-3-5-16(12-13)25(26)27/h1-12H,(H,22,23,24)

>  <source>  (543) 
ChEMBL26

>  <source_id>  (543) 
26

>  <optional_reference>  (543) 
10.1016/j.ejmech.2017.08.020

>  <optional_origin>  (543) 
None

>  <target>  (543) 
BCRP

$$$$

     RDKit          2D

 27 30  0  0  0  0  0  0  0  0999 V2000
    2.4956  -10.6977    0.0000 C   0  0  0  0  0  0  0  0  0  0  0  0
    2.4944  -11.5214    0.0000 C   0  0  0  0  0  0  0  0  0  0  0  0
    3.2066  -11.9345    0.0000 C   0  0  0  0  0  0  0  0  0  0  0  0
    3.9204  -11.5209    0.0000 C   0  0  0  0  0  0  0  0  0  0  0  0
    3.9175  -10.6941    0.0000 C   0  0  0  0  0  0  0  0  0  0  0  0
    3.2048  -10.2889    0.0000 C   0  0  0  0  0  0  0  0  0  0  0  0
    4.6278  -10.2829    0.0000 C   0  0  0  0  0  0  0  0  0  0  0  0
    5.3794  -10.6099    0.0000 N   0  0  0  0  0  0  0  0  0  0  0  0
    5.9280   -9.9964    0.0000 N   0  0  0  0  0  0  0  0  0  0  0  0
    5.5126   -9.2861    0.0000 N   0  0  0  0  0  0  0  0  0  0  0  0
    4.7098   -9.4633    0.0000 N   0  0  0  0  0  0  0  0  0  0  0  0
    6.7480   -9.9961    0.0000 C   0  0  0  0  0  0  0  0  0  0  0  0
    7.1544  -10.7090    0.0000 C   0  0  0  0  0  0  0  0  0  0  0  0
    7.9736  -10.7091    0.0000 C   0  0  0  0  0  0  0  0  0  0  0  0
    8.3863   -9.9977    0.0000 C   0  0  0  0  0  0  0  0  0  0  0  0
    7.9695   -9.2848    0.0000 C   0  0  0  0  0  0  0  0  0  0  0  0
    7.1516   -9.2882    0.0000 C   0  0  0  0  0  0  0  0  0  0  0  0
    4.6291  -11.9278    0.0000 N   0  0  0  0  0  0  0  0  0  0  0  0
    4.6311  -12.7450    0.0000 C   0  0  0  0  0  0  0  0  0  0  0  0
    5.3398  -13.1518    0.0000 C   0  0  0  0  0  0  0  0  0  0  0  0
    3.9244  -13.1553    0.0000 O   0  0  0  0  0  0  0  0  0  0  0  0
    9.2035   -9.9963    0.0000 O   0  0  0  0  0  0  0  0  0  0  0  0
    9.6132  -10.7033    0.0000 C   0  0  0  0  0  0  0  0  0  0  0  0
    5.4295  -13.9603    0.0000 S   0  0  0  0  0  0  0  0  0  0  0  0
    6.2293  -14.1283    0.0000 C   0  0  0  0  0  0  0  0  0  0  0  0
    6.6362  -13.4195    0.0000 C   0  0  0  0  0  0  0  0  0  0  0  0
    6.0878  -12.8137    0.0000 C   0  0  0  0  0  0  0  0  0  0  0  0
  1  2  2  0
  2  3  1  0
  3  4  2  0
  4  5  1  0
  5  6  2  0
  6  1  1  0
  5  7  1  0
  7  8  2  0
  8  9  1  0
  9 10  1  0
 10 11  2  0
 11  7  1  0
  9 12  1  0
 12 13  2  0
 13 14  1  0
 14 15  2  0
 15 16  1  0
 16 17  2  0
 17 12  1  0
  4 18  1  0
 18 19  1  0
 19 20  1  0
 19 21  2  0
 15 22  1  0
 22 23  1  0
 20 24  1  0
 24 25  1  0
 25 26  2  0
 26 27  1  0
 27 20  2  0
M  END
>  <Classification>  (544) 
1

>  <pchembl>  (544) 
6.46

>  <InChI_steorem>  (544) 
InChI=1S/C19H15N5O2S/c1-26-14-10-8-13(9-11-14)24-22-18(21-23-24)15-5-2-3-6-16(15)20-19(25)17-7-4-12-27-17/h2-12H,1H3,(H,20,25)

>  <source>  (544) 
ChEMBL26

>  <source_id>  (544) 
26

>  <optional_reference>  (544) 
10.1016/j.ejmech.2018.01.012

>  <optional_origin>  (544) 
None

>  <target>  (544) 
BCRP

$$$$

     RDKit          2D

 27 30  0  0  0  0  0  0  0  0999 V2000
   31.3738   -3.8342    0.0000 C   0  0  0  0  0  0  0  0  0  0  0  0
   31.3726   -4.6578    0.0000 C   0  0  0  0  0  0  0  0  0  0  0  0
   32.0848   -5.0709    0.0000 C   0  0  0  0  0  0  0  0  0  0  0  0
   32.0830   -3.4253    0.0000 C   0  0  0  0  0  0  0  0  0  0  0  0
   32.7958   -3.8306    0.0000 C   0  0  0  0  0  0  0  0  0  0  0  0
   32.7965   -4.6537    0.0000 C   0  0  0  0  0  0  0  0  0  0  0  0
   33.5092   -5.0649    0.0000 N   0  0  0  0  0  0  0  0  0  0  0  0
   34.2174   -4.6499    0.0000 C   0  0  0  0  0  0  0  0  0  0  0  0
   34.2127   -3.8237    0.0000 N   0  0  0  0  0  0  0  0  0  0  0  0
   33.5036   -3.4203    0.0000 C   0  0  0  0  0  0  0  0  0  0  0  0
   34.9273   -5.0558    0.0000 C   0  0  0  0  0  0  0  0  0  0  0  0
   34.9292   -5.8783    0.0000 C   0  0  0  0  0  0  0  0  0  0  0  0
   35.6417   -6.2840    0.0000 C   0  0  0  0  0  0  0  0  0  0  0  0
   36.3530   -5.8726    0.0000 C   0  0  0  0  0  0  0  0  0  0  0  0
   36.3471   -5.0471    0.0000 C   0  0  0  0  0  0  0  0  0  0  0  0
   35.6340   -4.6409    0.0000 C   0  0  0  0  0  0  0  0  0  0  0  0
   33.4993   -2.5990    0.0000 N   0  0  0  0  0  0  0  0  0  0  0  0
   34.2048   -2.1825    0.0000 C   0  0  0  0  0  0  0  0  0  0  0  0
   34.9142   -2.5949    0.0000 C   0  0  0  0  0  0  0  0  0  0  0  0
   35.6234   -2.1791    0.0000 C   0  0  0  0  0  0  0  0  0  0  0  0
   35.6195   -1.3569    0.0000 C   0  0  0  0  0  0  0  0  0  0  0  0
   34.9005   -0.9523    0.0000 C   0  0  0  0  0  0  0  0  0  0  0  0
   34.1943   -1.3663    0.0000 C   0  0  0  0  0  0  0  0  0  0  0  0
   37.0522   -4.6339    0.0000 O   0  0  0  0  0  0  0  0  0  0  0  0
   37.7625   -5.0380    0.0000 C   0  0  0  0  0  0  0  0  0  0  0  0
   36.3334   -2.5837    0.0000 O   0  0  0  0  0  0  0  0  0  0  0  0
   36.3381   -3.4008    0.0000 C   0  0  0  0  0  0  0  0  0  0  0  0
  1  2  2  0
  2  3  1  0
  3  6  2  0
  5  4  2  0
  4  1  1  0
  5  6  1  0
  6  7  1  0
  7  8  2  0
  8  9  1  0
  9 10  2  0
 10  5  1  0
 11 12  2  0
 12 13  1  0
 13 14  2  0
 14 15  1  0
 15 16  2  0
 16 11  1  0
  8 11  1  0
 10 17  1  0
 17 18  1  0
 18 19  2  0
 19 20  1  0
 20 21  2  0
 21 22  1  0
 22 23  2  0
 23 18  1  0
 15 24  1  0
 24 25  1  0
 20 26  1  0
 26 27  1  0
M  END
>  <Classification>  (545) 
1

>  <pchembl>  (545) 
6.09

>  <InChI_steorem>  (545) 
InChI=1S/C22H19N3O2/c1-26-17-9-5-7-15(13-17)21-24-20-12-4-3-11-19(20)22(25-21)23-16-8-6-10-18(14-16)27-2/h3-14H,1-2H3,(H,23,24,25)

>  <source>  (545) 
ChEMBL26

>  <source_id>  (545) 
26

>  <optional_reference>  (545) 
10.1016/j.ejmech.2017.08.020

>  <optional_origin>  (545) 
None

>  <target>  (545) 
BCRP

$$$$

     RDKit          2D

 27 30  0  0  0  0  0  0  0  0999 V2000
   34.8126  -12.1275    0.0000 C   0  0  0  0  0  0  0  0  0  0  0  0
   34.8114  -12.9554    0.0000 C   0  0  0  0  0  0  0  0  0  0  0  0
   35.5274  -13.3707    0.0000 C   0  0  0  0  0  0  0  0  0  0  0  0
   35.5256  -11.7164    0.0000 C   0  0  0  0  0  0  0  0  0  0  0  0
   36.2420  -12.1238    0.0000 C   0  0  0  0  0  0  0  0  0  0  0  0
   36.2428  -12.9513    0.0000 C   0  0  0  0  0  0  0  0  0  0  0  0
   36.9593  -13.3646    0.0000 N   0  0  0  0  0  0  0  0  0  0  0  0
   37.6712  -12.9475    0.0000 C   0  0  0  0  0  0  0  0  0  0  0  0
   37.6665  -12.1169    0.0000 N   0  0  0  0  0  0  0  0  0  0  0  0
   36.9537  -11.7114    0.0000 C   0  0  0  0  0  0  0  0  0  0  0  0
   38.3849  -13.3555    0.0000 C   0  0  0  0  0  0  0  0  0  0  0  0
   38.3867  -14.1823    0.0000 C   0  0  0  0  0  0  0  0  0  0  0  0
   39.1030  -14.5902    0.0000 C   0  0  0  0  0  0  0  0  0  0  0  0
   39.8180  -14.1766    0.0000 C   0  0  0  0  0  0  0  0  0  0  0  0
   39.8121  -13.3467    0.0000 C   0  0  0  0  0  0  0  0  0  0  0  0
   39.0953  -12.9384    0.0000 C   0  0  0  0  0  0  0  0  0  0  0  0
   36.9493  -10.8857    0.0000 N   0  0  0  0  0  0  0  0  0  0  0  0
   37.6585  -10.4671    0.0000 C   0  0  0  0  0  0  0  0  0  0  0  0
   38.3717  -10.8816    0.0000 C   0  0  0  0  0  0  0  0  0  0  0  0
   39.0846  -10.4636    0.0000 C   0  0  0  0  0  0  0  0  0  0  0  0
   39.0807   -9.6371    0.0000 C   0  0  0  0  0  0  0  0  0  0  0  0
   38.3579   -9.2304    0.0000 C   0  0  0  0  0  0  0  0  0  0  0  0
   37.6480   -9.6466    0.0000 C   0  0  0  0  0  0  0  0  0  0  0  0
   39.1062  -15.4149    0.0000 N   0  0  0  0  0  0  0  0  0  0  0  0
   39.8191  -15.8232    0.0000 O   0  0  0  0  0  0  0  0  0  0  0  0
   38.3962  -15.8280    0.0000 O   0  0  0  0  0  0  0  0  0  0  0  0
   38.3507   -8.4089    0.0000 N   0  0  0  0  0  0  0  0  0  0  0  0
  1  2  2  0
  2  3  1  0
  3  6  2  0
  5  4  2  0
  4  1  1  0
  5  6  1  0
  6  7  1  0
  7  8  2  0
  8  9  1  0
  9 10  2  0
 10  5  1  0
 11 12  2  0
 12 13  1  0
 13 14  2  0
 14 15  1  0
 15 16  2  0
 16 11  1  0
  8 11  1  0
 10 17  1  0
 17 18  1  0
 18 19  2  0
 19 20  1  0
 20 21  2  0
 21 22  1  0
 22 23  2  0
 23 18  1  0
 24 25  2  0
 24 26  1  0
 13 24  1  0
 22 27  1  0
M  CHG  2  24   1  26  -1
M  END
>  <Classification>  (546) 
1

>  <pchembl>  (546) 
6.55

>  <InChI_steorem>  (546) 
InChI=1S/C20H15N5O2/c21-14-6-4-7-15(12-14)22-20-17-9-1-2-10-18(17)23-19(24-20)13-5-3-8-16(11-13)25(26)27/h1-12H,21H2,(H,22,23,24)

>  <source>  (546) 
ChEMBL26

>  <source_id>  (546) 
26

>  <optional_reference>  (546) 
10.1016/j.ejmech.2017.08.020

>  <optional_origin>  (546) 
None

>  <target>  (546) 
BCRP

$$$$

     RDKit          2D

 27 30  0  0  0  0  0  0  0  0999 V2000
    7.2501  -11.0486    0.0000 C   0  0  0  0  0  0  0  0  0  0  0  0
    7.2490  -11.8722    0.0000 C   0  0  0  0  0  0  0  0  0  0  0  0
    7.9611  -12.2853    0.0000 C   0  0  0  0  0  0  0  0  0  0  0  0
    7.9594  -10.6397    0.0000 C   0  0  0  0  0  0  0  0  0  0  0  0
    8.6721  -11.0450    0.0000 C   0  0  0  0  0  0  0  0  0  0  0  0
    8.6729  -11.8681    0.0000 C   0  0  0  0  0  0  0  0  0  0  0  0
    9.3855  -12.2793    0.0000 N   0  0  0  0  0  0  0  0  0  0  0  0
   10.0938  -11.8643    0.0000 C   0  0  0  0  0  0  0  0  0  0  0  0
   10.0891  -11.0381    0.0000 N   0  0  0  0  0  0  0  0  0  0  0  0
    9.3799  -10.6347    0.0000 C   0  0  0  0  0  0  0  0  0  0  0  0
   10.8037  -12.2702    0.0000 C   0  0  0  0  0  0  0  0  0  0  0  0
   10.8055  -13.0927    0.0000 C   0  0  0  0  0  0  0  0  0  0  0  0
   11.5181  -13.4984    0.0000 C   0  0  0  0  0  0  0  0  0  0  0  0
   12.2293  -13.0870    0.0000 C   0  0  0  0  0  0  0  0  0  0  0  0
   12.2235  -12.2615    0.0000 C   0  0  0  0  0  0  0  0  0  0  0  0
   11.5103  -11.8553    0.0000 C   0  0  0  0  0  0  0  0  0  0  0  0
    9.3756   -9.8134    0.0000 N   0  0  0  0  0  0  0  0  0  0  0  0
   10.0812   -9.3969    0.0000 C   0  0  0  0  0  0  0  0  0  0  0  0
   10.7906   -9.8093    0.0000 C   0  0  0  0  0  0  0  0  0  0  0  0
   11.4997   -9.3935    0.0000 C   0  0  0  0  0  0  0  0  0  0  0  0
   11.4958   -8.5713    0.0000 C   0  0  0  0  0  0  0  0  0  0  0  0
   10.7769   -8.1667    0.0000 C   0  0  0  0  0  0  0  0  0  0  0  0
   10.0706   -8.5807    0.0000 C   0  0  0  0  0  0  0  0  0  0  0  0
   12.9386  -13.4928    0.0000 O   0  0  0  0  0  0  0  0  0  0  0  0
   12.9418  -14.3100    0.0000 C   0  0  0  0  0  0  0  0  0  0  0  0
   12.2084   -9.7973    0.0000 C   0  0  0  0  0  0  0  0  0  0  0  0
   12.9184  -10.2018    0.0000 N   0  0  0  0  0  0  0  0  0  0  0  0
  1  2  2  0
  2  3  1  0
  3  6  2  0
  5  4  2  0
  4  1  1  0
  5  6  1  0
  6  7  1  0
  7  8  2  0
  8  9  1  0
  9 10  2  0
 10  5  1  0
 11 12  2  0
 12 13  1  0
 13 14  2  0
 14 15  1  0
 15 16  2  0
 16 11  1  0
  8 11  1  0
 10 17  1  0
 17 18  1  0
 18 19  2  0
 19 20  1  0
 20 21  2  0
 21 22  1  0
 22 23  2  0
 23 18  1  0
 14 24  1  0
 24 25  1  0
 26 27  3  0
 20 26  1  0
M  END
>  <Classification>  (547) 
1

>  <pchembl>  (547) 
5.67

>  <InChI_steorem>  (547) 
InChI=1S/C22H16N4O/c1-27-18-11-9-16(10-12-18)21-25-20-8-3-2-7-19(20)22(26-21)24-17-6-4-5-15(13-17)14-23/h2-13H,1H3,(H,24,25,26)

>  <source>  (547) 
ChEMBL26

>  <source_id>  (547) 
26

>  <optional_reference>  (547) 
10.1016/j.ejmech.2017.08.020

>  <optional_origin>  (547) 
None

>  <target>  (547) 
BCRP

$$$$

     RDKit          2D

 27 30  0  0  0  0  0  0  0  0999 V2000
    9.7388   -4.5564    0.0000 C   0  0  0  0  0  0  0  0  0  0  0  0
    9.7377   -5.3801    0.0000 C   0  0  0  0  0  0  0  0  0  0  0  0
   10.4499   -5.7891    0.0000 C   0  0  0  0  0  0  0  0  0  0  0  0
   10.4481   -4.1434    0.0000 C   0  0  0  0  0  0  0  0  0  0  0  0
   11.1608   -4.5528    0.0000 C   0  0  0  0  0  0  0  0  0  0  0  0
   11.1616   -5.3760    0.0000 C   0  0  0  0  0  0  0  0  0  0  0  0
   11.8701   -5.7830    0.0000 N   0  0  0  0  0  0  0  0  0  0  0  0
   12.5825   -5.3722    0.0000 C   0  0  0  0  0  0  0  0  0  0  0  0
   12.5778   -4.5460    0.0000 N   0  0  0  0  0  0  0  0  0  0  0  0
   11.8645   -4.1385    0.0000 C   0  0  0  0  0  0  0  0  0  0  0  0
   11.8602   -3.3172    0.0000 N   0  0  0  0  0  0  0  0  0  0  0  0
   12.5699   -2.9048    0.0000 C   0  0  0  0  0  0  0  0  0  0  0  0
   13.2793   -3.3130    0.0000 C   0  0  0  0  0  0  0  0  0  0  0  0
   13.9885   -2.9014    0.0000 C   0  0  0  0  0  0  0  0  0  0  0  0
   13.9846   -2.0792    0.0000 C   0  0  0  0  0  0  0  0  0  0  0  0
   13.2656   -1.6704    0.0000 C   0  0  0  0  0  0  0  0  0  0  0  0
   12.5593   -2.0885    0.0000 C   0  0  0  0  0  0  0  0  0  0  0  0
   13.2959   -5.7781    0.0000 C   0  0  0  0  0  0  0  0  0  0  0  0
   13.2942   -6.5964    0.0000 C   0  0  0  0  0  0  0  0  0  0  0  0
   14.0068   -7.0063    0.0000 C   0  0  0  0  0  0  0  0  0  0  0  0
   14.7180   -6.5908    0.0000 C   0  0  0  0  0  0  0  0  0  0  0  0
   14.7122   -5.7652    0.0000 C   0  0  0  0  0  0  0  0  0  0  0  0
   13.9991   -5.3632    0.0000 C   0  0  0  0  0  0  0  0  0  0  0  0
    9.0262   -4.1441    0.0000 N   0  0  0  0  0  0  0  0  0  0  0  0
    8.3145   -4.5570    0.0000 O   0  0  0  0  0  0  0  0  0  0  0  0
    9.0260   -3.3228    0.0000 O   0  0  0  0  0  0  0  0  0  0  0  0
   13.2584   -0.8491    0.0000 O   0  0  0  0  0  0  0  0  0  0  0  0
  1  2  2  0
  2  3  1  0
  3  6  2  0
  5  4  2  0
  4  1  1  0
  5  6  1  0
  6  7  1  0
  7  8  2  0
  8  9  1  0
  9 10  2  0
 10  5  1  0
 10 11  1  0
 11 12  1  0
 12 13  2  0
 13 14  1  0
 14 15  2  0
 15 16  1  0
 16 17  2  0
 17 12  1  0
  8 18  1  0
 18 19  2  0
 19 20  1  0
 20 21  2  0
 21 22  1  0
 22 23  2  0
 23 18  1  0
 24 25  2  0
 24 26  1  0
  1 24  1  0
 16 27  1  0
M  CHG  2  24   1  26  -1
M  END
>  <Classification>  (548) 
1

>  <pchembl>  (548) 
7.18

>  <InChI_steorem>  (548) 
InChI=1S/C20H14N4O3/c25-16-8-4-7-14(11-16)21-20-17-12-15(24(26)27)9-10-18(17)22-19(23-20)13-5-2-1-3-6-13/h1-12,25H,(H,21,22,23)

>  <source>  (548) 
ChEMBL26

>  <source_id>  (548) 
26

>  <optional_reference>  (548) 
10.1021/acs.jmedchem.8b01011

>  <optional_origin>  (548) 
None

>  <target>  (548) 
BCRP

$$$$

     RDKit          2D

 28 30  0  0  0  0  0  0  0  0999 V2000
   21.1754   -2.5712    0.0000 C   0  0  0  0  0  0  0  0  0  0  0  0
   21.1742   -3.3908    0.0000 C   0  0  0  0  0  0  0  0  0  0  0  0
   21.8823   -3.7997    0.0000 C   0  0  0  0  0  0  0  0  0  0  0  0
   22.5920   -3.3903    0.0000 C   0  0  0  0  0  0  0  0  0  0  0  0
   22.5891   -2.5676    0.0000 C   0  0  0  0  0  0  0  0  0  0  0  0
   21.8805   -2.1624    0.0000 C   0  0  0  0  0  0  0  0  0  0  0  0
   23.2953   -2.1564    0.0000 C   0  0  0  0  0  0  0  0  0  0  0  0
   24.0045   -2.5623    0.0000 C   0  0  0  0  0  0  0  0  0  0  0  0
   23.2922   -1.3392    0.0000 O   0  0  0  0  0  0  0  0  0  0  0  0
   24.7107   -2.1510    0.0000 C   0  0  0  0  0  0  0  0  0  0  0  0
   25.4199   -2.5570    0.0000 C   0  0  0  0  0  0  0  0  0  0  0  0
   25.4199   -3.3730    0.0000 C   0  0  0  0  0  0  0  0  0  0  0  0
   26.1283   -3.7789    0.0000 C   0  0  0  0  0  0  0  0  0  0  0  0
   26.1208   -2.1440    0.0000 C   0  0  0  0  0  0  0  0  0  0  0  0
   26.8298   -2.5462    0.0000 C   0  0  0  0  0  0  0  0  0  0  0  0
   26.8327   -3.3660    0.0000 C   0  0  0  0  0  0  0  0  0  0  0  0
   27.5352   -2.1336    0.0000 O   0  0  0  0  0  0  0  0  0  0  0  0
   28.2451   -2.5382    0.0000 C   0  0  0  0  0  0  0  0  0  0  0  0
   27.5424   -3.7710    0.0000 O   0  0  0  0  0  0  0  0  0  0  0  0
   27.5466   -4.5882    0.0000 C   0  0  0  0  0  0  0  0  0  0  0  0
   23.3003   -3.7978    0.0000 N   0  0  0  0  0  0  0  0  0  0  0  0
   23.3016   -4.6150    0.0000 C   0  0  0  0  0  0  0  0  0  0  0  0
   24.0099   -5.0224    0.0000 C   0  0  0  0  0  0  0  0  0  0  0  0
   22.5945   -5.0247    0.0000 O   0  0  0  0  0  0  0  0  0  0  0  0
   24.1005   -5.8325    0.0000 S   0  0  0  0  0  0  0  0  0  0  0  0
   24.9001   -6.0012    0.0000 C   0  0  0  0  0  0  0  0  0  0  0  0
   25.3076   -5.2928    0.0000 C   0  0  0  0  0  0  0  0  0  0  0  0
   24.7598   -4.6865    0.0000 C   0  0  0  0  0  0  0  0  0  0  0  0
  1  2  2  0
  2  3  1  0
  3  4  2  0
  4  5  1  0
  5  6  2  0
  6  1  1  0
  5  7  1  0
  7  8  1  0
  7  9  2  0
  8 10  2  3
 10 11  1  0
 11 12  2  0
 12 13  1  0
 13 16  2  0
 15 14  2  0
 14 11  1  0
 15 16  1  0
 15 17  1  0
 17 18  1  0
 16 19  1  0
 19 20  1  0
  4 21  1  0
 21 22  1  0
 22 23  1  0
 22 24  2  0
 23 25  1  0
 25 26  1  0
 26 27  2  0
 27 28  1  0
 28 23  2  0
M  END
>  <Classification>  (549) 
1

>  <pchembl>  (549) 
6.3

>  <InChI_steorem>  (549) 
InChI=1S/C22H19NO4S/c1-26-19-12-10-15(14-20(19)27-2)9-11-18(24)16-6-3-4-7-17(16)23-22(25)21-8-5-13-28-21/h3-14H,1-2H3,(H,23,25)

>  <source>  (549) 
ChEMBL26

>  <source_id>  (549) 
26

>  <optional_reference>  (549) 
10.1021/acsmedchemlett.8b00289

>  <optional_origin>  (549) 
None

>  <target>  (549) 
BCRP

$$$$

     RDKit          2D

 28 31  0  0  0  0  0  0  0  0999 V2000
    0.9850  -10.5492    0.0000 C   0  0  0  0  0  0  0  0  0  0  0  0
    0.9838  -11.3728    0.0000 C   0  0  0  0  0  0  0  0  0  0  0  0
    1.6960  -11.7859    0.0000 C   0  0  0  0  0  0  0  0  0  0  0  0
    1.6942  -10.1403    0.0000 C   0  0  0  0  0  0  0  0  0  0  0  0
    2.4070  -10.5456    0.0000 C   0  0  0  0  0  0  0  0  0  0  0  0
    2.4077  -11.3687    0.0000 C   0  0  0  0  0  0  0  0  0  0  0  0
    3.1204  -11.7799    0.0000 N   0  0  0  0  0  0  0  0  0  0  0  0
    3.8287  -11.3649    0.0000 C   0  0  0  0  0  0  0  0  0  0  0  0
    3.8239  -10.5387    0.0000 N   0  0  0  0  0  0  0  0  0  0  0  0
    3.1148  -10.1353    0.0000 C   0  0  0  0  0  0  0  0  0  0  0  0
    4.5385  -11.7708    0.0000 C   0  0  0  0  0  0  0  0  0  0  0  0
    4.5404  -12.5933    0.0000 C   0  0  0  0  0  0  0  0  0  0  0  0
    5.2530  -12.9990    0.0000 C   0  0  0  0  0  0  0  0  0  0  0  0
    5.9642  -12.5876    0.0000 C   0  0  0  0  0  0  0  0  0  0  0  0
    5.9584  -11.7621    0.0000 C   0  0  0  0  0  0  0  0  0  0  0  0
    5.2452  -11.3559    0.0000 C   0  0  0  0  0  0  0  0  0  0  0  0
    3.1105   -9.3140    0.0000 N   0  0  0  0  0  0  0  0  0  0  0  0
    3.8160   -8.8975    0.0000 C   0  0  0  0  0  0  0  0  0  0  0  0
    4.5254   -9.3099    0.0000 C   0  0  0  0  0  0  0  0  0  0  0  0
    5.2346   -8.8941    0.0000 C   0  0  0  0  0  0  0  0  0  0  0  0
    5.2307   -8.0719    0.0000 C   0  0  0  0  0  0  0  0  0  0  0  0
    4.5117   -7.6673    0.0000 C   0  0  0  0  0  0  0  0  0  0  0  0
    3.8055   -8.0813    0.0000 C   0  0  0  0  0  0  0  0  0  0  0  0
    6.6735  -12.9934    0.0000 O   0  0  0  0  0  0  0  0  0  0  0  0
    6.6767  -13.8106    0.0000 C   0  0  0  0  0  0  0  0  0  0  0  0
    5.9460   -9.2979    0.0000 N   0  0  0  0  0  0  0  0  0  0  0  0
    6.6514   -8.8852    0.0000 O   0  0  0  0  0  0  0  0  0  0  0  0
    5.9507  -10.1150    0.0000 O   0  0  0  0  0  0  0  0  0  0  0  0
  1  2  2  0
  2  3  1  0
  3  6  2  0
  5  4  2  0
  4  1  1  0
  5  6  1  0
  6  7  1  0
  7  8  2  0
  8  9  1  0
  9 10  2  0
 10  5  1  0
 11 12  2  0
 12 13  1  0
 13 14  2  0
 14 15  1  0
 15 16  2  0
 16 11  1  0
  8 11  1  0
 10 17  1  0
 17 18  1  0
 18 19  2  0
 19 20  1  0
 20 21  2  0
 21 22  1  0
 22 23  2  0
 23 18  1  0
 14 24  1  0
 24 25  1  0
 26 27  2  0
 26 28  1  0
 20 26  1  0
M  CHG  2  26   1  28  -1
M  END
>  <Classification>  (550) 
1

>  <pchembl>  (550) 
6.74

>  <InChI_steorem>  (550) 
InChI=1S/C21H16N4O3/c1-28-17-11-9-14(10-12-17)20-23-19-8-3-2-7-18(19)21(24-20)22-15-5-4-6-16(13-15)25(26)27/h2-13H,1H3,(H,22,23,24)

>  <source>  (550) 
ChEMBL26

>  <source_id>  (550) 
26

>  <optional_reference>  (550) 
10.1016/j.ejmech.2017.08.020

>  <optional_origin>  (550) 
None

>  <target>  (550) 
BCRP

$$$$

     RDKit          2D

 28 31  0  0  0  0  0  0  0  0999 V2000
   11.0430  -26.4307    0.0000 C   0  0  0  0  0  0  0  0  0  0  0  0
   11.0419  -27.2544    0.0000 C   0  0  0  0  0  0  0  0  0  0  0  0
   11.7541  -27.6675    0.0000 C   0  0  0  0  0  0  0  0  0  0  0  0
   12.4679  -27.2539    0.0000 C   0  0  0  0  0  0  0  0  0  0  0  0
   12.4650  -26.4271    0.0000 C   0  0  0  0  0  0  0  0  0  0  0  0
   11.7523  -26.0219    0.0000 C   0  0  0  0  0  0  0  0  0  0  0  0
   13.1753  -26.0159    0.0000 C   0  0  0  0  0  0  0  0  0  0  0  0
   13.9268  -26.3429    0.0000 N   0  0  0  0  0  0  0  0  0  0  0  0
   14.4755  -25.7294    0.0000 N   0  0  0  0  0  0  0  0  0  0  0  0
   14.0601  -25.0191    0.0000 N   0  0  0  0  0  0  0  0  0  0  0  0
   13.2573  -25.1963    0.0000 N   0  0  0  0  0  0  0  0  0  0  0  0
   13.1766  -27.6608    0.0000 N   0  0  0  0  0  0  0  0  0  0  0  0
   13.1786  -28.4780    0.0000 C   0  0  0  0  0  0  0  0  0  0  0  0
   13.8873  -28.8848    0.0000 C   0  0  0  0  0  0  0  0  0  0  0  0
   12.4719  -28.8883    0.0000 O   0  0  0  0  0  0  0  0  0  0  0  0
   13.8874  -29.7006    0.0000 C   0  0  0  0  0  0  0  0  0  0  0  0
   14.5953  -30.1074    0.0000 C   0  0  0  0  0  0  0  0  0  0  0  0
   15.3029  -29.6970    0.0000 C   0  0  0  0  0  0  0  0  0  0  0  0
   15.2983  -28.8756    0.0000 C   0  0  0  0  0  0  0  0  0  0  0  0
   14.5898  -28.4725    0.0000 C   0  0  0  0  0  0  0  0  0  0  0  0
   15.2914  -25.7291    0.0000 C   0  0  0  0  0  0  0  0  0  0  0  0
   15.6977  -26.4379    0.0000 C   0  0  0  0  0  0  0  0  0  0  0  0
   16.5129  -26.4379    0.0000 N   0  0  0  0  0  0  0  0  0  0  0  0
   16.9214  -25.7307    0.0000 C   0  0  0  0  0  0  0  0  0  0  0  0
   16.5088  -25.0219    0.0000 C   0  0  0  0  0  0  0  0  0  0  0  0
   15.6950  -25.0253    0.0000 C   0  0  0  0  0  0  0  0  0  0  0  0
   17.7386  -25.7293    0.0000 O   0  0  0  0  0  0  0  0  0  0  0  0
   18.1484  -26.4363    0.0000 C   0  0  0  0  0  0  0  0  0  0  0  0
  1  2  2  0
  2  3  1  0
  3  4  2  0
  4  5  1  0
  5  6  2  0
  6  1  1  0
  5  7  1  0
  7  8  2  0
  8  9  1  0
  9 10  1  0
 10 11  2  0
 11  7  1  0
  4 12  1  0
 12 13  1  0
 13 14  1  0
 13 15  2  0
 14 16  2  0
 16 17  1  0
 17 18  2  0
 18 19  1  0
 19 20  2  0
 20 14  1  0
  9 21  1  0
 21 22  2  0
 22 23  1  0
 23 24  2  0
 24 25  1  0
 25 26  2  0
 26 21  1  0
 24 27  1  0
 27 28  1  0
M  END
>  <Classification>  (551) 
1

>  <pchembl>  (551) 
6.99

>  <InChI_steorem>  (551) 
InChI=1S/C20H16N6O2/c1-28-18-12-11-15(13-21-18)26-24-19(23-25-26)16-9-5-6-10-17(16)22-20(27)14-7-3-2-4-8-14/h2-13H,1H3,(H,22,27)

>  <source>  (551) 
ChEMBL26

>  <source_id>  (551) 
26

>  <optional_reference>  (551) 
10.1016/j.ejmech.2018.01.012

>  <optional_origin>  (551) 
None

>  <target>  (551) 
BCRP

$$$$

     RDKit          2D

 28 31  0  0  0  0  0  0  0  0999 V2000
    1.5793  -26.8228    0.0000 C   0  0  0  0  0  0  0  0  0  0  0  0
    1.5782  -27.6465    0.0000 C   0  0  0  0  0  0  0  0  0  0  0  0
    2.2903  -28.0596    0.0000 C   0  0  0  0  0  0  0  0  0  0  0  0
    3.0041  -27.6460    0.0000 C   0  0  0  0  0  0  0  0  0  0  0  0
    3.0013  -26.8192    0.0000 C   0  0  0  0  0  0  0  0  0  0  0  0
    2.2886  -26.4140    0.0000 C   0  0  0  0  0  0  0  0  0  0  0  0
    3.7116  -26.4080    0.0000 C   0  0  0  0  0  0  0  0  0  0  0  0
    4.4631  -26.7350    0.0000 N   0  0  0  0  0  0  0  0  0  0  0  0
    5.0118  -26.1215    0.0000 N   0  0  0  0  0  0  0  0  0  0  0  0
    4.5963  -25.4112    0.0000 N   0  0  0  0  0  0  0  0  0  0  0  0
    3.7936  -25.5883    0.0000 N   0  0  0  0  0  0  0  0  0  0  0  0
    5.8318  -26.1212    0.0000 C   0  0  0  0  0  0  0  0  0  0  0  0
    6.2381  -26.8341    0.0000 C   0  0  0  0  0  0  0  0  0  0  0  0
    7.0574  -26.8341    0.0000 C   0  0  0  0  0  0  0  0  0  0  0  0
    7.4700  -26.1227    0.0000 C   0  0  0  0  0  0  0  0  0  0  0  0
    7.0533  -25.4098    0.0000 C   0  0  0  0  0  0  0  0  0  0  0  0
    6.2354  -25.4133    0.0000 C   0  0  0  0  0  0  0  0  0  0  0  0
    3.7128  -28.0529    0.0000 N   0  0  0  0  0  0  0  0  0  0  0  0
    3.7149  -28.8700    0.0000 C   0  0  0  0  0  0  0  0  0  0  0  0
    4.4236  -29.2769    0.0000 C   0  0  0  0  0  0  0  0  0  0  0  0
    3.0082  -29.2804    0.0000 O   0  0  0  0  0  0  0  0  0  0  0  0
    8.2872  -26.1214    0.0000 O   0  0  0  0  0  0  0  0  0  0  0  0
    8.6970  -26.8284    0.0000 C   0  0  0  0  0  0  0  0  0  0  0  0
    4.4200  -30.0923    0.0000 C   0  0  0  0  0  0  0  0  0  0  0  0
    5.1247  -30.4991    0.0000 C   0  0  0  0  0  0  0  0  0  0  0  0
    5.8338  -30.0922    0.0000 C   0  0  0  0  0  0  0  0  0  0  0  0
    5.8337  -29.2741    0.0000 C   0  0  0  0  0  0  0  0  0  0  0  0
    5.1245  -28.8628    0.0000 C   0  0  0  0  0  0  0  0  0  0  0  0
  1  2  2  0
  2  3  1  0
  3  4  2  0
  4  5  1  0
  5  6  2  0
  6  1  1  0
  5  7  1  0
  7  8  2  0
  8  9  1  0
  9 10  1  0
 10 11  2  0
 11  7  1  0
  9 12  1  0
 12 13  2  0
 13 14  1  0
 14 15  2  0
 15 16  1  0
 16 17  2  0
 17 12  1  0
  4 18  1  0
 18 19  1  0
 19 20  1  0
 19 21  2  0
 15 22  1  0
 22 23  1  0
 20 24  1  0
 20 28  1  0
 24 25  1  0
 25 26  1  0
 26 27  1  0
 27 28  1  0
M  END
>  <Classification>  (552) 
1

>  <pchembl>  (552) 
6.25

>  <InChI_steorem>  (552) 
InChI=1S/C21H23N5O2/c1-28-17-13-11-16(12-14-17)26-24-20(23-25-26)18-9-5-6-10-19(18)22-21(27)15-7-3-2-4-8-15/h5-6,9-15H,2-4,7-8H2,1H3,(H,22,27)

>  <source>  (552) 
ChEMBL26

>  <source_id>  (552) 
26

>  <optional_reference>  (552) 
10.1016/j.ejmech.2018.01.012

>  <optional_origin>  (552) 
None

>  <target>  (552) 
BCRP

$$$$

     RDKit          2D

 28 31  0  0  0  0  0  0  0  0999 V2000
   16.6519  -18.4652    0.0000 C   0  0  0  0  0  0  0  0  0  0  0  0
   16.6508  -19.2888    0.0000 C   0  0  0  0  0  0  0  0  0  0  0  0
   17.3630  -19.7019    0.0000 C   0  0  0  0  0  0  0  0  0  0  0  0
   17.3612  -18.0563    0.0000 C   0  0  0  0  0  0  0  0  0  0  0  0
   18.0739  -18.4616    0.0000 C   0  0  0  0  0  0  0  0  0  0  0  0
   18.0747  -19.2847    0.0000 C   0  0  0  0  0  0  0  0  0  0  0  0
   18.7874  -19.6959    0.0000 N   0  0  0  0  0  0  0  0  0  0  0  0
   19.4997  -19.2810    0.0000 C   0  0  0  0  0  0  0  0  0  0  0  0
   19.4950  -18.4547    0.0000 N   0  0  0  0  0  0  0  0  0  0  0  0
   18.7818  -18.0514    0.0000 C   0  0  0  0  0  0  0  0  0  0  0  0
   18.7774  -17.2300    0.0000 N   0  0  0  0  0  0  0  0  0  0  0  0
   19.4871  -16.8136    0.0000 C   0  0  0  0  0  0  0  0  0  0  0  0
   20.1924  -17.2259    0.0000 C   0  0  0  0  0  0  0  0  0  0  0  0
   20.9016  -16.8101    0.0000 C   0  0  0  0  0  0  0  0  0  0  0  0
   20.8977  -15.9880    0.0000 C   0  0  0  0  0  0  0  0  0  0  0  0
   20.1787  -15.5833    0.0000 C   0  0  0  0  0  0  0  0  0  0  0  0
   19.4766  -15.9973    0.0000 C   0  0  0  0  0  0  0  0  0  0  0  0
   20.2090  -19.6909    0.0000 C   0  0  0  0  0  0  0  0  0  0  0  0
   20.2073  -20.5093    0.0000 C   0  0  0  0  0  0  0  0  0  0  0  0
   20.9199  -20.9150    0.0000 C   0  0  0  0  0  0  0  0  0  0  0  0
   21.6311  -20.5036    0.0000 N   0  0  0  0  0  0  0  0  0  0  0  0
   21.6253  -19.6781    0.0000 C   0  0  0  0  0  0  0  0  0  0  0  0
   20.9122  -19.2719    0.0000 C   0  0  0  0  0  0  0  0  0  0  0  0
   15.9393  -18.0570    0.0000 N   0  0  0  0  0  0  0  0  0  0  0  0
   15.2276  -18.4658    0.0000 O   0  0  0  0  0  0  0  0  0  0  0  0
   15.9391  -17.2357    0.0000 O   0  0  0  0  0  0  0  0  0  0  0  0
   21.6068  -15.5747    0.0000 O   0  0  0  0  0  0  0  0  0  0  0  0
   22.3213  -15.9786    0.0000 C   0  0  0  0  0  0  0  0  0  0  0  0
  1  2  2  0
  2  3  1  0
  3  6  2  0
  5  4  2  0
  4  1  1  0
  5  6  1  0
  6  7  1  0
  7  8  2  0
  8  9  1  0
  9 10  2  0
 10  5  1  0
 10 11  1  0
 11 12  1  0
 12 13  2  0
 13 14  1  0
 14 15  2  0
 15 16  1  0
 16 17  2  0
 17 12  1  0
  8 18  1  0
 18 19  2  0
 19 20  1  0
 20 21  2  0
 21 22  1  0
 22 23  2  0
 23 18  1  0
 24 25  2  0
 24 26  1  0
  1 24  1  0
 15 27  1  0
 27 28  1  0
M  CHG  2  24   1  26  -1
M  END
>  <Classification>  (553) 
1

>  <pchembl>  (553) 
7.12

>  <InChI_steorem>  (553) 
InChI=1S/C20H15N5O3/c1-28-16-5-2-14(3-6-16)22-20-17-12-15(25(26)27)4-7-18(17)23-19(24-20)13-8-10-21-11-9-13/h2-12H,1H3,(H,22,23,24)

>  <source>  (553) 
ChEMBL26

>  <source_id>  (553) 
26

>  <optional_reference>  (553) 
10.1021/acs.jmedchem.8b01011

>  <optional_origin>  (553) 
None

>  <target>  (553) 
BCRP

$$$$

     RDKit          2D

 28 31  0  0  0  0  0  0  0  0999 V2000
   17.0028   -4.6348    0.0000 C   0  0  0  0  0  0  0  0  0  0  0  0
   17.0016   -5.4585    0.0000 C   0  0  0  0  0  0  0  0  0  0  0  0
   17.7097   -5.8675    0.0000 C   0  0  0  0  0  0  0  0  0  0  0  0
   17.7079   -4.2219    0.0000 C   0  0  0  0  0  0  0  0  0  0  0  0
   18.4206   -4.6312    0.0000 C   0  0  0  0  0  0  0  0  0  0  0  0
   18.4214   -5.4544    0.0000 C   0  0  0  0  0  0  0  0  0  0  0  0
   19.1340   -5.8614    0.0000 N   0  0  0  0  0  0  0  0  0  0  0  0
   19.8464   -5.4506    0.0000 C   0  0  0  0  0  0  0  0  0  0  0  0
   19.8417   -4.6244    0.0000 N   0  0  0  0  0  0  0  0  0  0  0  0
   19.1285   -4.2169    0.0000 C   0  0  0  0  0  0  0  0  0  0  0  0
   19.1241   -3.3956    0.0000 N   0  0  0  0  0  0  0  0  0  0  0  0
   19.8338   -2.9832    0.0000 C   0  0  0  0  0  0  0  0  0  0  0  0
   20.5432   -3.3915    0.0000 C   0  0  0  0  0  0  0  0  0  0  0  0
   21.2524   -2.9798    0.0000 C   0  0  0  0  0  0  0  0  0  0  0  0
   21.2485   -2.1576    0.0000 C   0  0  0  0  0  0  0  0  0  0  0  0
   20.5295   -1.7488    0.0000 C   0  0  0  0  0  0  0  0  0  0  0  0
   19.8233   -2.1670    0.0000 C   0  0  0  0  0  0  0  0  0  0  0  0
   20.5599   -5.8565    0.0000 C   0  0  0  0  0  0  0  0  0  0  0  0
   20.5581   -6.6748    0.0000 C   0  0  0  0  0  0  0  0  0  0  0  0
   21.2707   -7.0847    0.0000 C   0  0  0  0  0  0  0  0  0  0  0  0
   21.9819   -6.6692    0.0000 C   0  0  0  0  0  0  0  0  0  0  0  0
   21.9761   -5.8436    0.0000 C   0  0  0  0  0  0  0  0  0  0  0  0
   21.2630   -5.4416    0.0000 C   0  0  0  0  0  0  0  0  0  0  0  0
   16.2901   -4.2225    0.0000 N   0  0  0  0  0  0  0  0  0  0  0  0
   15.5784   -4.6354    0.0000 O   0  0  0  0  0  0  0  0  0  0  0  0
   16.2899   -3.4012    0.0000 O   0  0  0  0  0  0  0  0  0  0  0  0
   20.5223   -0.9275    0.0000 O   0  0  0  0  0  0  0  0  0  0  0  0
   21.9576   -1.7402    0.0000 O   0  0  0  0  0  0  0  0  0  0  0  0
  1  2  2  0
  2  3  1  0
  3  6  2  0
  5  4  2  0
  4  1  1  0
  5  6  1  0
  6  7  1  0
  7  8  2  0
  8  9  1  0
  9 10  2  0
 10  5  1  0
 10 11  1  0
 11 12  1  0
 12 13  2  0
 13 14  1  0
 14 15  2  0
 15 16  1  0
 16 17  2  0
 17 12  1  0
  8 18  1  0
 18 19  2  0
 19 20  1  0
 20 21  2  0
 21 22  1  0
 22 23  2  0
 23 18  1  0
 24 25  2  0
 24 26  1  0
  1 24  1  0
 16 27  1  0
 15 28  1  0
M  CHG  2  24   1  26  -1
M  END
>  <Classification>  (554) 
1

>  <pchembl>  (554) 
6.92

>  <InChI_steorem>  (554) 
InChI=1S/C20H14N4O4/c25-17-9-6-13(10-18(17)26)21-20-15-11-14(24(27)28)7-8-16(15)22-19(23-20)12-4-2-1-3-5-12/h1-11,25-26H,(H,21,22,23)

>  <source>  (554) 
ChEMBL26

>  <source_id>  (554) 
26

>  <optional_reference>  (554) 
10.1021/acs.jmedchem.8b01011

>  <optional_origin>  (554) 
None

>  <target>  (554) 
BCRP

$$$$

     RDKit          2D

 28 31  0  0  0  0  0  0  0  0999 V2000
   17.4733  -12.1423    0.0000 C   0  0  0  0  0  0  0  0  0  0  0  0
   17.4721  -12.9618    0.0000 C   0  0  0  0  0  0  0  0  0  0  0  0
   18.1802  -13.3708    0.0000 C   0  0  0  0  0  0  0  0  0  0  0  0
   18.1784  -11.7334    0.0000 C   0  0  0  0  0  0  0  0  0  0  0  0
   18.8870  -12.1387    0.0000 C   0  0  0  0  0  0  0  0  0  0  0  0
   18.8878  -12.9577    0.0000 C   0  0  0  0  0  0  0  0  0  0  0  0
   19.5963  -13.3647    0.0000 N   0  0  0  0  0  0  0  0  0  0  0  0
   20.3046  -12.9539    0.0000 C   0  0  0  0  0  0  0  0  0  0  0  0
   20.2998  -12.1318    0.0000 N   0  0  0  0  0  0  0  0  0  0  0  0
   19.5907  -11.7284    0.0000 C   0  0  0  0  0  0  0  0  0  0  0  0
   19.5864  -10.9113    0.0000 N   0  0  0  0  0  0  0  0  0  0  0  0
   20.2919  -10.4989    0.0000 C   0  0  0  0  0  0  0  0  0  0  0  0
   20.9972  -10.9071    0.0000 C   0  0  0  0  0  0  0  0  0  0  0  0
   21.7022  -10.4955    0.0000 C   0  0  0  0  0  0  0  0  0  0  0  0
   21.6984   -9.6774    0.0000 C   0  0  0  0  0  0  0  0  0  0  0  0
   20.9835   -9.2728    0.0000 C   0  0  0  0  0  0  0  0  0  0  0  0
   20.2814   -9.6868    0.0000 C   0  0  0  0  0  0  0  0  0  0  0  0
   21.0138  -13.3598    0.0000 C   0  0  0  0  0  0  0  0  0  0  0  0
   21.0121  -14.1740    0.0000 C   0  0  0  0  0  0  0  0  0  0  0  0
   21.7206  -14.5798    0.0000 C   0  0  0  0  0  0  0  0  0  0  0  0
   22.4277  -14.1684    0.0000 C   0  0  0  0  0  0  0  0  0  0  0  0
   22.4219  -13.3469    0.0000 C   0  0  0  0  0  0  0  0  0  0  0  0
   21.7128  -12.9449    0.0000 C   0  0  0  0  0  0  0  0  0  0  0  0
   16.7655  -11.7338    0.0000 N   0  0  0  0  0  0  0  0  0  0  0  0
   23.1265  -12.9331    0.0000 C   0  0  0  0  0  0  0  0  0  0  0  0
   23.8372  -13.3365    0.0000 F   0  0  0  0  0  0  0  0  0  0  0  0
   23.1205  -12.1159    0.0000 F   0  0  0  0  0  0  0  0  0  0  0  0
   23.8306  -12.5179    0.0000 F   0  0  0  0  0  0  0  0  0  0  0  0
  1  2  2  0
  2  3  1  0
  3  6  2  0
  5  4  2  0
  4  1  1  0
  5  6  1  0
  6  7  1  0
  7  8  2  0
  8  9  1  0
  9 10  2  0
 10  5  1  0
 10 11  1  0
 11 12  1  0
 12 13  2  0
 13 14  1  0
 14 15  2  0
 15 16  1  0
 16 17  2  0
 17 12  1  0
  8 18  1  0
 18 19  2  0
 19 20  1  0
 20 21  2  0
 21 22  1  0
 22 23  2  0
 23 18  1  0
  1 24  1  0
 22 25  1  0
 25 26  1  0
 25 27  1  0
 25 28  1  0
M  END
>  <Classification>  (555) 
1

>  <pchembl>  (555) 
6.14

>  <InChI_steorem>  (555) 
InChI=1S/C21H15F3N4/c22-21(23,24)14-6-4-5-13(11-14)19-27-18-10-9-15(25)12-17(18)20(28-19)26-16-7-2-1-3-8-16/h1-12H,25H2,(H,26,27,28)

>  <source>  (555) 
ChEMBL26

>  <source_id>  (555) 
26

>  <optional_reference>  (555) 
10.1021/acs.jmedchem.8b01011

>  <optional_origin>  (555) 
None

>  <target>  (555) 
BCRP

$$$$

     RDKit          2D

 28 31  0  0  0  0  0  0  0  0999 V2000
   21.6023  -12.8119    0.0000 C   0  0  0  0  0  0  0  0  0  0  0  0
   21.6011  -13.6400    0.0000 C   0  0  0  0  0  0  0  0  0  0  0  0
   22.3171  -14.0553    0.0000 C   0  0  0  0  0  0  0  0  0  0  0  0
   22.3152  -12.4010    0.0000 C   0  0  0  0  0  0  0  0  0  0  0  0
   23.0317  -12.8083    0.0000 C   0  0  0  0  0  0  0  0  0  0  0  0
   23.0325  -13.6359    0.0000 C   0  0  0  0  0  0  0  0  0  0  0  0
   23.7490  -14.0492    0.0000 N   0  0  0  0  0  0  0  0  0  0  0  0
   24.4609  -13.6320    0.0000 C   0  0  0  0  0  0  0  0  0  0  0  0
   24.4562  -12.8015    0.0000 N   0  0  0  0  0  0  0  0  0  0  0  0
   23.7433  -12.3960    0.0000 C   0  0  0  0  0  0  0  0  0  0  0  0
   25.1745  -14.0401    0.0000 C   0  0  0  0  0  0  0  0  0  0  0  0
   25.1763  -14.8668    0.0000 C   0  0  0  0  0  0  0  0  0  0  0  0
   25.8927  -15.2747    0.0000 C   0  0  0  0  0  0  0  0  0  0  0  0
   26.6076  -14.8612    0.0000 C   0  0  0  0  0  0  0  0  0  0  0  0
   26.6018  -14.0313    0.0000 C   0  0  0  0  0  0  0  0  0  0  0  0
   25.8850  -13.6230    0.0000 C   0  0  0  0  0  0  0  0  0  0  0  0
   23.7390  -11.5703    0.0000 N   0  0  0  0  0  0  0  0  0  0  0  0
   24.4482  -11.1516    0.0000 C   0  0  0  0  0  0  0  0  0  0  0  0
   25.1614  -11.5662    0.0000 C   0  0  0  0  0  0  0  0  0  0  0  0
   25.8743  -11.1482    0.0000 C   0  0  0  0  0  0  0  0  0  0  0  0
   25.8704  -10.3217    0.0000 C   0  0  0  0  0  0  0  0  0  0  0  0
   25.1476   -9.9150    0.0000 C   0  0  0  0  0  0  0  0  0  0  0  0
   24.4377  -10.3311    0.0000 C   0  0  0  0  0  0  0  0  0  0  0  0
   25.8959  -16.0995    0.0000 N   0  0  0  0  0  0  0  0  0  0  0  0
   26.6087  -16.5078    0.0000 O   0  0  0  0  0  0  0  0  0  0  0  0
   25.1859  -16.5126    0.0000 O   0  0  0  0  0  0  0  0  0  0  0  0
   25.1403   -9.0935    0.0000 S   0  0  0  0  0  0  0  0  0  0  0  0
   25.8482   -8.6765    0.0000 C   0  0  0  0  0  0  0  0  0  0  0  0
  1  2  2  0
  2  3  1  0
  3  6  2  0
  5  4  2  0
  4  1  1  0
  5  6  1  0
  6  7  1  0
  7  8  2  0
  8  9  1  0
  9 10  2  0
 10  5  1  0
 11 12  2  0
 12 13  1  0
 13 14  2  0
 14 15  1  0
 15 16  2  0
 16 11  1  0
  8 11  1  0
 10 17  1  0
 17 18  1  0
 18 19  2  0
 19 20  1  0
 20 21  2  0
 21 22  1  0
 22 23  2  0
 23 18  1  0
 24 25  2  0
 24 26  1  0
 13 24  1  0
 22 27  1  0
 27 28  1  0
M  CHG  2  24   1  26  -1
M  END
>  <Classification>  (556) 
1

>  <pchembl>  (556) 
7.02

>  <InChI_steorem>  (556) 
InChI=1S/C21H16N4O2S/c1-28-17-9-5-7-15(13-17)22-21-18-10-2-3-11-19(18)23-20(24-21)14-6-4-8-16(12-14)25(26)27/h2-13H,1H3,(H,22,23,24)

>  <source>  (556) 
ChEMBL26

>  <source_id>  (556) 
26

>  <optional_reference>  (556) 
10.1016/j.ejmech.2017.08.020

>  <optional_origin>  (556) 
None

>  <target>  (556) 
BCRP

$$$$

     RDKit          2D

 28 31  0  0  0  0  0  0  0  0999 V2000
    2.1860  -26.0675    0.0000 C   0  0  0  0  0  0  0  0  0  0  0  0
    2.1849  -26.8912    0.0000 C   0  0  0  0  0  0  0  0  0  0  0  0
    2.8970  -27.3043    0.0000 C   0  0  0  0  0  0  0  0  0  0  0  0
    2.8953  -25.6587    0.0000 C   0  0  0  0  0  0  0  0  0  0  0  0
    3.6080  -26.0639    0.0000 C   0  0  0  0  0  0  0  0  0  0  0  0
    3.6088  -26.8871    0.0000 C   0  0  0  0  0  0  0  0  0  0  0  0
    4.3214  -27.2983    0.0000 N   0  0  0  0  0  0  0  0  0  0  0  0
    5.0297  -26.8833    0.0000 C   0  0  0  0  0  0  0  0  0  0  0  0
    5.0249  -26.0571    0.0000 N   0  0  0  0  0  0  0  0  0  0  0  0
    4.3158  -25.6537    0.0000 C   0  0  0  0  0  0  0  0  0  0  0  0
    5.7395  -27.2892    0.0000 C   0  0  0  0  0  0  0  0  0  0  0  0
    5.7414  -28.1116    0.0000 C   0  0  0  0  0  0  0  0  0  0  0  0
    6.4540  -28.5174    0.0000 C   0  0  0  0  0  0  0  0  0  0  0  0
    7.1652  -28.1060    0.0000 C   0  0  0  0  0  0  0  0  0  0  0  0
    7.1594  -27.2805    0.0000 C   0  0  0  0  0  0  0  0  0  0  0  0
    6.4462  -26.8743    0.0000 C   0  0  0  0  0  0  0  0  0  0  0  0
    4.3115  -24.8324    0.0000 N   0  0  0  0  0  0  0  0  0  0  0  0
    5.0170  -24.4159    0.0000 C   0  0  0  0  0  0  0  0  0  0  0  0
    5.7265  -24.8283    0.0000 C   0  0  0  0  0  0  0  0  0  0  0  0
    6.4356  -24.4125    0.0000 C   0  0  0  0  0  0  0  0  0  0  0  0
    6.4317  -23.5903    0.0000 C   0  0  0  0  0  0  0  0  0  0  0  0
    5.7128  -23.1857    0.0000 C   0  0  0  0  0  0  0  0  0  0  0  0
    5.0065  -23.5997    0.0000 C   0  0  0  0  0  0  0  0  0  0  0  0
    7.8745  -28.5118    0.0000 O   0  0  0  0  0  0  0  0  0  0  0  0
    7.8777  -29.3290    0.0000 C   0  0  0  0  0  0  0  0  0  0  0  0
    7.8644  -26.8673    0.0000 O   0  0  0  0  0  0  0  0  0  0  0  0
    8.5748  -27.2713    0.0000 C   0  0  0  0  0  0  0  0  0  0  0  0
    7.1457  -24.8170    0.0000 F   0  0  0  0  0  0  0  0  0  0  0  0
  1  2  2  0
  2  3  1  0
  3  6  2  0
  5  4  2  0
  4  1  1  0
  5  6  1  0
  6  7  1  0
  7  8  2  0
  8  9  1  0
  9 10  2  0
 10  5  1  0
 11 12  2  0
 12 13  1  0
 13 14  2  0
 14 15  1  0
 15 16  2  0
 16 11  1  0
  8 11  1  0
 10 17  1  0
 17 18  1  0
 18 19  2  0
 19 20  1  0
 20 21  2  0
 21 22  1  0
 22 23  2  0
 23 18  1  0
 14 24  1  0
 24 25  1  0
 15 26  1  0
 26 27  1  0
 20 28  1  0
M  END
>  <Classification>  (557) 
1

>  <pchembl>  (557) 
6.33

>  <InChI_steorem>  (557) 
InChI=1S/C22H18FN3O2/c1-27-19-11-10-14(12-20(19)28-2)21-25-18-9-4-3-8-17(18)22(26-21)24-16-7-5-6-15(23)13-16/h3-13H,1-2H3,(H,24,25,26)

>  <source>  (557) 
ChEMBL26

>  <source_id>  (557) 
26

>  <optional_reference>  (557) 
10.1016/j.ejmech.2017.08.020

>  <optional_origin>  (557) 
None

>  <target>  (557) 
BCRP

$$$$

     RDKit          2D

 28 31  0  0  0  0  0  0  0  0999 V2000
   24.5391   -4.8371    0.0000 C   0  0  0  0  0  0  0  0  0  0  0  0
   24.5379   -5.6607    0.0000 C   0  0  0  0  0  0  0  0  0  0  0  0
   25.2501   -6.0738    0.0000 C   0  0  0  0  0  0  0  0  0  0  0  0
   25.2483   -4.4282    0.0000 C   0  0  0  0  0  0  0  0  0  0  0  0
   25.9611   -4.8335    0.0000 C   0  0  0  0  0  0  0  0  0  0  0  0
   25.9618   -5.6566    0.0000 C   0  0  0  0  0  0  0  0  0  0  0  0
   26.6704   -6.0678    0.0000 N   0  0  0  0  0  0  0  0  0  0  0  0
   27.3828   -5.6529    0.0000 C   0  0  0  0  0  0  0  0  0  0  0  0
   27.3780   -4.8266    0.0000 N   0  0  0  0  0  0  0  0  0  0  0  0
   26.6648   -4.4232    0.0000 C   0  0  0  0  0  0  0  0  0  0  0  0
   26.6604   -3.6019    0.0000 N   0  0  0  0  0  0  0  0  0  0  0  0
   27.3701   -3.1855    0.0000 C   0  0  0  0  0  0  0  0  0  0  0  0
   28.0795   -3.5978    0.0000 C   0  0  0  0  0  0  0  0  0  0  0  0
   28.7887   -3.1820    0.0000 C   0  0  0  0  0  0  0  0  0  0  0  0
   28.7848   -2.3598    0.0000 C   0  0  0  0  0  0  0  0  0  0  0  0
   28.0658   -1.9552    0.0000 C   0  0  0  0  0  0  0  0  0  0  0  0
   27.3596   -2.3692    0.0000 C   0  0  0  0  0  0  0  0  0  0  0  0
   28.0962   -6.0628    0.0000 C   0  0  0  0  0  0  0  0  0  0  0  0
   28.0945   -6.8812    0.0000 C   0  0  0  0  0  0  0  0  0  0  0  0
   28.8070   -7.2869    0.0000 C   0  0  0  0  0  0  0  0  0  0  0  0
   29.5183   -6.8755    0.0000 C   0  0  0  0  0  0  0  0  0  0  0  0
   29.5124   -6.0500    0.0000 C   0  0  0  0  0  0  0  0  0  0  0  0
   28.7993   -5.6438    0.0000 C   0  0  0  0  0  0  0  0  0  0  0  0
   23.8265   -4.4289    0.0000 N   0  0  0  0  0  0  0  0  0  0  0  0
   23.1147   -4.8377    0.0000 O   0  0  0  0  0  0  0  0  0  0  0  0
   23.8263   -3.6076    0.0000 O   0  0  0  0  0  0  0  0  0  0  0  0
   28.0586   -1.1339    0.0000 O   0  0  0  0  0  0  0  0  0  0  0  0
   28.7668   -0.7150    0.0000 C   0  0  0  0  0  0  0  0  0  0  0  0
  1  2  2  0
  2  3  1  0
  3  6  2  0
  5  4  2  0
  4  1  1  0
  5  6  1  0
  6  7  1  0
  7  8  2  0
  8  9  1  0
  9 10  2  0
 10  5  1  0
 10 11  1  0
 11 12  1  0
 12 13  2  0
 13 14  1  0
 14 15  2  0
 15 16  1  0
 16 17  2  0
 17 12  1  0
  8 18  1  0
 18 19  2  0
 19 20  1  0
 20 21  2  0
 21 22  1  0
 22 23  2  0
 23 18  1  0
 24 25  2  0
 24 26  1  0
  1 24  1  0
 16 27  1  0
 27 28  1  0
M  CHG  2  24   1  26  -1
M  END
>  <Classification>  (558) 
1

>  <pchembl>  (558) 
7.48

>  <InChI_steorem>  (558) 
InChI=1S/C21H16N4O3/c1-28-17-9-5-8-15(12-17)22-21-18-13-16(25(26)27)10-11-19(18)23-20(24-21)14-6-3-2-4-7-14/h2-13H,1H3,(H,22,23,24)

>  <source>  (558) 
ChEMBL26

>  <source_id>  (558) 
26

>  <optional_reference>  (558) 
10.1021/acs.jmedchem.8b01011

>  <optional_origin>  (558) 
None

>  <target>  (558) 
BCRP

$$$$

     RDKit          2D

 28 31  0  0  0  0  0  0  0  0999 V2000
   24.6753  -18.7211    0.0000 C   0  0  0  0  0  0  0  0  0  0  0  0
   24.6741  -19.5447    0.0000 C   0  0  0  0  0  0  0  0  0  0  0  0
   25.3863  -19.9578    0.0000 C   0  0  0  0  0  0  0  0  0  0  0  0
   25.3845  -18.3122    0.0000 C   0  0  0  0  0  0  0  0  0  0  0  0
   26.0973  -18.7175    0.0000 C   0  0  0  0  0  0  0  0  0  0  0  0
   26.0980  -19.5406    0.0000 C   0  0  0  0  0  0  0  0  0  0  0  0
   26.8066  -19.9518    0.0000 N   0  0  0  0  0  0  0  0  0  0  0  0
   27.5190  -19.5369    0.0000 C   0  0  0  0  0  0  0  0  0  0  0  0
   27.5142  -18.7106    0.0000 N   0  0  0  0  0  0  0  0  0  0  0  0
   26.8010  -18.3072    0.0000 C   0  0  0  0  0  0  0  0  0  0  0  0
   26.7966  -17.4859    0.0000 N   0  0  0  0  0  0  0  0  0  0  0  0
   27.5063  -17.0695    0.0000 C   0  0  0  0  0  0  0  0  0  0  0  0
   28.2157  -17.4818    0.0000 C   0  0  0  0  0  0  0  0  0  0  0  0
   28.9249  -17.0660    0.0000 C   0  0  0  0  0  0  0  0  0  0  0  0
   28.9210  -16.2438    0.0000 C   0  0  0  0  0  0  0  0  0  0  0  0
   28.2020  -15.8392    0.0000 C   0  0  0  0  0  0  0  0  0  0  0  0
   27.4958  -16.2532    0.0000 C   0  0  0  0  0  0  0  0  0  0  0  0
   28.2324  -19.9468    0.0000 C   0  0  0  0  0  0  0  0  0  0  0  0
   28.2307  -20.7652    0.0000 C   0  0  0  0  0  0  0  0  0  0  0  0
   28.9432  -21.1709    0.0000 C   0  0  0  0  0  0  0  0  0  0  0  0
   29.6545  -20.7595    0.0000 N   0  0  0  0  0  0  0  0  0  0  0  0
   29.6486  -19.9340    0.0000 C   0  0  0  0  0  0  0  0  0  0  0  0
   28.9355  -19.5278    0.0000 C   0  0  0  0  0  0  0  0  0  0  0  0
   23.9626  -18.3129    0.0000 N   0  0  0  0  0  0  0  0  0  0  0  0
   23.2509  -18.7217    0.0000 O   0  0  0  0  0  0  0  0  0  0  0  0
   23.9625  -17.4916    0.0000 O   0  0  0  0  0  0  0  0  0  0  0  0
   28.1915  -15.0198    0.0000 C   0  0  0  0  0  0  0  0  0  0  0  0
   28.1843  -14.1985    0.0000 N   0  0  0  0  0  0  0  0  0  0  0  0
  1  2  2  0
  2  3  1  0
  3  6  2  0
  5  4  2  0
  4  1  1  0
  5  6  1  0
  6  7  1  0
  7  8  2  0
  8  9  1  0
  9 10  2  0
 10  5  1  0
 10 11  1  0
 11 12  1  0
 12 13  2  0
 13 14  1  0
 14 15  2  0
 15 16  1  0
 16 17  2  0
 17 12  1  0
  8 18  1  0
 18 19  2  0
 19 20  1  0
 20 21  2  0
 21 22  1  0
 22 23  2  0
 23 18  1  0
 24 25  2  0
 24 26  1  0
  1 24  1  0
 27 28  3  0
 16 27  1  0
M  CHG  2  24   1  26  -1
M  END
>  <Classification>  (559) 
1

>  <pchembl>  (559) 
7.2

>  <InChI_steorem>  (559) 
InChI=1S/C20H12N6O2/c21-12-13-2-1-3-15(10-13)23-20-17-11-16(26(27)28)4-5-18(17)24-19(25-20)14-6-8-22-9-7-14/h1-11H,(H,23,24,25)

>  <source>  (559) 
ChEMBL26

>  <source_id>  (559) 
26

>  <optional_reference>  (559) 
10.1021/acs.jmedchem.8b01011

>  <optional_origin>  (559) 
None

>  <target>  (559) 
BCRP

$$$$

     RDKit          2D

 28 31  0  0  0  0  0  0  0  0999 V2000
   24.9353   -4.4574    0.0000 C   0  0  0  0  0  0  0  0  0  0  0  0
   24.9342   -5.2810    0.0000 C   0  0  0  0  0  0  0  0  0  0  0  0
   25.6463   -5.6941    0.0000 C   0  0  0  0  0  0  0  0  0  0  0  0
   25.6445   -4.0485    0.0000 C   0  0  0  0  0  0  0  0  0  0  0  0
   26.3573   -4.4538    0.0000 C   0  0  0  0  0  0  0  0  0  0  0  0
   26.3580   -5.2769    0.0000 C   0  0  0  0  0  0  0  0  0  0  0  0
   27.0707   -5.6881    0.0000 N   0  0  0  0  0  0  0  0  0  0  0  0
   27.7790   -5.2732    0.0000 C   0  0  0  0  0  0  0  0  0  0  0  0
   27.7742   -4.4469    0.0000 N   0  0  0  0  0  0  0  0  0  0  0  0
   27.0651   -4.0435    0.0000 C   0  0  0  0  0  0  0  0  0  0  0  0
   28.4888   -5.6790    0.0000 C   0  0  0  0  0  0  0  0  0  0  0  0
   28.4907   -6.5015    0.0000 C   0  0  0  0  0  0  0  0  0  0  0  0
   29.2033   -6.9072    0.0000 C   0  0  0  0  0  0  0  0  0  0  0  0
   29.9145   -6.4958    0.0000 C   0  0  0  0  0  0  0  0  0  0  0  0
   29.9087   -5.6703    0.0000 C   0  0  0  0  0  0  0  0  0  0  0  0
   29.1955   -5.2641    0.0000 C   0  0  0  0  0  0  0  0  0  0  0  0
   27.0608   -3.2222    0.0000 N   0  0  0  0  0  0  0  0  0  0  0  0
   27.7663   -2.8058    0.0000 C   0  0  0  0  0  0  0  0  0  0  0  0
   28.4757   -3.2181    0.0000 C   0  0  0  0  0  0  0  0  0  0  0  0
   29.1849   -2.8023    0.0000 C   0  0  0  0  0  0  0  0  0  0  0  0
   29.1810   -1.9801    0.0000 C   0  0  0  0  0  0  0  0  0  0  0  0
   28.4621   -1.5755    0.0000 C   0  0  0  0  0  0  0  0  0  0  0  0
   27.7558   -1.9895    0.0000 C   0  0  0  0  0  0  0  0  0  0  0  0
   29.2064   -7.7277    0.0000 N   0  0  0  0  0  0  0  0  0  0  0  0
   29.9155   -8.1338    0.0000 O   0  0  0  0  0  0  0  0  0  0  0  0
   28.5001   -8.1386    0.0000 O   0  0  0  0  0  0  0  0  0  0  0  0
   28.4561   -0.7603    0.0000 C   0  0  0  0  0  0  0  0  0  0  0  0
   28.4489    0.0569    0.0000 N   0  0  0  0  0  0  0  0  0  0  0  0
  1  2  2  0
  2  3  1  0
  3  6  2  0
  5  4  2  0
  4  1  1  0
  5  6  1  0
  6  7  1  0
  7  8  2  0
  8  9  1  0
  9 10  2  0
 10  5  1  0
 11 12  2  0
 12 13  1  0
 13 14  2  0
 14 15  1  0
 15 16  2  0
 16 11  1  0
  8 11  1  0
 10 17  1  0
 17 18  1  0
 18 19  2  0
 19 20  1  0
 20 21  2  0
 21 22  1  0
 22 23  2  0
 23 18  1  0
 24 25  2  0
 24 26  1  0
 13 24  1  0
 27 28  3  0
 22 27  1  0
M  CHG  2  24   1  26  -1
M  END
>  <Classification>  (560) 
1

>  <pchembl>  (560) 
6.92

>  <InChI_steorem>  (560) 
InChI=1S/C21H13N5O2/c22-13-14-5-3-7-16(11-14)23-21-18-9-1-2-10-19(18)24-20(25-21)15-6-4-8-17(12-15)26(27)28/h1-12H,(H,23,24,25)

>  <source>  (560) 
ChEMBL26

>  <source_id>  (560) 
26

>  <optional_reference>  (560) 
10.1016/j.ejmech.2017.08.020

>  <optional_origin>  (560) 
None

>  <target>  (560) 
BCRP

$$$$

     RDKit          2D

 28 31  0  0  0  0  0  0  0  0999 V2000
   25.1458  -27.9702    0.0000 C   0  0  0  0  0  0  0  0  0  0  0  0
   25.1446  -28.7939    0.0000 C   0  0  0  0  0  0  0  0  0  0  0  0
   25.8568  -29.2069    0.0000 C   0  0  0  0  0  0  0  0  0  0  0  0
   25.8550  -27.5613    0.0000 C   0  0  0  0  0  0  0  0  0  0  0  0
   26.5678  -27.9666    0.0000 C   0  0  0  0  0  0  0  0  0  0  0  0
   26.5685  -28.7897    0.0000 C   0  0  0  0  0  0  0  0  0  0  0  0
   27.2812  -29.2009    0.0000 N   0  0  0  0  0  0  0  0  0  0  0  0
   27.9895  -28.7860    0.0000 C   0  0  0  0  0  0  0  0  0  0  0  0
   27.9847  -27.9597    0.0000 N   0  0  0  0  0  0  0  0  0  0  0  0
   27.2756  -27.5564    0.0000 C   0  0  0  0  0  0  0  0  0  0  0  0
   28.6993  -29.1919    0.0000 C   0  0  0  0  0  0  0  0  0  0  0  0
   28.7012  -30.0143    0.0000 C   0  0  0  0  0  0  0  0  0  0  0  0
   29.4137  -30.4201    0.0000 C   0  0  0  0  0  0  0  0  0  0  0  0
   30.1250  -30.0087    0.0000 C   0  0  0  0  0  0  0  0  0  0  0  0
   30.1191  -29.1831    0.0000 C   0  0  0  0  0  0  0  0  0  0  0  0
   29.4060  -28.7769    0.0000 C   0  0  0  0  0  0  0  0  0  0  0  0
   27.2713  -26.7351    0.0000 N   0  0  0  0  0  0  0  0  0  0  0  0
   27.9768  -26.3186    0.0000 C   0  0  0  0  0  0  0  0  0  0  0  0
   28.6862  -26.7309    0.0000 C   0  0  0  0  0  0  0  0  0  0  0  0
   29.3954  -26.3151    0.0000 C   0  0  0  0  0  0  0  0  0  0  0  0
   29.3915  -25.4930    0.0000 C   0  0  0  0  0  0  0  0  0  0  0  0
   28.6725  -25.0883    0.0000 C   0  0  0  0  0  0  0  0  0  0  0  0
   27.9663  -25.5023    0.0000 C   0  0  0  0  0  0  0  0  0  0  0  0
   29.4006  -27.9598    0.0000 O   0  0  0  0  0  0  0  0  0  0  0  0
   30.1056  -27.5465    0.0000 C   0  0  0  0  0  0  0  0  0  0  0  0
   28.6653  -24.2673    0.0000 N   0  0  0  0  0  0  0  0  0  0  0  0
   27.9540  -23.8649    0.0000 O   0  0  0  0  0  0  0  0  0  0  0  0
   29.3694  -23.8525    0.0000 O   0  0  0  0  0  0  0  0  0  0  0  0
  1  2  2  0
  2  3  1  0
  3  6  2  0
  5  4  2  0
  4  1  1  0
  5  6  1  0
  6  7  1  0
  7  8  2  0
  8  9  1  0
  9 10  2  0
 10  5  1  0
 11 12  2  0
 12 13  1  0
 13 14  2  0
 14 15  1  0
 15 16  2  0
 16 11  1  0
  8 11  1  0
 10 17  1  0
 17 18  1  0
 18 19  2  0
 19 20  1  0
 20 21  2  0
 21 22  1  0
 22 23  2  0
 23 18  1  0
 16 24  1  0
 24 25  1  0
 26 27  2  0
 26 28  1  0
 22 26  1  0
M  CHG  2  26   1  28  -1
M  END
>  <Classification>  (561) 
1

>  <pchembl>  (561) 
6.19

>  <InChI_steorem>  (561) 
InChI=1S/C21H16N4O3/c1-28-19-12-5-3-10-17(19)21-23-18-11-4-2-9-16(18)20(24-21)22-14-7-6-8-15(13-14)25(26)27/h2-13H,1H3,(H,22,23,24)

>  <source>  (561) 
ChEMBL26

>  <source_id>  (561) 
26

>  <optional_reference>  (561) 
10.1016/j.ejmech.2017.08.020

>  <optional_origin>  (561) 
None

>  <target>  (561) 
BCRP

$$$$

     RDKit          2D

 28 31  0  0  0  0  0  0  0  0999 V2000
    2.6606  -18.2671    0.0000 C   0  0  0  0  0  0  0  0  0  0  0  0
    2.6595  -19.0907    0.0000 C   0  0  0  0  0  0  0  0  0  0  0  0
    3.3717  -19.4997    0.0000 C   0  0  0  0  0  0  0  0  0  0  0  0
    3.3699  -17.8541    0.0000 C   0  0  0  0  0  0  0  0  0  0  0  0
    4.0826  -18.2635    0.0000 C   0  0  0  0  0  0  0  0  0  0  0  0
    4.0834  -19.0866    0.0000 C   0  0  0  0  0  0  0  0  0  0  0  0
    4.7919  -19.4937    0.0000 N   0  0  0  0  0  0  0  0  0  0  0  0
    5.5043  -19.0829    0.0000 C   0  0  0  0  0  0  0  0  0  0  0  0
    5.4996  -18.2566    0.0000 N   0  0  0  0  0  0  0  0  0  0  0  0
    4.7863  -17.8491    0.0000 C   0  0  0  0  0  0  0  0  0  0  0  0
    4.7820  -17.0278    0.0000 N   0  0  0  0  0  0  0  0  0  0  0  0
    5.4917  -16.6155    0.0000 C   0  0  0  0  0  0  0  0  0  0  0  0
    6.2011  -17.0237    0.0000 C   0  0  0  0  0  0  0  0  0  0  0  0
    6.9103  -16.6120    0.0000 C   0  0  0  0  0  0  0  0  0  0  0  0
    6.9064  -15.7898    0.0000 C   0  0  0  0  0  0  0  0  0  0  0  0
    6.1874  -15.3811    0.0000 C   0  0  0  0  0  0  0  0  0  0  0  0
    5.4812  -15.7992    0.0000 C   0  0  0  0  0  0  0  0  0  0  0  0
    6.2177  -19.4887    0.0000 C   0  0  0  0  0  0  0  0  0  0  0  0
    6.2160  -20.3070    0.0000 C   0  0  0  0  0  0  0  0  0  0  0  0
    6.9286  -20.7169    0.0000 N   0  0  0  0  0  0  0  0  0  0  0  0
    7.6398  -20.3014    0.0000 C   0  0  0  0  0  0  0  0  0  0  0  0
    7.6340  -19.4759    0.0000 C   0  0  0  0  0  0  0  0  0  0  0  0
    6.9209  -19.0738    0.0000 C   0  0  0  0  0  0  0  0  0  0  0  0
    1.9480  -17.8548    0.0000 N   0  0  0  0  0  0  0  0  0  0  0  0
    1.2363  -18.2677    0.0000 O   0  0  0  0  0  0  0  0  0  0  0  0
    1.9478  -17.0335    0.0000 O   0  0  0  0  0  0  0  0  0  0  0  0
    6.1802  -14.5598    0.0000 O   0  0  0  0  0  0  0  0  0  0  0  0
    6.8884  -14.1450    0.0000 C   0  0  0  0  0  0  0  0  0  0  0  0
  1  2  2  0
  2  3  1  0
  3  6  2  0
  5  4  2  0
  4  1  1  0
  5  6  1  0
  6  7  1  0
  7  8  2  0
  8  9  1  0
  9 10  2  0
 10  5  1  0
 10 11  1  0
 11 12  1  0
 12 13  2  0
 13 14  1  0
 14 15  2  0
 15 16  1  0
 16 17  2  0
 17 12  1  0
  8 18  1  0
 18 19  2  0
 19 20  1  0
 20 21  2  0
 21 22  1  0
 22 23  2  0
 23 18  1  0
 24 25  2  0
 24 26  1  0
  1 24  1  0
 16 27  1  0
 27 28  1  0
M  CHG  2  24   1  26  -1
M  END
>  <Classification>  (562) 
1

>  <pchembl>  (562) 
7.33

>  <InChI_steorem>  (562) 
InChI=1S/C20H15N5O3/c1-28-16-6-2-5-14(10-16)22-20-17-11-15(25(26)27)7-8-18(17)23-19(24-20)13-4-3-9-21-12-13/h2-12H,1H3,(H,22,23,24)

>  <source>  (562) 
ChEMBL26

>  <source_id>  (562) 
26

>  <optional_reference>  (562) 
10.1021/acs.jmedchem.8b01011

>  <optional_origin>  (562) 
None

>  <target>  (562) 
BCRP

$$$$

     RDKit          2D

 28 31  0  0  0  0  0  0  0  0999 V2000
   27.6806  -12.6170    0.0000 C   0  0  0  0  0  0  0  0  0  0  0  0
   27.6794  -13.4450    0.0000 C   0  0  0  0  0  0  0  0  0  0  0  0
   28.3953  -13.8602    0.0000 C   0  0  0  0  0  0  0  0  0  0  0  0
   28.3935  -12.2060    0.0000 C   0  0  0  0  0  0  0  0  0  0  0  0
   29.1100  -12.6134    0.0000 C   0  0  0  0  0  0  0  0  0  0  0  0
   29.1108  -13.4408    0.0000 C   0  0  0  0  0  0  0  0  0  0  0  0
   29.8272  -13.8542    0.0000 N   0  0  0  0  0  0  0  0  0  0  0  0
   30.5391  -13.4371    0.0000 C   0  0  0  0  0  0  0  0  0  0  0  0
   30.5344  -12.6065    0.0000 N   0  0  0  0  0  0  0  0  0  0  0  0
   29.8216  -12.2009    0.0000 C   0  0  0  0  0  0  0  0  0  0  0  0
   31.2528  -13.8451    0.0000 C   0  0  0  0  0  0  0  0  0  0  0  0
   31.2546  -14.6719    0.0000 C   0  0  0  0  0  0  0  0  0  0  0  0
   31.9709  -15.0797    0.0000 C   0  0  0  0  0  0  0  0  0  0  0  0
   32.6859  -14.6662    0.0000 C   0  0  0  0  0  0  0  0  0  0  0  0
   32.6801  -13.8363    0.0000 C   0  0  0  0  0  0  0  0  0  0  0  0
   31.9632  -13.4280    0.0000 C   0  0  0  0  0  0  0  0  0  0  0  0
   29.8172  -11.3753    0.0000 N   0  0  0  0  0  0  0  0  0  0  0  0
   30.5265  -10.9567    0.0000 C   0  0  0  0  0  0  0  0  0  0  0  0
   31.2396  -11.3712    0.0000 C   0  0  0  0  0  0  0  0  0  0  0  0
   31.9525  -10.9532    0.0000 C   0  0  0  0  0  0  0  0  0  0  0  0
   31.9486  -10.1267    0.0000 C   0  0  0  0  0  0  0  0  0  0  0  0
   31.2258   -9.7199    0.0000 C   0  0  0  0  0  0  0  0  0  0  0  0
   30.5159  -10.1361    0.0000 C   0  0  0  0  0  0  0  0  0  0  0  0
   31.9742  -15.9044    0.0000 N   0  0  0  0  0  0  0  0  0  0  0  0
   32.6870  -16.3128    0.0000 O   0  0  0  0  0  0  0  0  0  0  0  0
   31.2641  -16.3176    0.0000 O   0  0  0  0  0  0  0  0  0  0  0  0
   32.6568   -9.7104    0.0000 S   0  0  0  0  0  0  0  0  0  0  0  0
   33.3714  -10.1155    0.0000 C   0  0  0  0  0  0  0  0  0  0  0  0
  1  2  2  0
  2  3  1  0
  3  6  2  0
  5  4  2  0
  4  1  1  0
  5  6  1  0
  6  7  1  0
  7  8  2  0
  8  9  1  0
  9 10  2  0
 10  5  1  0
 11 12  2  0
 12 13  1  0
 13 14  2  0
 14 15  1  0
 15 16  2  0
 16 11  1  0
  8 11  1  0
 10 17  1  0
 17 18  1  0
 18 19  2  0
 19 20  1  0
 20 21  2  0
 21 22  1  0
 22 23  2  0
 23 18  1  0
 24 25  2  0
 24 26  1  0
 13 24  1  0
 21 27  1  0
 27 28  1  0
M  CHG  2  24   1  26  -1
M  END
>  <Classification>  (563) 
1

>  <pchembl>  (563) 
7.05

>  <InChI_steorem>  (563) 
InChI=1S/C21H16N4O2S/c1-28-17-11-9-15(10-12-17)22-21-18-7-2-3-8-19(18)23-20(24-21)14-5-4-6-16(13-14)25(26)27/h2-13H,1H3,(H,22,23,24)

>  <source>  (563) 
ChEMBL26

>  <source_id>  (563) 
26

>  <optional_reference>  (563) 
10.1016/j.ejmech.2017.08.020

>  <optional_origin>  (563) 
None

>  <target>  (563) 
BCRP

$$$$

     RDKit          2D

 28 31  0  0  0  0  0  0  0  0999 V2000
    3.0692  -11.7295    0.0000 C   0  0  0  0  0  0  0  0  0  0  0  0
    3.0681  -12.5491    0.0000 C   0  0  0  0  0  0  0  0  0  0  0  0
    3.7761  -12.9580    0.0000 C   0  0  0  0  0  0  0  0  0  0  0  0
    3.7744  -11.3207    0.0000 C   0  0  0  0  0  0  0  0  0  0  0  0
    4.4830  -11.7259    0.0000 C   0  0  0  0  0  0  0  0  0  0  0  0
    4.4837  -12.5450    0.0000 C   0  0  0  0  0  0  0  0  0  0  0  0
    5.1923  -12.9520    0.0000 N   0  0  0  0  0  0  0  0  0  0  0  0
    5.9005  -12.5412    0.0000 C   0  0  0  0  0  0  0  0  0  0  0  0
    5.8958  -11.7191    0.0000 N   0  0  0  0  0  0  0  0  0  0  0  0
    5.1867  -11.3157    0.0000 C   0  0  0  0  0  0  0  0  0  0  0  0
    5.1824  -10.4985    0.0000 N   0  0  0  0  0  0  0  0  0  0  0  0
    5.8879  -10.0862    0.0000 C   0  0  0  0  0  0  0  0  0  0  0  0
    6.5932  -10.4944    0.0000 C   0  0  0  0  0  0  0  0  0  0  0  0
    7.2982  -10.0828    0.0000 C   0  0  0  0  0  0  0  0  0  0  0  0
    7.2943   -9.2647    0.0000 C   0  0  0  0  0  0  0  0  0  0  0  0
    6.5795   -8.8600    0.0000 C   0  0  0  0  0  0  0  0  0  0  0  0
    5.8774   -9.2740    0.0000 C   0  0  0  0  0  0  0  0  0  0  0  0
    6.6098  -12.9470    0.0000 C   0  0  0  0  0  0  0  0  0  0  0  0
    6.6081  -13.7613    0.0000 C   0  0  0  0  0  0  0  0  0  0  0  0
    7.3166  -14.1670    0.0000 C   0  0  0  0  0  0  0  0  0  0  0  0
    8.0278  -13.7556    0.0000 C   0  0  0  0  0  0  0  0  0  0  0  0
    8.0220  -12.9342    0.0000 C   0  0  0  0  0  0  0  0  0  0  0  0
    7.3088  -12.5322    0.0000 C   0  0  0  0  0  0  0  0  0  0  0  0
    2.3607  -11.3214    0.0000 N   0  0  0  0  0  0  0  0  0  0  0  0
    1.6531  -11.7301    0.0000 O   0  0  0  0  0  0  0  0  0  0  0  0
    2.3605  -10.5042    0.0000 O   0  0  0  0  0  0  0  0  0  0  0  0
    7.9971   -8.8493    0.0000 C   0  0  0  0  0  0  0  0  0  0  0  0
    8.7021   -8.4319    0.0000 N   0  0  0  0  0  0  0  0  0  0  0  0
  1  2  2  0
  2  3  1  0
  3  6  2  0
  5  4  2  0
  4  1  1  0
  5  6  1  0
  6  7  1  0
  7  8  2  0
  8  9  1  0
  9 10  2  0
 10  5  1  0
 10 11  1  0
 11 12  1  0
 12 13  2  0
 13 14  1  0
 14 15  2  0
 15 16  1  0
 16 17  2  0
 17 12  1  0
  8 18  1  0
 18 19  2  0
 19 20  1  0
 20 21  2  0
 21 22  1  0
 22 23  2  0
 23 18  1  0
 24 25  2  0
 24 26  1  0
  1 24  1  0
 27 28  3  0
 15 27  1  0
M  CHG  2  24   1  26  -1
M  END
>  <Classification>  (564) 
1

>  <pchembl>  (564) 
7.32

>  <InChI_steorem>  (564) 
InChI=1S/C21H13N5O2/c22-13-14-6-8-16(9-7-14)23-21-18-12-17(26(27)28)10-11-19(18)24-20(25-21)15-4-2-1-3-5-15/h1-12H,(H,23,24,25)

>  <source>  (564) 
ChEMBL26

>  <source_id>  (564) 
26

>  <optional_reference>  (564) 
10.1021/acs.jmedchem.8b01011

>  <optional_origin>  (564) 
None

>  <target>  (564) 
BCRP

$$$$

     RDKit          2D

 28 31  0  0  0  0  0  0  0  0999 V2000
   31.7535   -4.2386    0.0000 C   0  0  0  0  0  0  0  0  0  0  0  0
   31.7523   -5.0623    0.0000 C   0  0  0  0  0  0  0  0  0  0  0  0
   32.4645   -5.4754    0.0000 C   0  0  0  0  0  0  0  0  0  0  0  0
   32.4627   -3.8298    0.0000 C   0  0  0  0  0  0  0  0  0  0  0  0
   33.1755   -4.2350    0.0000 C   0  0  0  0  0  0  0  0  0  0  0  0
   33.1762   -5.0582    0.0000 C   0  0  0  0  0  0  0  0  0  0  0  0
   33.8889   -5.4694    0.0000 N   0  0  0  0  0  0  0  0  0  0  0  0
   34.5971   -5.0544    0.0000 C   0  0  0  0  0  0  0  0  0  0  0  0
   34.5924   -4.2282    0.0000 N   0  0  0  0  0  0  0  0  0  0  0  0
   33.8833   -3.8248    0.0000 C   0  0  0  0  0  0  0  0  0  0  0  0
   35.3070   -5.4603    0.0000 C   0  0  0  0  0  0  0  0  0  0  0  0
   35.3089   -6.2827    0.0000 C   0  0  0  0  0  0  0  0  0  0  0  0
   36.0214   -6.6885    0.0000 C   0  0  0  0  0  0  0  0  0  0  0  0
   36.7327   -6.2771    0.0000 C   0  0  0  0  0  0  0  0  0  0  0  0
   36.7268   -5.4516    0.0000 C   0  0  0  0  0  0  0  0  0  0  0  0
   36.0137   -5.0454    0.0000 C   0  0  0  0  0  0  0  0  0  0  0  0
   33.8790   -3.0035    0.0000 N   0  0  0  0  0  0  0  0  0  0  0  0
   34.5845   -2.5870    0.0000 C   0  0  0  0  0  0  0  0  0  0  0  0
   35.2939   -2.9994    0.0000 C   0  0  0  0  0  0  0  0  0  0  0  0
   36.0031   -2.5836    0.0000 C   0  0  0  0  0  0  0  0  0  0  0  0
   35.9992   -1.7614    0.0000 C   0  0  0  0  0  0  0  0  0  0  0  0
   35.2802   -1.3567    0.0000 C   0  0  0  0  0  0  0  0  0  0  0  0
   34.5740   -1.7707    0.0000 C   0  0  0  0  0  0  0  0  0  0  0  0
   36.0246   -7.5089    0.0000 N   0  0  0  0  0  0  0  0  0  0  0  0
   36.7337   -7.9151    0.0000 O   0  0  0  0  0  0  0  0  0  0  0  0
   35.3183   -7.9199    0.0000 O   0  0  0  0  0  0  0  0  0  0  0  0
   35.2731   -0.5396    0.0000 O   0  0  0  0  0  0  0  0  0  0  0  0
   35.9771   -0.1248    0.0000 C   0  0  0  0  0  0  0  0  0  0  0  0
  1  2  2  0
  2  3  1  0
  3  6  2  0
  5  4  2  0
  4  1  1  0
  5  6  1  0
  6  7  1  0
  7  8  2  0
  8  9  1  0
  9 10  2  0
 10  5  1  0
 11 12  2  0
 12 13  1  0
 13 14  2  0
 14 15  1  0
 15 16  2  0
 16 11  1  0
  8 11  1  0
 10 17  1  0
 17 18  1  0
 18 19  2  0
 19 20  1  0
 20 21  2  0
 21 22  1  0
 22 23  2  0
 23 18  1  0
 24 25  2  0
 24 26  1  0
 13 24  1  0
 22 27  1  0
 27 28  1  0
M  CHG  2  24   1  26  -1
M  END
>  <Classification>  (565) 
1

>  <pchembl>  (565) 
6.92

>  <InChI_steorem>  (565) 
InChI=1S/C21H16N4O3/c1-28-17-9-5-7-15(13-17)22-21-18-10-2-3-11-19(18)23-20(24-21)14-6-4-8-16(12-14)25(26)27/h2-13H,1H3,(H,22,23,24)

>  <source>  (565) 
ChEMBL26

>  <source_id>  (565) 
26

>  <optional_reference>  (565) 
10.1016/j.ejmech.2017.08.020

>  <optional_origin>  (565) 
None

>  <target>  (565) 
BCRP

$$$$

     RDKit          2D

 28 31  0  0  0  0  0  0  0  0999 V2000
   32.3478  -27.9330    0.0000 C   0  0  0  0  0  0  0  0  0  0  0  0
   32.3467  -28.7567    0.0000 C   0  0  0  0  0  0  0  0  0  0  0  0
   33.0588  -29.1698    0.0000 C   0  0  0  0  0  0  0  0  0  0  0  0
   33.0570  -27.5242    0.0000 C   0  0  0  0  0  0  0  0  0  0  0  0
   33.7698  -27.9294    0.0000 C   0  0  0  0  0  0  0  0  0  0  0  0
   33.7705  -28.7526    0.0000 C   0  0  0  0  0  0  0  0  0  0  0  0
   34.4832  -29.1638    0.0000 N   0  0  0  0  0  0  0  0  0  0  0  0
   35.1915  -28.7488    0.0000 C   0  0  0  0  0  0  0  0  0  0  0  0
   35.1867  -27.9226    0.0000 N   0  0  0  0  0  0  0  0  0  0  0  0
   34.4776  -27.5192    0.0000 C   0  0  0  0  0  0  0  0  0  0  0  0
   35.9013  -29.1547    0.0000 C   0  0  0  0  0  0  0  0  0  0  0  0
   35.9032  -29.9771    0.0000 C   0  0  0  0  0  0  0  0  0  0  0  0
   36.6158  -30.3829    0.0000 C   0  0  0  0  0  0  0  0  0  0  0  0
   37.3270  -29.9715    0.0000 C   0  0  0  0  0  0  0  0  0  0  0  0
   37.3212  -29.1460    0.0000 C   0  0  0  0  0  0  0  0  0  0  0  0
   36.6080  -28.7398    0.0000 C   0  0  0  0  0  0  0  0  0  0  0  0
   34.4733  -26.6979    0.0000 N   0  0  0  0  0  0  0  0  0  0  0  0
   35.1788  -26.2814    0.0000 C   0  0  0  0  0  0  0  0  0  0  0  0
   35.8882  -26.6938    0.0000 C   0  0  0  0  0  0  0  0  0  0  0  0
   36.5974  -26.2780    0.0000 C   0  0  0  0  0  0  0  0  0  0  0  0
   36.5935  -25.4558    0.0000 C   0  0  0  0  0  0  0  0  0  0  0  0
   35.8746  -25.0512    0.0000 C   0  0  0  0  0  0  0  0  0  0  0  0
   35.1683  -25.4652    0.0000 C   0  0  0  0  0  0  0  0  0  0  0  0
   38.0262  -28.7328    0.0000 O   0  0  0  0  0  0  0  0  0  0  0  0
   38.7365  -29.1369    0.0000 C   0  0  0  0  0  0  0  0  0  0  0  0
   35.8673  -24.2301    0.0000 N   0  0  0  0  0  0  0  0  0  0  0  0
   35.1560  -23.8278    0.0000 O   0  0  0  0  0  0  0  0  0  0  0  0
   36.5714  -23.8153    0.0000 O   0  0  0  0  0  0  0  0  0  0  0  0
  1  2  2  0
  2  3  1  0
  3  6  2  0
  5  4  2  0
  4  1  1  0
  5  6  1  0
  6  7  1  0
  7  8  2  0
  8  9  1  0
  9 10  2  0
 10  5  1  0
 11 12  2  0
 12 13  1  0
 13 14  2  0
 14 15  1  0
 15 16  2  0
 16 11  1  0
  8 11  1  0
 10 17  1  0
 17 18  1  0
 18 19  2  0
 19 20  1  0
 20 21  2  0
 21 22  1  0
 22 23  2  0
 23 18  1  0
 15 24  1  0
 24 25  1  0
 26 27  2  0
 26 28  1  0
 22 26  1  0
M  CHG  2  26   1  28  -1
M  END
>  <Classification>  (566) 
1

>  <pchembl>  (566) 
6.86

>  <InChI_steorem>  (566) 
InChI=1S/C21H16N4O3/c1-28-17-9-4-6-14(12-17)20-23-19-11-3-2-10-18(19)21(24-20)22-15-7-5-8-16(13-15)25(26)27/h2-13H,1H3,(H,22,23,24)

>  <source>  (566) 
ChEMBL26

>  <source_id>  (566) 
26

>  <optional_reference>  (566) 
10.1016/j.ejmech.2017.08.020

>  <optional_origin>  (566) 
None

>  <target>  (566) 
BCRP

$$$$

     RDKit          2D

 28 31  0  0  0  0  0  0  0  0999 V2000
   35.6496  -20.5659    0.0000 C   0  0  0  0  0  0  0  0  0  0  0  0
   35.6484  -21.3896    0.0000 C   0  0  0  0  0  0  0  0  0  0  0  0
   36.3606  -21.8027    0.0000 C   0  0  0  0  0  0  0  0  0  0  0  0
   36.3588  -20.1571    0.0000 C   0  0  0  0  0  0  0  0  0  0  0  0
   37.0716  -20.5623    0.0000 C   0  0  0  0  0  0  0  0  0  0  0  0
   37.0723  -21.3855    0.0000 C   0  0  0  0  0  0  0  0  0  0  0  0
   37.7850  -21.7967    0.0000 N   0  0  0  0  0  0  0  0  0  0  0  0
   38.4933  -21.3817    0.0000 C   0  0  0  0  0  0  0  0  0  0  0  0
   38.4885  -20.5555    0.0000 N   0  0  0  0  0  0  0  0  0  0  0  0
   37.7794  -20.1521    0.0000 C   0  0  0  0  0  0  0  0  0  0  0  0
   39.2031  -21.7876    0.0000 C   0  0  0  0  0  0  0  0  0  0  0  0
   39.2050  -22.6100    0.0000 C   0  0  0  0  0  0  0  0  0  0  0  0
   39.9175  -23.0158    0.0000 C   0  0  0  0  0  0  0  0  0  0  0  0
   40.6288  -22.6044    0.0000 C   0  0  0  0  0  0  0  0  0  0  0  0
   40.6229  -21.7789    0.0000 C   0  0  0  0  0  0  0  0  0  0  0  0
   39.9098  -21.3727    0.0000 C   0  0  0  0  0  0  0  0  0  0  0  0
   37.7751  -19.3308    0.0000 N   0  0  0  0  0  0  0  0  0  0  0  0
   38.4806  -18.9143    0.0000 C   0  0  0  0  0  0  0  0  0  0  0  0
   39.1900  -19.3267    0.0000 C   0  0  0  0  0  0  0  0  0  0  0  0
   39.8992  -18.9109    0.0000 C   0  0  0  0  0  0  0  0  0  0  0  0
   39.8953  -18.0887    0.0000 C   0  0  0  0  0  0  0  0  0  0  0  0
   39.1763  -17.6841    0.0000 C   0  0  0  0  0  0  0  0  0  0  0  0
   38.4701  -18.0981    0.0000 C   0  0  0  0  0  0  0  0  0  0  0  0
   41.3423  -23.0089    0.0000 N   0  0  0  0  0  0  0  0  0  0  0  0
   42.0484  -22.5975    0.0000 O   0  0  0  0  0  0  0  0  0  0  0  0
   41.3455  -23.8261    0.0000 O   0  0  0  0  0  0  0  0  0  0  0  0
   40.6079  -19.3147    0.0000 C   0  0  0  0  0  0  0  0  0  0  0  0
   41.3179  -19.7192    0.0000 N   0  0  0  0  0  0  0  0  0  0  0  0
  1  2  2  0
  2  3  1  0
  3  6  2  0
  5  4  2  0
  4  1  1  0
  5  6  1  0
  6  7  1  0
  7  8  2  0
  8  9  1  0
  9 10  2  0
 10  5  1  0
 11 12  2  0
 12 13  1  0
 13 14  2  0
 14 15  1  0
 15 16  2  0
 16 11  1  0
  8 11  1  0
 10 17  1  0
 17 18  1  0
 18 19  2  0
 19 20  1  0
 20 21  2  0
 21 22  1  0
 22 23  2  0
 23 18  1  0
 24 25  2  0
 24 26  1  0
 14 24  1  0
 27 28  3  0
 20 27  1  0
M  CHG  2  24   1  26  -1
M  END
>  <Classification>  (567) 
1

>  <pchembl>  (567) 
6.47

>  <InChI_steorem>  (567) 
InChI=1S/C21H13N5O2/c22-13-14-4-3-5-16(12-14)23-21-18-6-1-2-7-19(18)24-20(25-21)15-8-10-17(11-9-15)26(27)28/h1-12H,(H,23,24,25)

>  <source>  (567) 
ChEMBL26

>  <source_id>  (567) 
26

>  <optional_reference>  (567) 
10.1016/j.ejmech.2017.08.020

>  <optional_origin>  (567) 
None

>  <target>  (567) 
BCRP

$$$$

     RDKit          2D

 28 31  0  0  0  0  0  0  0  0999 V2000
   39.3641  -27.5410    0.0000 C   0  0  0  0  0  0  0  0  0  0  0  0
   39.3629  -28.3646    0.0000 C   0  0  0  0  0  0  0  0  0  0  0  0
   40.0751  -28.7777    0.0000 C   0  0  0  0  0  0  0  0  0  0  0  0
   40.0733  -27.1321    0.0000 C   0  0  0  0  0  0  0  0  0  0  0  0
   40.7861  -27.5374    0.0000 C   0  0  0  0  0  0  0  0  0  0  0  0
   40.7868  -28.3605    0.0000 C   0  0  0  0  0  0  0  0  0  0  0  0
   41.4995  -28.7717    0.0000 N   0  0  0  0  0  0  0  0  0  0  0  0
   42.2078  -28.3567    0.0000 C   0  0  0  0  0  0  0  0  0  0  0  0
   42.2030  -27.5305    0.0000 N   0  0  0  0  0  0  0  0  0  0  0  0
   41.4939  -27.1271    0.0000 C   0  0  0  0  0  0  0  0  0  0  0  0
   42.9176  -28.7626    0.0000 C   0  0  0  0  0  0  0  0  0  0  0  0
   42.9195  -29.5851    0.0000 C   0  0  0  0  0  0  0  0  0  0  0  0
   43.6320  -29.9908    0.0000 C   0  0  0  0  0  0  0  0  0  0  0  0
   44.3433  -29.5794    0.0000 C   0  0  0  0  0  0  0  0  0  0  0  0
   44.3375  -28.7539    0.0000 C   0  0  0  0  0  0  0  0  0  0  0  0
   43.6243  -28.3477    0.0000 C   0  0  0  0  0  0  0  0  0  0  0  0
   41.4896  -26.3058    0.0000 N   0  0  0  0  0  0  0  0  0  0  0  0
   42.1951  -25.8893    0.0000 C   0  0  0  0  0  0  0  0  0  0  0  0
   42.9045  -26.3017    0.0000 C   0  0  0  0  0  0  0  0  0  0  0  0
   43.6137  -25.8859    0.0000 C   0  0  0  0  0  0  0  0  0  0  0  0
   43.6098  -25.0637    0.0000 C   0  0  0  0  0  0  0  0  0  0  0  0
   42.8908  -24.6591    0.0000 C   0  0  0  0  0  0  0  0  0  0  0  0
   42.1846  -25.0731    0.0000 C   0  0  0  0  0  0  0  0  0  0  0  0
   45.0425  -28.3407    0.0000 O   0  0  0  0  0  0  0  0  0  0  0  0
   45.7528  -28.7448    0.0000 C   0  0  0  0  0  0  0  0  0  0  0  0
   44.3162  -24.6493    0.0000 N   0  0  0  0  0  0  0  0  0  0  0  0
   44.3098  -23.8321    0.0000 O   0  0  0  0  0  0  0  0  0  0  0  0
   45.0271  -25.0523    0.0000 O   0  0  0  0  0  0  0  0  0  0  0  0
  1  2  2  0
  2  3  1  0
  3  6  2  0
  5  4  2  0
  4  1  1  0
  5  6  1  0
  6  7  1  0
  7  8  2  0
  8  9  1  0
  9 10  2  0
 10  5  1  0
 11 12  2  0
 12 13  1  0
 13 14  2  0
 14 15  1  0
 15 16  2  0
 16 11  1  0
  8 11  1  0
 10 17  1  0
 17 18  1  0
 18 19  2  0
 19 20  1  0
 20 21  2  0
 21 22  1  0
 22 23  2  0
 23 18  1  0
 15 24  1  0
 24 25  1  0
 26 27  2  0
 26 28  1  0
 21 26  1  0
M  CHG  2  26   1  28  -1
M  END
>  <Classification>  (568) 
1

>  <pchembl>  (568) 
7.17

>  <InChI_steorem>  (568) 
InChI=1S/C21H16N4O3/c1-28-17-6-4-5-14(13-17)20-23-19-8-3-2-7-18(19)21(24-20)22-15-9-11-16(12-10-15)25(26)27/h2-13H,1H3,(H,22,23,24)

>  <source>  (568) 
ChEMBL26

>  <source_id>  (568) 
26

>  <optional_reference>  (568) 
10.1016/j.ejmech.2017.08.020

>  <optional_origin>  (568) 
None

>  <target>  (568) 
BCRP

$$$$

     RDKit          2D

 28 31  0  0  0  0  0  0  0  0999 V2000
   39.8511   -4.8618    0.0000 C   0  0  0  0  0  0  0  0  0  0  0  0
   39.8500   -5.6855    0.0000 C   0  0  0  0  0  0  0  0  0  0  0  0
   40.5621   -6.0986    0.0000 C   0  0  0  0  0  0  0  0  0  0  0  0
   40.5603   -4.4530    0.0000 C   0  0  0  0  0  0  0  0  0  0  0  0
   41.2731   -4.8582    0.0000 C   0  0  0  0  0  0  0  0  0  0  0  0
   41.2738   -5.6814    0.0000 C   0  0  0  0  0  0  0  0  0  0  0  0
   41.9824   -6.0926    0.0000 N   0  0  0  0  0  0  0  0  0  0  0  0
   42.6948   -5.6776    0.0000 C   0  0  0  0  0  0  0  0  0  0  0  0
   42.6900   -4.8514    0.0000 N   0  0  0  0  0  0  0  0  0  0  0  0
   41.9768   -4.4480    0.0000 C   0  0  0  0  0  0  0  0  0  0  0  0
   41.9725   -3.6267    0.0000 N   0  0  0  0  0  0  0  0  0  0  0  0
   42.6821   -3.2102    0.0000 C   0  0  0  0  0  0  0  0  0  0  0  0
   43.3915   -3.6226    0.0000 C   0  0  0  0  0  0  0  0  0  0  0  0
   44.1007   -3.2068    0.0000 C   0  0  0  0  0  0  0  0  0  0  0  0
   44.0968   -2.3846    0.0000 C   0  0  0  0  0  0  0  0  0  0  0  0
   43.3779   -1.9800    0.0000 C   0  0  0  0  0  0  0  0  0  0  0  0
   42.6716   -2.3939    0.0000 C   0  0  0  0  0  0  0  0  0  0  0  0
   43.4082   -6.0876    0.0000 C   0  0  0  0  0  0  0  0  0  0  0  0
   43.4065   -6.9059    0.0000 C   0  0  0  0  0  0  0  0  0  0  0  0
   44.1191   -7.3117    0.0000 C   0  0  0  0  0  0  0  0  0  0  0  0
   44.8303   -6.9003    0.0000 C   0  0  0  0  0  0  0  0  0  0  0  0
   44.8245   -6.0748    0.0000 C   0  0  0  0  0  0  0  0  0  0  0  0
   44.1113   -5.6686    0.0000 C   0  0  0  0  0  0  0  0  0  0  0  0
   39.1385   -4.4537    0.0000 N   0  0  0  0  0  0  0  0  0  0  0  0
   38.4267   -4.8624    0.0000 O   0  0  0  0  0  0  0  0  0  0  0  0
   39.1383   -3.6323    0.0000 O   0  0  0  0  0  0  0  0  0  0  0  0
   43.3718   -1.1606    0.0000 C   0  0  0  0  0  0  0  0  0  0  0  0
   43.3646   -0.3393    0.0000 N   0  0  0  0  0  0  0  0  0  0  0  0
  1  2  2  0
  2  3  1  0
  3  6  2  0
  5  4  2  0
  4  1  1  0
  5  6  1  0
  6  7  1  0
  7  8  2  0
  8  9  1  0
  9 10  2  0
 10  5  1  0
 10 11  1  0
 11 12  1  0
 12 13  2  0
 13 14  1  0
 14 15  2  0
 15 16  1  0
 16 17  2  0
 17 12  1  0
  8 18  1  0
 18 19  2  0
 19 20  1  0
 20 21  2  0
 21 22  1  0
 22 23  2  0
 23 18  1  0
 24 25  2  0
 24 26  1  0
  1 24  1  0
 27 28  3  0
 16 27  1  0
M  CHG  2  24   1  26  -1
M  END
>  <Classification>  (569) 
1

>  <pchembl>  (569) 
7.32

>  <InChI_steorem>  (569) 
InChI=1S/C21H13N5O2/c22-13-14-5-4-8-16(11-14)23-21-18-12-17(26(27)28)9-10-19(18)24-20(25-21)15-6-2-1-3-7-15/h1-12H,(H,23,24,25)

>  <source>  (569) 
ChEMBL26

>  <source_id>  (569) 
26

>  <optional_reference>  (569) 
10.1021/acs.jmedchem.8b01011

>  <optional_origin>  (569) 
None

>  <target>  (569) 
BCRP

$$$$

     RDKit          2D

 28 31  0  0  0  0  0  0  0  0999 V2000
   41.7331  -20.3926    0.0000 C   0  0  0  0  0  0  0  0  0  0  0  0
   41.7320  -21.2163    0.0000 C   0  0  0  0  0  0  0  0  0  0  0  0
   42.4441  -21.6294    0.0000 C   0  0  0  0  0  0  0  0  0  0  0  0
   42.4424  -19.9837    0.0000 C   0  0  0  0  0  0  0  0  0  0  0  0
   43.1551  -20.3890    0.0000 C   0  0  0  0  0  0  0  0  0  0  0  0
   43.1559  -21.2121    0.0000 C   0  0  0  0  0  0  0  0  0  0  0  0
   43.8685  -21.6233    0.0000 N   0  0  0  0  0  0  0  0  0  0  0  0
   44.5768  -21.2084    0.0000 C   0  0  0  0  0  0  0  0  0  0  0  0
   44.5721  -20.3821    0.0000 N   0  0  0  0  0  0  0  0  0  0  0  0
   43.8629  -19.9788    0.0000 C   0  0  0  0  0  0  0  0  0  0  0  0
   45.2867  -21.6143    0.0000 C   0  0  0  0  0  0  0  0  0  0  0  0
   45.2885  -22.4367    0.0000 C   0  0  0  0  0  0  0  0  0  0  0  0
   46.0011  -22.8425    0.0000 C   0  0  0  0  0  0  0  0  0  0  0  0
   46.7123  -22.4311    0.0000 C   0  0  0  0  0  0  0  0  0  0  0  0
   46.7065  -21.6055    0.0000 C   0  0  0  0  0  0  0  0  0  0  0  0
   45.9933  -21.1993    0.0000 C   0  0  0  0  0  0  0  0  0  0  0  0
   43.8586  -19.1575    0.0000 N   0  0  0  0  0  0  0  0  0  0  0  0
   44.5641  -18.7410    0.0000 C   0  0  0  0  0  0  0  0  0  0  0  0
   45.2736  -19.1533    0.0000 C   0  0  0  0  0  0  0  0  0  0  0  0
   45.9827  -18.7375    0.0000 C   0  0  0  0  0  0  0  0  0  0  0  0
   45.9788  -17.9154    0.0000 C   0  0  0  0  0  0  0  0  0  0  0  0
   45.2599  -17.5107    0.0000 C   0  0  0  0  0  0  0  0  0  0  0  0
   44.5536  -17.9247    0.0000 C   0  0  0  0  0  0  0  0  0  0  0  0
   47.4258  -22.8356    0.0000 N   0  0  0  0  0  0  0  0  0  0  0  0
   48.1319  -22.4242    0.0000 O   0  0  0  0  0  0  0  0  0  0  0  0
   47.4290  -23.6528    0.0000 O   0  0  0  0  0  0  0  0  0  0  0  0
   46.6928  -19.1421    0.0000 O   0  0  0  0  0  0  0  0  0  0  0  0
   46.6974  -19.9593    0.0000 C   0  0  0  0  0  0  0  0  0  0  0  0
  1  2  2  0
  2  3  1  0
  3  6  2  0
  5  4  2  0
  4  1  1  0
  5  6  1  0
  6  7  1  0
  7  8  2  0
  8  9  1  0
  9 10  2  0
 10  5  1  0
 11 12  2  0
 12 13  1  0
 13 14  2  0
 14 15  1  0
 15 16  2  0
 16 11  1  0
  8 11  1  0
 10 17  1  0
 17 18  1  0
 18 19  2  0
 19 20  1  0
 20 21  2  0
 21 22  1  0
 22 23  2  0
 23 18  1  0
 24 25  2  0
 24 26  1  0
 14 24  1  0
 20 27  1  0
 27 28  1  0
M  CHG  2  24   1  26  -1
M  END
>  <Classification>  (570) 
1

>  <pchembl>  (570) 
6.97

>  <InChI_steorem>  (570) 
InChI=1S/C21H16N4O3/c1-28-17-6-4-5-15(13-17)22-21-18-7-2-3-8-19(18)23-20(24-21)14-9-11-16(12-10-14)25(26)27/h2-13H,1H3,(H,22,23,24)

>  <source>  (570) 
ChEMBL26

>  <source_id>  (570) 
26

>  <optional_reference>  (570) 
10.1016/j.ejmech.2017.08.020

>  <optional_origin>  (570) 
None

>  <target>  (570) 
BCRP

$$$$

     RDKit          2D

 28 31  0  0  0  0  0  0  0  0999 V2000
    9.3426  -28.0197    0.0000 C   0  0  0  0  0  0  0  0  0  0  0  0
    9.3415  -28.8434    0.0000 C   0  0  0  0  0  0  0  0  0  0  0  0
   10.0537  -29.2565    0.0000 C   0  0  0  0  0  0  0  0  0  0  0  0
   10.0519  -27.6109    0.0000 C   0  0  0  0  0  0  0  0  0  0  0  0
   10.7646  -28.0161    0.0000 C   0  0  0  0  0  0  0  0  0  0  0  0
   10.7654  -28.8393    0.0000 C   0  0  0  0  0  0  0  0  0  0  0  0
   11.4780  -29.2505    0.0000 N   0  0  0  0  0  0  0  0  0  0  0  0
   12.1863  -28.8355    0.0000 C   0  0  0  0  0  0  0  0  0  0  0  0
   12.1816  -28.0092    0.0000 N   0  0  0  0  0  0  0  0  0  0  0  0
   11.4725  -27.6059    0.0000 C   0  0  0  0  0  0  0  0  0  0  0  0
   12.8962  -29.2414    0.0000 C   0  0  0  0  0  0  0  0  0  0  0  0
   12.8980  -30.0638    0.0000 C   0  0  0  0  0  0  0  0  0  0  0  0
   13.6106  -30.4696    0.0000 C   0  0  0  0  0  0  0  0  0  0  0  0
   14.3218  -30.0582    0.0000 C   0  0  0  0  0  0  0  0  0  0  0  0
   14.3160  -29.2327    0.0000 C   0  0  0  0  0  0  0  0  0  0  0  0
   13.6028  -28.8265    0.0000 C   0  0  0  0  0  0  0  0  0  0  0  0
   11.4681  -26.7846    0.0000 N   0  0  0  0  0  0  0  0  0  0  0  0
   12.1737  -26.3681    0.0000 C   0  0  0  0  0  0  0  0  0  0  0  0
   12.8831  -26.7805    0.0000 C   0  0  0  0  0  0  0  0  0  0  0  0
   13.5922  -26.3647    0.0000 C   0  0  0  0  0  0  0  0  0  0  0  0
   13.5884  -25.5425    0.0000 C   0  0  0  0  0  0  0  0  0  0  0  0
   12.8694  -25.1378    0.0000 C   0  0  0  0  0  0  0  0  0  0  0  0
   12.1631  -25.5518    0.0000 C   0  0  0  0  0  0  0  0  0  0  0  0
   15.0173  -28.8176    0.0000 C   0  0  0  0  0  0  0  0  0  0  0  0
   15.7224  -28.4045    0.0000 N   0  0  0  0  0  0  0  0  0  0  0  0
   14.3023  -26.7692    0.0000 O   0  0  0  0  0  0  0  0  0  0  0  0
   14.2928  -25.1283    0.0000 O   0  0  0  0  0  0  0  0  0  0  0  0
   15.0037  -25.5314    0.0000 C   0  0  0  0  0  0  0  0  0  0  0  0
  1  2  2  0
  2  3  1  0
  3  6  2  0
  5  4  2  0
  4  1  1  0
  5  6  1  0
  6  7  1  0
  7  8  2  0
  8  9  1  0
  9 10  2  0
 10  5  1  0
 11 12  2  0
 12 13  1  0
 13 14  2  0
 14 15  1  0
 15 16  2  0
 16 11  1  0
  8 11  1  0
 10 17  1  0
 17 18  1  0
 18 19  2  0
 19 20  1  0
 20 21  2  0
 21 22  1  0
 22 23  2  0
 23 18  1  0
 24 25  3  0
 15 24  1  0
 20 26  1  0
 21 27  1  0
 27 28  1  0
M  END
>  <Classification>  (571) 
1

>  <pchembl>  (571) 
6.53

>  <InChI_steorem>  (571) 
InChI=1S/C22H16N4O2/c1-28-20-10-9-16(12-19(20)27)24-22-17-7-2-3-8-18(17)25-21(26-22)15-6-4-5-14(11-15)13-23/h2-12,27H,1H3,(H,24,25,26)

>  <source>  (571) 
ChEMBL26

>  <source_id>  (571) 
26

>  <optional_reference>  (571) 
10.1016/j.ejmech.2017.08.020

>  <optional_origin>  (571) 
None

>  <target>  (571) 
BCRP

$$$$

     RDKit          2D

 28 31  0  0  0  0  0  0  0  0999 V2000
    9.9163  -18.5230    0.0000 C   0  0  0  0  0  0  0  0  0  0  0  0
    9.9152  -19.3466    0.0000 C   0  0  0  0  0  0  0  0  0  0  0  0
   10.6273  -19.7597    0.0000 C   0  0  0  0  0  0  0  0  0  0  0  0
   10.6256  -18.1141    0.0000 C   0  0  0  0  0  0  0  0  0  0  0  0
   11.3383  -18.5194    0.0000 C   0  0  0  0  0  0  0  0  0  0  0  0
   11.3391  -19.3425    0.0000 C   0  0  0  0  0  0  0  0  0  0  0  0
   12.0517  -19.7537    0.0000 N   0  0  0  0  0  0  0  0  0  0  0  0
   12.7641  -19.3388    0.0000 C   0  0  0  0  0  0  0  0  0  0  0  0
   12.7594  -18.5125    0.0000 N   0  0  0  0  0  0  0  0  0  0  0  0
   12.0461  -18.1091    0.0000 C   0  0  0  0  0  0  0  0  0  0  0  0
   12.0418  -17.2878    0.0000 N   0  0  0  0  0  0  0  0  0  0  0  0
   12.7515  -16.8714    0.0000 C   0  0  0  0  0  0  0  0  0  0  0  0
   13.4568  -17.2837    0.0000 C   0  0  0  0  0  0  0  0  0  0  0  0
   14.1659  -16.8679    0.0000 C   0  0  0  0  0  0  0  0  0  0  0  0
   14.1620  -16.0457    0.0000 C   0  0  0  0  0  0  0  0  0  0  0  0
   13.4431  -15.6411    0.0000 C   0  0  0  0  0  0  0  0  0  0  0  0
   12.7409  -16.0551    0.0000 C   0  0  0  0  0  0  0  0  0  0  0  0
   13.4734  -19.7487    0.0000 C   0  0  0  0  0  0  0  0  0  0  0  0
   13.4717  -20.5671    0.0000 C   0  0  0  0  0  0  0  0  0  0  0  0
   14.1843  -20.9728    0.0000 N   0  0  0  0  0  0  0  0  0  0  0  0
   14.8955  -20.5614    0.0000 C   0  0  0  0  0  0  0  0  0  0  0  0
   14.8897  -19.7359    0.0000 C   0  0  0  0  0  0  0  0  0  0  0  0
   14.1765  -19.3297    0.0000 C   0  0  0  0  0  0  0  0  0  0  0  0
    9.2037  -18.1148    0.0000 N   0  0  0  0  0  0  0  0  0  0  0  0
    8.4919  -18.5235    0.0000 O   0  0  0  0  0  0  0  0  0  0  0  0
    9.2035  -17.2935    0.0000 O   0  0  0  0  0  0  0  0  0  0  0  0
   14.8711  -15.6325    0.0000 O   0  0  0  0  0  0  0  0  0  0  0  0
   15.5857  -16.0363    0.0000 C   0  0  0  0  0  0  0  0  0  0  0  0
  1  2  2  0
  2  3  1  0
  3  6  2  0
  5  4  2  0
  4  1  1  0
  5  6  1  0
  6  7  1  0
  7  8  2  0
  8  9  1  0
  9 10  2  0
 10  5  1  0
 10 11  1  0
 11 12  1  0
 12 13  2  0
 13 14  1  0
 14 15  2  0
 15 16  1  0
 16 17  2  0
 17 12  1  0
  8 18  1  0
 18 19  2  0
 19 20  1  0
 20 21  2  0
 21 22  1  0
 22 23  2  0
 23 18  1  0
 24 25  2  0
 24 26  1  0
  1 24  1  0
 15 27  1  0
 27 28  1  0
M  CHG  2  24   1  26  -1
M  END
>  <Classification>  (572) 
1

>  <pchembl>  (572) 
7.24

>  <InChI_steorem>  (572) 
InChI=1S/C20H15N5O3/c1-28-16-7-4-14(5-8-16)22-20-17-11-15(25(26)27)6-9-18(17)23-19(24-20)13-3-2-10-21-12-13/h2-12H,1H3,(H,22,23,24)

>  <source>  (572) 
ChEMBL26

>  <source_id>  (572) 
26

>  <optional_reference>  (572) 
10.1021/acs.jmedchem.8b01011

>  <optional_origin>  (572) 
None

>  <target>  (572) 
BCRP

$$$$

     RDKit          2D

 29 32  0  0  0  0  0  0  0  0999 V2000
   12.7641   -4.2469    0.0000 C   0  0  0  0  0  0  0  0  0  0  0  0
   12.7630   -5.0705    0.0000 C   0  0  0  0  0  0  0  0  0  0  0  0
   13.4751   -5.4836    0.0000 C   0  0  0  0  0  0  0  0  0  0  0  0
   13.4733   -3.8380    0.0000 C   0  0  0  0  0  0  0  0  0  0  0  0
   14.1861   -4.2433    0.0000 C   0  0  0  0  0  0  0  0  0  0  0  0
   14.1868   -5.0664    0.0000 C   0  0  0  0  0  0  0  0  0  0  0  0
   14.8995   -5.4776    0.0000 N   0  0  0  0  0  0  0  0  0  0  0  0
   15.6078   -5.0627    0.0000 C   0  0  0  0  0  0  0  0  0  0  0  0
   15.6030   -4.2364    0.0000 N   0  0  0  0  0  0  0  0  0  0  0  0
   14.8939   -3.8330    0.0000 C   0  0  0  0  0  0  0  0  0  0  0  0
   16.3176   -5.4686    0.0000 C   0  0  0  0  0  0  0  0  0  0  0  0
   16.3195   -6.2910    0.0000 C   0  0  0  0  0  0  0  0  0  0  0  0
   17.0321   -6.6967    0.0000 C   0  0  0  0  0  0  0  0  0  0  0  0
   17.7433   -6.2853    0.0000 C   0  0  0  0  0  0  0  0  0  0  0  0
   17.7375   -5.4598    0.0000 C   0  0  0  0  0  0  0  0  0  0  0  0
   17.0243   -5.0536    0.0000 C   0  0  0  0  0  0  0  0  0  0  0  0
   14.8896   -3.0117    0.0000 N   0  0  0  0  0  0  0  0  0  0  0  0
   15.5951   -2.5953    0.0000 C   0  0  0  0  0  0  0  0  0  0  0  0
   16.3045   -3.0076    0.0000 C   0  0  0  0  0  0  0  0  0  0  0  0
   17.0137   -2.5918    0.0000 C   0  0  0  0  0  0  0  0  0  0  0  0
   17.0098   -1.7696    0.0000 C   0  0  0  0  0  0  0  0  0  0  0  0
   16.2909   -1.3650    0.0000 C   0  0  0  0  0  0  0  0  0  0  0  0
   15.5846   -1.7790    0.0000 C   0  0  0  0  0  0  0  0  0  0  0  0
   17.0352   -7.5172    0.0000 N   0  0  0  0  0  0  0  0  0  0  0  0
   17.7443   -7.9234    0.0000 O   0  0  0  0  0  0  0  0  0  0  0  0
   16.3289   -7.9282    0.0000 O   0  0  0  0  0  0  0  0  0  0  0  0
   16.2814   -0.5479    0.0000 N   0  0  0  0  0  0  0  0  0  0  0  0
   15.5708   -0.1443    0.0000 O   0  0  0  0  0  0  0  0  0  0  0  0
   16.9890   -0.1295    0.0000 O   0  0  0  0  0  0  0  0  0  0  0  0
  1  2  2  0
  2  3  1  0
  3  6  2  0
  5  4  2  0
  4  1  1  0
  5  6  1  0
  6  7  1  0
  7  8  2  0
  8  9  1  0
  9 10  2  0
 10  5  1  0
 11 12  2  0
 12 13  1  0
 13 14  2  0
 14 15  1  0
 15 16  2  0
 16 11  1  0
  8 11  1  0
 10 17  1  0
 17 18  1  0
 18 19  2  0
 19 20  1  0
 20 21  2  0
 21 22  1  0
 22 23  2  0
 23 18  1  0
 24 25  2  0
 24 26  1  0
 13 24  1  0
 27 28  2  0
 27 29  1  0
 22 27  1  0
M  CHG  4  24   1  26  -1  27   1  29  -1
M  END
>  <Classification>  (573) 
1

>  <pchembl>  (573) 
6.63

>  <InChI_steorem>  (573) 
InChI=1S/C20H13N5O4/c26-24(27)15-7-3-5-13(11-15)19-22-18-10-2-1-9-17(18)20(23-19)21-14-6-4-8-16(12-14)25(28)29/h1-12H,(H,21,22,23)

>  <source>  (573) 
ChEMBL26

>  <source_id>  (573) 
26

>  <optional_reference>  (573) 
10.1016/j.ejmech.2017.08.020

>  <optional_origin>  (573) 
None

>  <target>  (573) 
BCRP

$$$$

     RDKit          2D

 29 32  0  0  0  0  0  0  0  0999 V2000
    1.3936  -11.7543    0.0000 C   0  0  0  0  0  0  0  0  0  0  0  0
    1.3924  -12.5780    0.0000 C   0  0  0  0  0  0  0  0  0  0  0  0
    2.1046  -12.9911    0.0000 C   0  0  0  0  0  0  0  0  0  0  0  0
    2.1028  -11.3454    0.0000 C   0  0  0  0  0  0  0  0  0  0  0  0
    2.8156  -11.7507    0.0000 C   0  0  0  0  0  0  0  0  0  0  0  0
    2.8163  -12.5739    0.0000 C   0  0  0  0  0  0  0  0  0  0  0  0
    3.5290  -12.9850    0.0000 N   0  0  0  0  0  0  0  0  0  0  0  0
    4.2373  -12.5701    0.0000 C   0  0  0  0  0  0  0  0  0  0  0  0
    4.2325  -11.7438    0.0000 N   0  0  0  0  0  0  0  0  0  0  0  0
    3.5234  -11.3405    0.0000 C   0  0  0  0  0  0  0  0  0  0  0  0
    4.9471  -12.9760    0.0000 C   0  0  0  0  0  0  0  0  0  0  0  0
    4.9490  -13.7984    0.0000 C   0  0  0  0  0  0  0  0  0  0  0  0
    5.6615  -14.2042    0.0000 C   0  0  0  0  0  0  0  0  0  0  0  0
    6.3728  -13.7928    0.0000 C   0  0  0  0  0  0  0  0  0  0  0  0
    6.3669  -12.9672    0.0000 C   0  0  0  0  0  0  0  0  0  0  0  0
    5.6538  -12.5611    0.0000 C   0  0  0  0  0  0  0  0  0  0  0  0
    3.5191  -10.5192    0.0000 N   0  0  0  0  0  0  0  0  0  0  0  0
    4.2246  -10.1027    0.0000 C   0  0  0  0  0  0  0  0  0  0  0  0
    4.9340  -10.5150    0.0000 C   0  0  0  0  0  0  0  0  0  0  0  0
    5.6432  -10.0993    0.0000 C   0  0  0  0  0  0  0  0  0  0  0  0
    5.6393   -9.2771    0.0000 C   0  0  0  0  0  0  0  0  0  0  0  0
    4.9203   -8.8724    0.0000 C   0  0  0  0  0  0  0  0  0  0  0  0
    4.2141   -9.2864    0.0000 C   0  0  0  0  0  0  0  0  0  0  0  0
    5.6647  -15.0246    0.0000 N   0  0  0  0  0  0  0  0  0  0  0  0
    6.3738  -15.4308    0.0000 O   0  0  0  0  0  0  0  0  0  0  0  0
    4.9584  -15.4356    0.0000 O   0  0  0  0  0  0  0  0  0  0  0  0
    4.9132   -8.0553    0.0000 O   0  0  0  0  0  0  0  0  0  0  0  0
    5.6173   -7.6405    0.0000 C   0  0  0  0  0  0  0  0  0  0  0  0
    6.3438   -8.8629    0.0000 Br  0  0  0  0  0  0  0  0  0  0  0  0
  1  2  2  0
  2  3  1  0
  3  6  2  0
  5  4  2  0
  4  1  1  0
  5  6  1  0
  6  7  1  0
  7  8  2  0
  8  9  1  0
  9 10  2  0
 10  5  1  0
 11 12  2  0
 12 13  1  0
 13 14  2  0
 14 15  1  0
 15 16  2  0
 16 11  1  0
  8 11  1  0
 10 17  1  0
 17 18  1  0
 18 19  2  0
 19 20  1  0
 20 21  2  0
 21 22  1  0
 22 23  2  0
 23 18  1  0
 24 25  2  0
 24 26  1  0
 13 24  1  0
 22 27  1  0
 27 28  1  0
 21 29  1  0
M  CHG  2  24   1  26  -1
M  END
>  <Classification>  (574) 
1

>  <pchembl>  (574) 
6.1

>  <InChI_steorem>  (574) 
InChI=1S/C21H15BrN4O3/c1-29-19-12-14(9-10-17(19)22)23-21-16-7-2-3-8-18(16)24-20(25-21)13-5-4-6-15(11-13)26(27)28/h2-12H,1H3,(H,23,24,25)

>  <source>  (574) 
ChEMBL26

>  <source_id>  (574) 
26

>  <optional_reference>  (574) 
10.1016/j.ejmech.2017.08.020

>  <optional_origin>  (574) 
None

>  <target>  (574) 
BCRP

$$$$

     RDKit          2D

 29 32  0  0  0  0  0  0  0  0999 V2000
   16.5281  -27.7762    0.0000 C   0  0  0  0  0  0  0  0  0  0  0  0
   16.5270  -28.5999    0.0000 C   0  0  0  0  0  0  0  0  0  0  0  0
   17.2392  -29.0130    0.0000 C   0  0  0  0  0  0  0  0  0  0  0  0
   17.2374  -27.3673    0.0000 C   0  0  0  0  0  0  0  0  0  0  0  0
   17.9501  -27.7726    0.0000 C   0  0  0  0  0  0  0  0  0  0  0  0
   17.9509  -28.5958    0.0000 C   0  0  0  0  0  0  0  0  0  0  0  0
   18.6635  -29.0069    0.0000 N   0  0  0  0  0  0  0  0  0  0  0  0
   19.3718  -28.5920    0.0000 C   0  0  0  0  0  0  0  0  0  0  0  0
   19.3671  -27.7657    0.0000 N   0  0  0  0  0  0  0  0  0  0  0  0
   18.6580  -27.3624    0.0000 C   0  0  0  0  0  0  0  0  0  0  0  0
   20.0817  -28.9979    0.0000 C   0  0  0  0  0  0  0  0  0  0  0  0
   20.0835  -29.8203    0.0000 C   0  0  0  0  0  0  0  0  0  0  0  0
   20.7961  -30.2261    0.0000 C   0  0  0  0  0  0  0  0  0  0  0  0
   21.5073  -29.8147    0.0000 C   0  0  0  0  0  0  0  0  0  0  0  0
   21.5015  -28.9891    0.0000 C   0  0  0  0  0  0  0  0  0  0  0  0
   20.7883  -28.5830    0.0000 C   0  0  0  0  0  0  0  0  0  0  0  0
   18.6536  -26.5411    0.0000 N   0  0  0  0  0  0  0  0  0  0  0  0
   19.3592  -26.1246    0.0000 C   0  0  0  0  0  0  0  0  0  0  0  0
   20.0686  -26.5369    0.0000 C   0  0  0  0  0  0  0  0  0  0  0  0
   20.7778  -26.1212    0.0000 C   0  0  0  0  0  0  0  0  0  0  0  0
   20.7739  -25.2990    0.0000 C   0  0  0  0  0  0  0  0  0  0  0  0
   20.0549  -24.8943    0.0000 C   0  0  0  0  0  0  0  0  0  0  0  0
   19.3486  -25.3083    0.0000 C   0  0  0  0  0  0  0  0  0  0  0  0
   22.2028  -28.5741    0.0000 C   0  0  0  0  0  0  0  0  0  0  0  0
   22.9079  -28.1610    0.0000 N   0  0  0  0  0  0  0  0  0  0  0  0
   21.4878  -26.5257    0.0000 N   0  0  0  0  0  0  0  0  0  0  0  0
   22.1931  -26.1131    0.0000 C   0  0  0  0  0  0  0  0  0  0  0  0
   22.9032  -26.5176    0.0000 C   0  0  0  0  0  0  0  0  0  0  0  0
   22.1885  -25.2959    0.0000 O   0  0  0  0  0  0  0  0  0  0  0  0
  1  2  2  0
  2  3  1  0
  3  6  2  0
  5  4  2  0
  4  1  1  0
  5  6  1  0
  6  7  1  0
  7  8  2  0
  8  9  1  0
  9 10  2  0
 10  5  1  0
 11 12  2  0
 12 13  1  0
 13 14  2  0
 14 15  1  0
 15 16  2  0
 16 11  1  0
  8 11  1  0
 10 17  1  0
 17 18  1  0
 18 19  2  0
 19 20  1  0
 20 21  2  0
 21 22  1  0
 22 23  2  0
 23 18  1  0
 24 25  3  0
 15 24  1  0
 20 26  1  0
 26 27  1  0
 27 28  1  0
 27 29  2  0
M  END
>  <Classification>  (575) 
1

>  <pchembl>  (575) 
6.65

>  <InChI_steorem>  (575) 
InChI=1S/C23H17N5O/c1-15(29)25-18-8-5-9-19(13-18)26-23-20-10-2-3-11-21(20)27-22(28-23)17-7-4-6-16(12-17)14-24/h2-13H,1H3,(H,25,29)(H,26,27,28)

>  <source>  (575) 
ChEMBL26

>  <source_id>  (575) 
26

>  <optional_reference>  (575) 
10.1016/j.ejmech.2017.08.020

>  <optional_origin>  (575) 
None

>  <target>  (575) 
BCRP

$$$$

     RDKit          2D

 29 32  0  0  0  0  0  0  0  0999 V2000
   20.2220  -11.1022    0.0000 C   0  0  0  0  0  0  0  0  0  0  0  0
   20.2209  -11.9259    0.0000 C   0  0  0  0  0  0  0  0  0  0  0  0
   20.9330  -12.3390    0.0000 C   0  0  0  0  0  0  0  0  0  0  0  0
   20.9312  -10.6933    0.0000 C   0  0  0  0  0  0  0  0  0  0  0  0
   21.6440  -11.0986    0.0000 C   0  0  0  0  0  0  0  0  0  0  0  0
   21.6447  -11.9217    0.0000 C   0  0  0  0  0  0  0  0  0  0  0  0
   22.3574  -12.3329    0.0000 N   0  0  0  0  0  0  0  0  0  0  0  0
   23.0657  -11.9180    0.0000 C   0  0  0  0  0  0  0  0  0  0  0  0
   23.0609  -11.0917    0.0000 N   0  0  0  0  0  0  0  0  0  0  0  0
   22.3518  -10.6884    0.0000 C   0  0  0  0  0  0  0  0  0  0  0  0
   23.7755  -12.3239    0.0000 C   0  0  0  0  0  0  0  0  0  0  0  0
   23.7774  -13.1463    0.0000 C   0  0  0  0  0  0  0  0  0  0  0  0
   24.4900  -13.5521    0.0000 C   0  0  0  0  0  0  0  0  0  0  0  0
   25.2012  -13.1407    0.0000 C   0  0  0  0  0  0  0  0  0  0  0  0
   25.1954  -12.3151    0.0000 C   0  0  0  0  0  0  0  0  0  0  0  0
   24.4822  -11.9090    0.0000 C   0  0  0  0  0  0  0  0  0  0  0  0
   22.3475   -9.8671    0.0000 N   0  0  0  0  0  0  0  0  0  0  0  0
   23.0530   -9.4506    0.0000 C   0  0  0  0  0  0  0  0  0  0  0  0
   23.7624   -9.8629    0.0000 C   0  0  0  0  0  0  0  0  0  0  0  0
   24.4716   -9.4472    0.0000 C   0  0  0  0  0  0  0  0  0  0  0  0
   24.4677   -8.6250    0.0000 C   0  0  0  0  0  0  0  0  0  0  0  0
   23.7488   -8.2203    0.0000 C   0  0  0  0  0  0  0  0  0  0  0  0
   23.0425   -8.6343    0.0000 C   0  0  0  0  0  0  0  0  0  0  0  0
   25.9105  -13.5465    0.0000 O   0  0  0  0  0  0  0  0  0  0  0  0
   25.9137  -14.3637    0.0000 C   0  0  0  0  0  0  0  0  0  0  0  0
   25.1816   -9.8517    0.0000 O   0  0  0  0  0  0  0  0  0  0  0  0
   25.1722   -8.2108    0.0000 O   0  0  0  0  0  0  0  0  0  0  0  0
   25.8831   -8.6139    0.0000 C   0  0  0  0  0  0  0  0  0  0  0  0
   25.8870   -9.4391    0.0000 C   0  0  0  0  0  0  0  0  0  0  0  0
  1  2  2  0
  2  3  1  0
  3  6  2  0
  5  4  2  0
  4  1  1  0
  5  6  1  0
  6  7  1  0
  7  8  2  0
  8  9  1  0
  9 10  2  0
 10  5  1  0
 11 12  2  0
 12 13  1  0
 13 14  2  0
 14 15  1  0
 15 16  2  0
 16 11  1  0
  8 11  1  0
 10 17  1  0
 17 18  1  0
 18 19  2  0
 19 20  1  0
 20 21  2  0
 21 22  1  0
 22 23  2  0
 23 18  1  0
 14 24  1  0
 24 25  1  0
 20 26  1  0
 21 27  1  0
 27 28  1  0
 26 29  1  0
M  END
>  <Classification>  (576) 
1

>  <pchembl>  (576) 
6.38

>  <InChI_steorem>  (576) 
InChI=1S/C23H21N3O3/c1-27-17-11-8-15(9-12-17)22-25-19-7-5-4-6-18(19)23(26-22)24-16-10-13-20(28-2)21(14-16)29-3/h4-14H,1-3H3,(H,24,25,26)

>  <source>  (576) 
ChEMBL26

>  <source_id>  (576) 
26

>  <optional_reference>  (576) 
10.1016/j.ejmech.2017.08.020

>  <optional_origin>  (576) 
None

>  <target>  (576) 
BCRP

$$$$

     RDKit          2D

 29 32  0  0  0  0  0  0  0  0999 V2000
   27.2713  -12.6788    0.0000 C   0  0  0  0  0  0  0  0  0  0  0  0
   27.2702  -13.5025    0.0000 C   0  0  0  0  0  0  0  0  0  0  0  0
   27.9823  -13.9114    0.0000 C   0  0  0  0  0  0  0  0  0  0  0  0
   27.9805  -12.2658    0.0000 C   0  0  0  0  0  0  0  0  0  0  0  0
   28.6933  -12.6752    0.0000 C   0  0  0  0  0  0  0  0  0  0  0  0
   28.6941  -13.4984    0.0000 C   0  0  0  0  0  0  0  0  0  0  0  0
   29.4026  -13.9054    0.0000 N   0  0  0  0  0  0  0  0  0  0  0  0
   30.1150  -13.4946    0.0000 C   0  0  0  0  0  0  0  0  0  0  0  0
   30.1102  -12.6683    0.0000 N   0  0  0  0  0  0  0  0  0  0  0  0
   29.3970  -12.2608    0.0000 C   0  0  0  0  0  0  0  0  0  0  0  0
   29.3927  -11.4395    0.0000 N   0  0  0  0  0  0  0  0  0  0  0  0
   30.1023  -11.0272    0.0000 C   0  0  0  0  0  0  0  0  0  0  0  0
   30.8118  -11.4354    0.0000 C   0  0  0  0  0  0  0  0  0  0  0  0
   31.5209  -11.0238    0.0000 C   0  0  0  0  0  0  0  0  0  0  0  0
   31.5170  -10.2016    0.0000 C   0  0  0  0  0  0  0  0  0  0  0  0
   30.7981   -9.7928    0.0000 C   0  0  0  0  0  0  0  0  0  0  0  0
   30.0918  -10.2109    0.0000 C   0  0  0  0  0  0  0  0  0  0  0  0
   30.8284  -13.9004    0.0000 C   0  0  0  0  0  0  0  0  0  0  0  0
   30.8267  -14.7188    0.0000 C   0  0  0  0  0  0  0  0  0  0  0  0
   31.5393  -15.1287    0.0000 C   0  0  0  0  0  0  0  0  0  0  0  0
   32.2505  -14.7131    0.0000 C   0  0  0  0  0  0  0  0  0  0  0  0
   32.2447  -13.8876    0.0000 C   0  0  0  0  0  0  0  0  0  0  0  0
   31.5315  -13.4856    0.0000 C   0  0  0  0  0  0  0  0  0  0  0  0
   26.5594  -12.2663    0.0000 N   0  0  0  0  0  0  0  0  0  0  0  0
   32.9535  -13.4738    0.0000 C   0  0  0  0  0  0  0  0  0  0  0  0
   33.6683  -13.8771    0.0000 F   0  0  0  0  0  0  0  0  0  0  0  0
   32.9474  -12.6525    0.0000 F   0  0  0  0  0  0  0  0  0  0  0  0
   33.6617  -13.0544    0.0000 F   0  0  0  0  0  0  0  0  0  0  0  0
   30.7908   -8.9715    0.0000 O   0  0  0  0  0  0  0  0  0  0  0  0
  1  2  2  0
  2  3  1  0
  3  6  2  0
  5  4  2  0
  4  1  1  0
  5  6  1  0
  6  7  1  0
  7  8  2  0
  8  9  1  0
  9 10  2  0
 10  5  1  0
 10 11  1  0
 11 12  1  0
 12 13  2  0
 13 14  1  0
 14 15  2  0
 15 16  1  0
 16 17  2  0
 17 12  1  0
  8 18  1  0
 18 19  2  0
 19 20  1  0
 20 21  2  0
 21 22  1  0
 22 23  2  0
 23 18  1  0
  1 24  1  0
 22 25  1  0
 25 26  1  0
 25 27  1  0
 25 28  1  0
 16 29  1  0
M  END
>  <Classification>  (577) 
1

>  <pchembl>  (577) 
6.1

>  <InChI_steorem>  (577) 
InChI=1S/C21H15F3N4O/c22-21(23,24)13-4-1-3-12(9-13)19-27-18-8-7-14(25)10-17(18)20(28-19)26-15-5-2-6-16(29)11-15/h1-11,29H,25H2,(H,26,27,28)

>  <source>  (577) 
ChEMBL26

>  <source_id>  (577) 
26

>  <optional_reference>  (577) 
10.1021/acs.jmedchem.8b01011

>  <optional_origin>  (577) 
None

>  <target>  (577) 
BCRP

$$$$

     RDKit          2D

 29 32  0  0  0  0  0  0  0  0999 V2000
   28.7241  -20.7847    0.0000 C   0  0  0  0  0  0  0  0  0  0  0  0
   28.7229  -21.6083    0.0000 C   0  0  0  0  0  0  0  0  0  0  0  0
   29.4351  -22.0214    0.0000 C   0  0  0  0  0  0  0  0  0  0  0  0
   29.4333  -20.3758    0.0000 C   0  0  0  0  0  0  0  0  0  0  0  0
   30.1461  -20.7811    0.0000 C   0  0  0  0  0  0  0  0  0  0  0  0
   30.1468  -21.6042    0.0000 C   0  0  0  0  0  0  0  0  0  0  0  0
   30.8595  -22.0154    0.0000 N   0  0  0  0  0  0  0  0  0  0  0  0
   31.5678  -21.6005    0.0000 C   0  0  0  0  0  0  0  0  0  0  0  0
   31.5630  -20.7742    0.0000 N   0  0  0  0  0  0  0  0  0  0  0  0
   30.8539  -20.3709    0.0000 C   0  0  0  0  0  0  0  0  0  0  0  0
   32.2776  -22.0064    0.0000 C   0  0  0  0  0  0  0  0  0  0  0  0
   32.2795  -22.8288    0.0000 C   0  0  0  0  0  0  0  0  0  0  0  0
   32.9921  -23.2346    0.0000 C   0  0  0  0  0  0  0  0  0  0  0  0
   33.7033  -22.8232    0.0000 C   0  0  0  0  0  0  0  0  0  0  0  0
   33.6975  -21.9976    0.0000 C   0  0  0  0  0  0  0  0  0  0  0  0
   32.9843  -21.5914    0.0000 C   0  0  0  0  0  0  0  0  0  0  0  0
   30.8496  -19.5495    0.0000 N   0  0  0  0  0  0  0  0  0  0  0  0
   31.5551  -19.1331    0.0000 C   0  0  0  0  0  0  0  0  0  0  0  0
   32.2645  -19.5454    0.0000 C   0  0  0  0  0  0  0  0  0  0  0  0
   32.9737  -19.1296    0.0000 C   0  0  0  0  0  0  0  0  0  0  0  0
   32.9698  -18.3075    0.0000 C   0  0  0  0  0  0  0  0  0  0  0  0
   32.2508  -17.9028    0.0000 C   0  0  0  0  0  0  0  0  0  0  0  0
   31.5446  -18.3168    0.0000 C   0  0  0  0  0  0  0  0  0  0  0  0
   34.4168  -23.2277    0.0000 N   0  0  0  0  0  0  0  0  0  0  0  0
   35.1229  -22.8163    0.0000 O   0  0  0  0  0  0  0  0  0  0  0  0
   34.4200  -24.0448    0.0000 O   0  0  0  0  0  0  0  0  0  0  0  0
   33.6851  -19.5334    0.0000 N   0  0  0  0  0  0  0  0  0  0  0  0
   34.3905  -19.1208    0.0000 O   0  0  0  0  0  0  0  0  0  0  0  0
   33.6898  -20.3506    0.0000 O   0  0  0  0  0  0  0  0  0  0  0  0
  1  2  2  0
  2  3  1  0
  3  6  2  0
  5  4  2  0
  4  1  1  0
  5  6  1  0
  6  7  1  0
  7  8  2  0
  8  9  1  0
  9 10  2  0
 10  5  1  0
 11 12  2  0
 12 13  1  0
 13 14  2  0
 14 15  1  0
 15 16  2  0
 16 11  1  0
  8 11  1  0
 10 17  1  0
 17 18  1  0
 18 19  2  0
 19 20  1  0
 20 21  2  0
 21 22  1  0
 22 23  2  0
 23 18  1  0
 24 25  2  0
 24 26  1  0
 14 24  1  0
 27 28  2  0
 27 29  1  0
 20 27  1  0
M  CHG  4  24   1  26  -1  27   1  29  -1
M  END
>  <Classification>  (578) 
1

>  <pchembl>  (578) 
6.78

>  <InChI_steorem>  (578) 
InChI=1S/C20H13N5O4/c26-24(27)15-10-8-13(9-11-15)19-22-18-7-2-1-6-17(18)20(23-19)21-14-4-3-5-16(12-14)25(28)29/h1-12H,(H,21,22,23)

>  <source>  (578) 
ChEMBL26

>  <source_id>  (578) 
26

>  <optional_reference>  (578) 
10.1016/j.ejmech.2017.08.020

>  <optional_origin>  (578) 
None

>  <target>  (578) 
BCRP

$$$$

     RDKit          2D

 29 32  0  0  0  0  0  0  0  0999 V2000
   30.8991   -5.5676    0.0000 C   0  0  0  0  0  0  0  0  0  0  0  0
   30.8980   -6.3871    0.0000 C   0  0  0  0  0  0  0  0  0  0  0  0
   31.6060   -6.7961    0.0000 C   0  0  0  0  0  0  0  0  0  0  0  0
   31.6043   -5.1587    0.0000 C   0  0  0  0  0  0  0  0  0  0  0  0
   32.3129   -5.5640    0.0000 C   0  0  0  0  0  0  0  0  0  0  0  0
   32.3136   -6.3830    0.0000 C   0  0  0  0  0  0  0  0  0  0  0  0
   33.0222   -6.7901    0.0000 N   0  0  0  0  0  0  0  0  0  0  0  0
   33.7304   -6.3793    0.0000 C   0  0  0  0  0  0  0  0  0  0  0  0
   33.7257   -5.5571    0.0000 N   0  0  0  0  0  0  0  0  0  0  0  0
   33.0166   -5.1538    0.0000 C   0  0  0  0  0  0  0  0  0  0  0  0
   33.0123   -4.3366    0.0000 N   0  0  0  0  0  0  0  0  0  0  0  0
   33.7178   -3.9242    0.0000 C   0  0  0  0  0  0  0  0  0  0  0  0
   34.4231   -4.3325    0.0000 C   0  0  0  0  0  0  0  0  0  0  0  0
   35.1281   -3.9208    0.0000 C   0  0  0  0  0  0  0  0  0  0  0  0
   35.1242   -3.1027    0.0000 C   0  0  0  0  0  0  0  0  0  0  0  0
   34.4094   -2.6981    0.0000 C   0  0  0  0  0  0  0  0  0  0  0  0
   33.7073   -3.1121    0.0000 C   0  0  0  0  0  0  0  0  0  0  0  0
   34.4397   -6.7851    0.0000 C   0  0  0  0  0  0  0  0  0  0  0  0
   34.4380   -7.5993    0.0000 C   0  0  0  0  0  0  0  0  0  0  0  0
   35.1465   -8.0051    0.0000 C   0  0  0  0  0  0  0  0  0  0  0  0
   35.8536   -7.5937    0.0000 C   0  0  0  0  0  0  0  0  0  0  0  0
   35.8477   -6.7723    0.0000 C   0  0  0  0  0  0  0  0  0  0  0  0
   35.1387   -6.3702    0.0000 C   0  0  0  0  0  0  0  0  0  0  0  0
   30.1906   -5.1594    0.0000 N   0  0  0  0  0  0  0  0  0  0  0  0
   29.4830   -5.5682    0.0000 O   0  0  0  0  0  0  0  0  0  0  0  0
   30.1904   -4.3422    0.0000 O   0  0  0  0  0  0  0  0  0  0  0  0
   35.1492   -8.8223    0.0000 O   0  0  0  0  0  0  0  0  0  0  0  0
   34.4429   -9.2333    0.0000 C   0  0  0  0  0  0  0  0  0  0  0  0
   35.8378   -4.3260    0.0000 F   0  0  0  0  0  0  0  0  0  0  0  0
  1  2  2  0
  2  3  1  0
  3  6  2  0
  5  4  2  0
  4  1  1  0
  5  6  1  0
  6  7  1  0
  7  8  2  0
  8  9  1  0
  9 10  2  0
 10  5  1  0
 10 11  1  0
 11 12  1  0
 12 13  2  0
 13 14  1  0
 14 15  2  0
 15 16  1  0
 16 17  2  0
 17 12  1  0
  8 18  1  0
 18 19  2  0
 19 20  1  0
 20 21  2  0
 21 22  1  0
 22 23  2  0
 23 18  1  0
 24 25  2  0
 24 26  1  0
  1 24  1  0
 20 27  1  0
 27 28  1  0
 14 29  1  0
M  CHG  2  24   1  26  -1
M  END
>  <Classification>  (579) 
1

>  <pchembl>  (579) 
7.63

>  <InChI_steorem>  (579) 
InChI=1S/C21H15FN4O3/c1-29-17-7-2-4-13(10-17)20-24-19-9-8-16(26(27)28)12-18(19)21(25-20)23-15-6-3-5-14(22)11-15/h2-12H,1H3,(H,23,24,25)

>  <source>  (579) 
ChEMBL26

>  <source_id>  (579) 
26

>  <optional_reference>  (579) 
10.1021/acs.jmedchem.8b01011

>  <optional_origin>  (579) 
None

>  <target>  (579) 
BCRP

$$$$

     RDKit          2D

 29 32  0  0  0  0  0  0  0  0999 V2000
   33.5612  -18.4115    0.0000 C   0  0  0  0  0  0  0  0  0  0  0  0
   33.5601  -19.2352    0.0000 C   0  0  0  0  0  0  0  0  0  0  0  0
   34.2722  -19.6483    0.0000 C   0  0  0  0  0  0  0  0  0  0  0  0
   34.2704  -18.0027    0.0000 C   0  0  0  0  0  0  0  0  0  0  0  0
   34.9832  -18.4079    0.0000 C   0  0  0  0  0  0  0  0  0  0  0  0
   34.9839  -19.2311    0.0000 C   0  0  0  0  0  0  0  0  0  0  0  0
   35.6966  -19.6423    0.0000 N   0  0  0  0  0  0  0  0  0  0  0  0
   36.4049  -19.2273    0.0000 C   0  0  0  0  0  0  0  0  0  0  0  0
   36.4001  -18.4011    0.0000 N   0  0  0  0  0  0  0  0  0  0  0  0
   35.6910  -17.9977    0.0000 C   0  0  0  0  0  0  0  0  0  0  0  0
   37.1147  -19.6332    0.0000 C   0  0  0  0  0  0  0  0  0  0  0  0
   37.1166  -20.4556    0.0000 C   0  0  0  0  0  0  0  0  0  0  0  0
   37.8292  -20.8614    0.0000 C   0  0  0  0  0  0  0  0  0  0  0  0
   38.5404  -20.4500    0.0000 C   0  0  0  0  0  0  0  0  0  0  0  0
   38.5346  -19.6245    0.0000 C   0  0  0  0  0  0  0  0  0  0  0  0
   37.8214  -19.2183    0.0000 C   0  0  0  0  0  0  0  0  0  0  0  0
   35.6867  -17.1764    0.0000 N   0  0  0  0  0  0  0  0  0  0  0  0
   36.3922  -16.7599    0.0000 C   0  0  0  0  0  0  0  0  0  0  0  0
   37.1016  -17.1723    0.0000 C   0  0  0  0  0  0  0  0  0  0  0  0
   37.8108  -16.7565    0.0000 C   0  0  0  0  0  0  0  0  0  0  0  0
   37.8069  -15.9343    0.0000 C   0  0  0  0  0  0  0  0  0  0  0  0
   37.0880  -15.5296    0.0000 C   0  0  0  0  0  0  0  0  0  0  0  0
   36.3817  -15.9436    0.0000 C   0  0  0  0  0  0  0  0  0  0  0  0
   39.2497  -20.8558    0.0000 O   0  0  0  0  0  0  0  0  0  0  0  0
   39.2529  -21.6730    0.0000 C   0  0  0  0  0  0  0  0  0  0  0  0
   39.2396  -19.2113    0.0000 O   0  0  0  0  0  0  0  0  0  0  0  0
   39.9500  -19.6153    0.0000 C   0  0  0  0  0  0  0  0  0  0  0  0
   38.5209  -17.1610    0.0000 O   0  0  0  0  0  0  0  0  0  0  0  0
   38.5255  -17.9782    0.0000 C   0  0  0  0  0  0  0  0  0  0  0  0
  1  2  2  0
  2  3  1  0
  3  6  2  0
  5  4  2  0
  4  1  1  0
  5  6  1  0
  6  7  1  0
  7  8  2  0
  8  9  1  0
  9 10  2  0
 10  5  1  0
 11 12  2  0
 12 13  1  0
 13 14  2  0
 14 15  1  0
 15 16  2  0
 16 11  1  0
  8 11  1  0
 10 17  1  0
 17 18  1  0
 18 19  2  0
 19 20  1  0
 20 21  2  0
 21 22  1  0
 22 23  2  0
 23 18  1  0
 14 24  1  0
 24 25  1  0
 15 26  1  0
 26 27  1  0
 20 28  1  0
 28 29  1  0
M  END
>  <Classification>  (580) 
1

>  <pchembl>  (580) 
6.36

>  <InChI_steorem>  (580) 
InChI=1S/C23H21N3O3/c1-27-17-8-6-7-16(14-17)24-23-18-9-4-5-10-19(18)25-22(26-23)15-11-12-20(28-2)21(13-15)29-3/h4-14H,1-3H3,(H,24,25,26)

>  <source>  (580) 
ChEMBL26

>  <source_id>  (580) 
26

>  <optional_reference>  (580) 
10.1016/j.ejmech.2017.08.020

>  <optional_origin>  (580) 
None

>  <target>  (580) 
BCRP

$$$$

     RDKit          2D

 29 32  0  0  0  0  0  0  0  0999 V2000
   34.6302  -12.0639    0.0000 C   0  0  0  0  0  0  0  0  0  0  0  0
   34.6290  -12.8875    0.0000 C   0  0  0  0  0  0  0  0  0  0  0  0
   35.3412  -13.3006    0.0000 C   0  0  0  0  0  0  0  0  0  0  0  0
   35.3394  -11.6550    0.0000 C   0  0  0  0  0  0  0  0  0  0  0  0
   36.0521  -12.0603    0.0000 C   0  0  0  0  0  0  0  0  0  0  0  0
   36.0529  -12.8834    0.0000 C   0  0  0  0  0  0  0  0  0  0  0  0
   36.7656  -13.2946    0.0000 N   0  0  0  0  0  0  0  0  0  0  0  0
   37.4738  -12.8796    0.0000 C   0  0  0  0  0  0  0  0  0  0  0  0
   37.4691  -12.0534    0.0000 N   0  0  0  0  0  0  0  0  0  0  0  0
   36.7600  -11.6500    0.0000 C   0  0  0  0  0  0  0  0  0  0  0  0
   38.1837  -13.2855    0.0000 C   0  0  0  0  0  0  0  0  0  0  0  0
   38.1855  -14.1080    0.0000 C   0  0  0  0  0  0  0  0  0  0  0  0
   38.8981  -14.5137    0.0000 C   0  0  0  0  0  0  0  0  0  0  0  0
   39.6093  -14.1023    0.0000 C   0  0  0  0  0  0  0  0  0  0  0  0
   39.6035  -13.2768    0.0000 C   0  0  0  0  0  0  0  0  0  0  0  0
   38.8904  -12.8706    0.0000 C   0  0  0  0  0  0  0  0  0  0  0  0
   36.7557  -10.8287    0.0000 N   0  0  0  0  0  0  0  0  0  0  0  0
   37.4612  -10.4122    0.0000 C   0  0  0  0  0  0  0  0  0  0  0  0
   38.1706  -10.8246    0.0000 C   0  0  0  0  0  0  0  0  0  0  0  0
   38.8798  -10.4088    0.0000 C   0  0  0  0  0  0  0  0  0  0  0  0
   38.8759   -9.5866    0.0000 C   0  0  0  0  0  0  0  0  0  0  0  0
   38.1569   -9.1820    0.0000 C   0  0  0  0  0  0  0  0  0  0  0  0
   37.4507   -9.5960    0.0000 C   0  0  0  0  0  0  0  0  0  0  0  0
   38.9013  -15.3341    0.0000 N   0  0  0  0  0  0  0  0  0  0  0  0
   39.6104  -15.7403    0.0000 O   0  0  0  0  0  0  0  0  0  0  0  0
   38.1950  -15.7451    0.0000 O   0  0  0  0  0  0  0  0  0  0  0  0
   38.1497   -8.3648    0.0000 N   0  0  0  0  0  0  0  0  0  0  0  0
   38.8538   -7.9500    0.0000 C   0  0  0  0  0  0  0  0  0  0  0  0
   37.4385   -7.9624    0.0000 C   0  0  0  0  0  0  0  0  0  0  0  0
  1  2  2  0
  2  3  1  0
  3  6  2  0
  5  4  2  0
  4  1  1  0
  5  6  1  0
  6  7  1  0
  7  8  2  0
  8  9  1  0
  9 10  2  0
 10  5  1  0
 11 12  2  0
 12 13  1  0
 13 14  2  0
 14 15  1  0
 15 16  2  0
 16 11  1  0
  8 11  1  0
 10 17  1  0
 17 18  1  0
 18 19  2  0
 19 20  1  0
 20 21  2  0
 21 22  1  0
 22 23  2  0
 23 18  1  0
 24 25  2  0
 24 26  1  0
 13 24  1  0
 22 27  1  0
 27 28  1  0
 27 29  1  0
M  CHG  2  24   1  26  -1
M  END
>  <Classification>  (581) 
1

>  <pchembl>  (581) 
6.66

>  <InChI_steorem>  (581) 
InChI=1S/C22H19N5O2/c1-26(2)17-9-6-8-16(14-17)23-22-19-11-3-4-12-20(19)24-21(25-22)15-7-5-10-18(13-15)27(28)29/h3-14H,1-2H3,(H,23,24,25)

>  <source>  (581) 
ChEMBL26

>  <source_id>  (581) 
26

>  <optional_reference>  (581) 
10.1016/j.ejmech.2017.08.020

>  <optional_origin>  (581) 
None

>  <target>  (581) 
BCRP

$$$$

     RDKit          2D

 29 32  0  0  0  0  0  0  0  0999 V2000
   38.7739   -3.5907    0.0000 C   0  0  0  0  0  0  0  0  0  0  0  0
   38.7727   -4.4143    0.0000 C   0  0  0  0  0  0  0  0  0  0  0  0
   39.4849   -4.8274    0.0000 C   0  0  0  0  0  0  0  0  0  0  0  0
   39.4831   -3.1818    0.0000 C   0  0  0  0  0  0  0  0  0  0  0  0
   40.1959   -3.5871    0.0000 C   0  0  0  0  0  0  0  0  0  0  0  0
   40.1966   -4.4102    0.0000 C   0  0  0  0  0  0  0  0  0  0  0  0
   40.9093   -4.8214    0.0000 N   0  0  0  0  0  0  0  0  0  0  0  0
   41.6176   -4.4064    0.0000 C   0  0  0  0  0  0  0  0  0  0  0  0
   41.6128   -3.5802    0.0000 N   0  0  0  0  0  0  0  0  0  0  0  0
   40.9037   -3.1768    0.0000 C   0  0  0  0  0  0  0  0  0  0  0  0
   42.3274   -4.8123    0.0000 C   0  0  0  0  0  0  0  0  0  0  0  0
   42.3293   -5.6348    0.0000 C   0  0  0  0  0  0  0  0  0  0  0  0
   43.0419   -6.0405    0.0000 C   0  0  0  0  0  0  0  0  0  0  0  0
   43.7531   -5.6291    0.0000 C   0  0  0  0  0  0  0  0  0  0  0  0
   43.7473   -4.8036    0.0000 C   0  0  0  0  0  0  0  0  0  0  0  0
   43.0341   -4.3974    0.0000 C   0  0  0  0  0  0  0  0  0  0  0  0
   40.8994   -2.3555    0.0000 N   0  0  0  0  0  0  0  0  0  0  0  0
   41.6049   -1.9390    0.0000 C   0  0  0  0  0  0  0  0  0  0  0  0
   42.3143   -2.3514    0.0000 C   0  0  0  0  0  0  0  0  0  0  0  0
   43.0235   -1.9356    0.0000 C   0  0  0  0  0  0  0  0  0  0  0  0
   43.0196   -1.1134    0.0000 C   0  0  0  0  0  0  0  0  0  0  0  0
   42.3007   -0.7088    0.0000 C   0  0  0  0  0  0  0  0  0  0  0  0
   41.5944   -1.1228    0.0000 C   0  0  0  0  0  0  0  0  0  0  0  0
   44.4523   -4.3904    0.0000 O   0  0  0  0  0  0  0  0  0  0  0  0
   45.1626   -4.7945    0.0000 C   0  0  0  0  0  0  0  0  0  0  0  0
   43.7335   -2.3402    0.0000 O   0  0  0  0  0  0  0  0  0  0  0  0
   43.7241   -0.6993    0.0000 O   0  0  0  0  0  0  0  0  0  0  0  0
   44.4350   -1.1023    0.0000 C   0  0  0  0  0  0  0  0  0  0  0  0
   44.4389   -1.9275    0.0000 C   0  0  0  0  0  0  0  0  0  0  0  0
  1  2  2  0
  2  3  1  0
  3  6  2  0
  5  4  2  0
  4  1  1  0
  5  6  1  0
  6  7  1  0
  7  8  2  0
  8  9  1  0
  9 10  2  0
 10  5  1  0
 11 12  2  0
 12 13  1  0
 13 14  2  0
 14 15  1  0
 15 16  2  0
 16 11  1  0
  8 11  1  0
 10 17  1  0
 17 18  1  0
 18 19  2  0
 19 20  1  0
 20 21  2  0
 21 22  1  0
 22 23  2  0
 23 18  1  0
 15 24  1  0
 24 25  1  0
 20 26  1  0
 21 27  1  0
 27 28  1  0
 26 29  1  0
M  END
>  <Classification>  (582) 
1

>  <pchembl>  (582) 
6.32

>  <InChI_steorem>  (582) 
InChI=1S/C23H21N3O3/c1-27-17-8-6-7-15(13-17)22-25-19-10-5-4-9-18(19)23(26-22)24-16-11-12-20(28-2)21(14-16)29-3/h4-14H,1-3H3,(H,24,25,26)

>  <source>  (582) 
ChEMBL26

>  <source_id>  (582) 
26

>  <optional_reference>  (582) 
10.1016/j.ejmech.2017.08.020

>  <optional_origin>  (582) 
None

>  <target>  (582) 
BCRP

$$$$

     RDKit          2D

 29 32  0  0  0  0  0  0  0  0999 V2000
   42.1046  -12.0969    0.0000 C   0  0  0  0  0  0  0  0  0  0  0  0
   42.1034  -12.9205    0.0000 C   0  0  0  0  0  0  0  0  0  0  0  0
   42.8156  -13.3336    0.0000 C   0  0  0  0  0  0  0  0  0  0  0  0
   42.8138  -11.6880    0.0000 C   0  0  0  0  0  0  0  0  0  0  0  0
   43.5266  -12.0933    0.0000 C   0  0  0  0  0  0  0  0  0  0  0  0
   43.5273  -12.9164    0.0000 C   0  0  0  0  0  0  0  0  0  0  0  0
   44.2358  -13.3276    0.0000 N   0  0  0  0  0  0  0  0  0  0  0  0
   44.9482  -12.9127    0.0000 C   0  0  0  0  0  0  0  0  0  0  0  0
   44.9435  -12.0864    0.0000 N   0  0  0  0  0  0  0  0  0  0  0  0
   44.2303  -11.6830    0.0000 C   0  0  0  0  0  0  0  0  0  0  0  0
   44.2259  -10.8617    0.0000 N   0  0  0  0  0  0  0  0  0  0  0  0
   44.9356  -10.4453    0.0000 C   0  0  0  0  0  0  0  0  0  0  0  0
   45.6450  -10.8576    0.0000 C   0  0  0  0  0  0  0  0  0  0  0  0
   46.3542  -10.4418    0.0000 C   0  0  0  0  0  0  0  0  0  0  0  0
   46.3503   -9.6196    0.0000 C   0  0  0  0  0  0  0  0  0  0  0  0
   45.6313   -9.2150    0.0000 C   0  0  0  0  0  0  0  0  0  0  0  0
   44.9251   -9.6290    0.0000 C   0  0  0  0  0  0  0  0  0  0  0  0
   45.6617  -13.3226    0.0000 C   0  0  0  0  0  0  0  0  0  0  0  0
   45.6599  -14.1410    0.0000 C   0  0  0  0  0  0  0  0  0  0  0  0
   46.3725  -14.5467    0.0000 C   0  0  0  0  0  0  0  0  0  0  0  0
   47.0838  -14.1353    0.0000 C   0  0  0  0  0  0  0  0  0  0  0  0
   47.0779  -13.3098    0.0000 C   0  0  0  0  0  0  0  0  0  0  0  0
   46.3648  -12.9036    0.0000 C   0  0  0  0  0  0  0  0  0  0  0  0
   41.3919  -11.6887    0.0000 N   0  0  0  0  0  0  0  0  0  0  0  0
   40.6802  -12.0975    0.0000 O   0  0  0  0  0  0  0  0  0  0  0  0
   41.3917  -10.8674    0.0000 O   0  0  0  0  0  0  0  0  0  0  0  0
   45.6241   -8.3937    0.0000 C   0  0  0  0  0  0  0  0  0  0  0  0
   46.3323   -7.9747    0.0000 O   0  0  0  0  0  0  0  0  0  0  0  0
   44.9087   -7.9872    0.0000 O   0  0  0  0  0  0  0  0  0  0  0  0
  1  2  2  0
  2  3  1  0
  3  6  2  0
  5  4  2  0
  4  1  1  0
  5  6  1  0
  6  7  1  0
  7  8  2  0
  8  9  1  0
  9 10  2  0
 10  5  1  0
 10 11  1  0
 11 12  1  0
 12 13  2  0
 13 14  1  0
 14 15  2  0
 15 16  1  0
 16 17  2  0
 17 12  1  0
  8 18  1  0
 18 19  2  0
 19 20  1  0
 20 21  2  0
 21 22  1  0
 22 23  2  0
 23 18  1  0
 24 25  2  0
 24 26  1  0
  1 24  1  0
 16 27  1  0
 27 28  2  0
 27 29  1  0
M  CHG  2  24   1  26  -1
M  END
>  <Classification>  (583) 
1

>  <pchembl>  (583) 
6.04

>  <InChI_steorem>  (583) 
InChI=1S/C21H14N4O4/c26-21(27)14-7-4-8-15(11-14)22-20-17-12-16(25(28)29)9-10-18(17)23-19(24-20)13-5-2-1-3-6-13/h1-12H,(H,26,27)(H,22,23,24)

>  <source>  (583) 
ChEMBL26

>  <source_id>  (583) 
26

>  <optional_reference>  (583) 
10.1021/acs.jmedchem.8b01011

>  <optional_origin>  (583) 
None

>  <target>  (583) 
BCRP

$$$$

     RDKit          2D

 29 32  0  0  0  0  0  0  0  0999 V2000
    8.8969   -4.5853    0.0000 C   0  0  0  0  0  0  0  0  0  0  0  0
    8.8957   -5.4090    0.0000 C   0  0  0  0  0  0  0  0  0  0  0  0
    9.6079   -5.8221    0.0000 C   0  0  0  0  0  0  0  0  0  0  0  0
    9.6061   -4.1765    0.0000 C   0  0  0  0  0  0  0  0  0  0  0  0
   10.3189   -4.5817    0.0000 C   0  0  0  0  0  0  0  0  0  0  0  0
   10.3196   -5.4049    0.0000 C   0  0  0  0  0  0  0  0  0  0  0  0
   11.0323   -5.8160    0.0000 N   0  0  0  0  0  0  0  0  0  0  0  0
   11.7406   -5.4011    0.0000 C   0  0  0  0  0  0  0  0  0  0  0  0
   11.7358   -4.5748    0.0000 N   0  0  0  0  0  0  0  0  0  0  0  0
   11.0267   -4.1715    0.0000 C   0  0  0  0  0  0  0  0  0  0  0  0
   12.4504   -5.8070    0.0000 C   0  0  0  0  0  0  0  0  0  0  0  0
   12.4523   -6.6294    0.0000 C   0  0  0  0  0  0  0  0  0  0  0  0
   13.1648   -7.0352    0.0000 C   0  0  0  0  0  0  0  0  0  0  0  0
   13.8761   -6.6238    0.0000 C   0  0  0  0  0  0  0  0  0  0  0  0
   13.8702   -5.7983    0.0000 C   0  0  0  0  0  0  0  0  0  0  0  0
   13.1571   -5.3921    0.0000 C   0  0  0  0  0  0  0  0  0  0  0  0
   11.0224   -3.3502    0.0000 N   0  0  0  0  0  0  0  0  0  0  0  0
   11.7279   -2.9337    0.0000 C   0  0  0  0  0  0  0  0  0  0  0  0
   12.4373   -3.3460    0.0000 C   0  0  0  0  0  0  0  0  0  0  0  0
   13.1465   -2.9303    0.0000 C   0  0  0  0  0  0  0  0  0  0  0  0
   13.1426   -2.1081    0.0000 C   0  0  0  0  0  0  0  0  0  0  0  0
   12.4236   -1.7034    0.0000 C   0  0  0  0  0  0  0  0  0  0  0  0
   11.7174   -2.1174    0.0000 C   0  0  0  0  0  0  0  0  0  0  0  0
   14.5753   -5.3851    0.0000 O   0  0  0  0  0  0  0  0  0  0  0  0
   15.2856   -5.7891    0.0000 C   0  0  0  0  0  0  0  0  0  0  0  0
   13.8579   -3.3340    0.0000 N   0  0  0  0  0  0  0  0  0  0  0  0
   14.5633   -2.9214    0.0000 O   0  0  0  0  0  0  0  0  0  0  0  0
   13.8626   -4.1512    0.0000 O   0  0  0  0  0  0  0  0  0  0  0  0
   13.8471   -1.6939    0.0000 F   0  0  0  0  0  0  0  0  0  0  0  0
  1  2  2  0
  2  3  1  0
  3  6  2  0
  5  4  2  0
  4  1  1  0
  5  6  1  0
  6  7  1  0
  7  8  2  0
  8  9  1  0
  9 10  2  0
 10  5  1  0
 11 12  2  0
 12 13  1  0
 13 14  2  0
 14 15  1  0
 15 16  2  0
 16 11  1  0
  8 11  1  0
 10 17  1  0
 17 18  1  0
 18 19  2  0
 19 20  1  0
 20 21  2  0
 21 22  1  0
 22 23  2  0
 23 18  1  0
 15 24  1  0
 24 25  1  0
 26 27  2  0
 26 28  1  0
 20 26  1  0
 21 29  1  0
M  CHG  2  26   1  28  -1
M  END
>  <Classification>  (584) 
1

>  <pchembl>  (584) 
5.92

>  <InChI_steorem>  (584) 
InChI=1S/C21H15FN4O3/c1-29-15-6-4-5-13(11-15)20-24-18-8-3-2-7-16(18)21(25-20)23-14-9-10-17(22)19(12-14)26(27)28/h2-12H,1H3,(H,23,24,25)

>  <source>  (584) 
ChEMBL26

>  <source_id>  (584) 
26

>  <optional_reference>  (584) 
10.1016/j.ejmech.2017.08.020

>  <optional_origin>  (584) 
None

>  <target>  (584) 
BCRP

$$$$

     RDKit          2D

 29 33  0  0  0  0  0  0  0  0999 V2000
   20.4054  -10.9758    0.0000 C   0  0  0  0  0  0  0  0  0  0  0  0
   20.4042  -11.8046    0.0000 C   0  0  0  0  0  0  0  0  0  0  0  0
   21.1208  -12.2202    0.0000 C   0  0  0  0  0  0  0  0  0  0  0  0
   21.8390  -11.8041    0.0000 C   0  0  0  0  0  0  0  0  0  0  0  0
   21.8362  -10.9721    0.0000 C   0  0  0  0  0  0  0  0  0  0  0  0
   21.1190  -10.5644    0.0000 C   0  0  0  0  0  0  0  0  0  0  0  0
   22.5509  -10.5584    0.0000 C   0  0  0  0  0  0  0  0  0  0  0  0
   23.3071  -10.8874    0.0000 N   0  0  0  0  0  0  0  0  0  0  0  0
   23.8591  -10.2701    0.0000 N   0  0  0  0  0  0  0  0  0  0  0  0
   23.4411   -9.5554    0.0000 N   0  0  0  0  0  0  0  0  0  0  0  0
   22.6333   -9.7337    0.0000 N   0  0  0  0  0  0  0  0  0  0  0  0
   24.6842  -10.2698    0.0000 C   0  0  0  0  0  0  0  0  0  0  0  0
   25.0931  -10.9871    0.0000 C   0  0  0  0  0  0  0  0  0  0  0  0
   25.9174  -10.9871    0.0000 C   0  0  0  0  0  0  0  0  0  0  0  0
   26.3326  -10.2713    0.0000 C   0  0  0  0  0  0  0  0  0  0  0  0
   25.9133   -9.5540    0.0000 C   0  0  0  0  0  0  0  0  0  0  0  0
   25.0904   -9.5575    0.0000 C   0  0  0  0  0  0  0  0  0  0  0  0
   22.5521  -12.2135    0.0000 N   0  0  0  0  0  0  0  0  0  0  0  0
   22.5541  -13.0356    0.0000 C   0  0  0  0  0  0  0  0  0  0  0  0
   23.2673  -13.4451    0.0000 C   0  0  0  0  0  0  0  0  0  0  0  0
   21.8431  -13.4486    0.0000 O   0  0  0  0  0  0  0  0  0  0  0  0
   23.2673  -14.2659    0.0000 C   0  0  0  0  0  0  0  0  0  0  0  0
   23.9796  -14.6752    0.0000 C   0  0  0  0  0  0  0  0  0  0  0  0
   23.9742  -13.0302    0.0000 C   0  0  0  0  0  0  0  0  0  0  0  0
   24.6842  -13.4300    0.0000 C   0  0  0  0  0  0  0  0  0  0  0  0
   24.6899  -14.2589    0.0000 C   0  0  0  0  0  0  0  0  0  0  0  0
   25.4801  -14.5096    0.0000 O   0  0  0  0  0  0  0  0  0  0  0  0
   25.9627  -13.8357    0.0000 C   0  0  0  0  0  0  0  0  0  0  0  0
   25.4708  -13.1685    0.0000 O   0  0  0  0  0  0  0  0  0  0  0  0
  1  2  2  0
  2  3  1  0
  3  4  2  0
  4  5  1  0
  5  6  2  0
  6  1  1  0
  5  7  1  0
  7  8  2  0
  8  9  1  0
  9 10  1  0
 10 11  2  0
 11  7  1  0
  9 12  1  0
 12 13  2  0
 13 14  1  0
 14 15  2  0
 15 16  1  0
 16 17  2  0
 17 12  1  0
  4 18  1  0
 18 19  1  0
 19 20  1  0
 19 21  2  0
 20 22  2  0
 22 23  1  0
 23 26  2  0
 24 20  1  0
 24 25  2  0
 25 26  1  0
 26 27  1  0
 27 28  1  0
 28 29  1  0
 29 25  1  0
M  END
>  <Classification>  (585) 
1

>  <pchembl>  (585) 
6.59

>  <InChI_steorem>  (585) 
InChI=1S/C21H15N5O3/c27-21(14-10-11-18-19(12-14)29-13-28-18)22-17-9-5-4-8-16(17)20-23-25-26(24-20)15-6-2-1-3-7-15/h1-12H,13H2,(H,22,27)

>  <source>  (585) 
ChEMBL26

>  <source_id>  (585) 
26

>  <optional_reference>  (585) 
10.1016/j.ejmech.2018.01.012

>  <optional_origin>  (585) 
None

>  <target>  (585) 
BCRP

$$$$

     RDKit          2D

 30 33  0  0  0  0  0  0  0  0999 V2000
    1.0510  -28.3251    0.0000 C   0  0  0  0  0  0  0  0  0  0  0  0
    1.0499  -29.1488    0.0000 C   0  0  0  0  0  0  0  0  0  0  0  0
    1.7621  -29.5619    0.0000 C   0  0  0  0  0  0  0  0  0  0  0  0
    1.7603  -27.9163    0.0000 C   0  0  0  0  0  0  0  0  0  0  0  0
    2.4730  -28.3215    0.0000 C   0  0  0  0  0  0  0  0  0  0  0  0
    2.4738  -29.1447    0.0000 C   0  0  0  0  0  0  0  0  0  0  0  0
    3.1864  -29.5559    0.0000 N   0  0  0  0  0  0  0  0  0  0  0  0
    3.8947  -29.1409    0.0000 C   0  0  0  0  0  0  0  0  0  0  0  0
    3.8900  -28.3147    0.0000 N   0  0  0  0  0  0  0  0  0  0  0  0
    3.1809  -27.9113    0.0000 C   0  0  0  0  0  0  0  0  0  0  0  0
    4.6046  -29.5468    0.0000 C   0  0  0  0  0  0  0  0  0  0  0  0
    4.6064  -30.3692    0.0000 C   0  0  0  0  0  0  0  0  0  0  0  0
    5.3190  -30.7750    0.0000 C   0  0  0  0  0  0  0  0  0  0  0  0
    6.0302  -30.3636    0.0000 C   0  0  0  0  0  0  0  0  0  0  0  0
    6.0244  -29.5381    0.0000 C   0  0  0  0  0  0  0  0  0  0  0  0
    5.3112  -29.1319    0.0000 C   0  0  0  0  0  0  0  0  0  0  0  0
    3.1765  -27.0900    0.0000 N   0  0  0  0  0  0  0  0  0  0  0  0
    3.8821  -26.6735    0.0000 C   0  0  0  0  0  0  0  0  0  0  0  0
    4.5915  -27.0859    0.0000 C   0  0  0  0  0  0  0  0  0  0  0  0
    5.3006  -26.6701    0.0000 C   0  0  0  0  0  0  0  0  0  0  0  0
    5.2967  -25.8479    0.0000 C   0  0  0  0  0  0  0  0  0  0  0  0
    4.5778  -25.4433    0.0000 C   0  0  0  0  0  0  0  0  0  0  0  0
    3.8715  -25.8572    0.0000 C   0  0  0  0  0  0  0  0  0  0  0  0
    6.7437  -30.7681    0.0000 N   0  0  0  0  0  0  0  0  0  0  0  0
    7.4498  -30.3567    0.0000 O   0  0  0  0  0  0  0  0  0  0  0  0
    6.7469  -31.5853    0.0000 O   0  0  0  0  0  0  0  0  0  0  0  0
    6.0012  -25.4338    0.0000 O   0  0  0  0  0  0  0  0  0  0  0  0
    6.0107  -27.0746    0.0000 O   0  0  0  0  0  0  0  0  0  0  0  0
    6.0153  -27.8918    0.0000 C   0  0  0  0  0  0  0  0  0  0  0  0
    6.7121  -25.8368    0.0000 C   0  0  0  0  0  0  0  0  0  0  0  0
  1  2  2  0
  2  3  1  0
  3  6  2  0
  5  4  2  0
  4  1  1  0
  5  6  1  0
  6  7  1  0
  7  8  2  0
  8  9  1  0
  9 10  2  0
 10  5  1  0
 11 12  2  0
 12 13  1  0
 13 14  2  0
 14 15  1  0
 15 16  2  0
 16 11  1  0
  8 11  1  0
 10 17  1  0
 17 18  1  0
 18 19  2  0
 19 20  1  0
 20 21  2  0
 21 22  1  0
 22 23  2  0
 23 18  1  0
 24 25  2  0
 24 26  1  0
 14 24  1  0
 21 27  1  0
 20 28  1  0
 28 29  1  0
 27 30  1  0
M  CHG  2  24   1  26  -1
M  END
>  <Classification>  (586) 
1

>  <pchembl>  (586) 
7.06

>  <InChI_steorem>  (586) 
InChI=1S/C22H18N4O4/c1-29-19-12-9-15(13-20(19)30-2)23-22-17-5-3-4-6-18(17)24-21(25-22)14-7-10-16(11-8-14)26(27)28/h3-13H,1-2H3,(H,23,24,25)

>  <source>  (586) 
ChEMBL26

>  <source_id>  (586) 
26

>  <optional_reference>  (586) 
10.1016/j.ejmech.2017.08.020

>  <optional_origin>  (586) 
None

>  <target>  (586) 
BCRP

$$$$

     RDKit          2D

 30 33  0  0  0  0  0  0  0  0999 V2000
   10.9853   -3.7351    0.0000 C   0  0  0  0  0  0  0  0  0  0  0  0
   10.9841   -4.5588    0.0000 C   0  0  0  0  0  0  0  0  0  0  0  0
   11.6963   -4.9719    0.0000 C   0  0  0  0  0  0  0  0  0  0  0  0
   12.4101   -4.5583    0.0000 C   0  0  0  0  0  0  0  0  0  0  0  0
   12.4073   -3.7315    0.0000 C   0  0  0  0  0  0  0  0  0  0  0  0
   11.6945   -3.3262    0.0000 C   0  0  0  0  0  0  0  0  0  0  0  0
   13.1175   -3.3202    0.0000 C   0  0  0  0  0  0  0  0  0  0  0  0
   13.8691   -3.6473    0.0000 O   0  0  0  0  0  0  0  0  0  0  0  0
   14.4177   -3.0338    0.0000 C   0  0  0  0  0  0  0  0  0  0  0  0
   14.0023   -2.3235    0.0000 N   0  0  0  0  0  0  0  0  0  0  0  0
   13.1995   -2.5006    0.0000 N   0  0  0  0  0  0  0  0  0  0  0  0
   15.2377   -3.0335    0.0000 C   0  0  0  0  0  0  0  0  0  0  0  0
   15.6441   -3.7464    0.0000 C   0  0  0  0  0  0  0  0  0  0  0  0
   16.4633   -3.7464    0.0000 C   0  0  0  0  0  0  0  0  0  0  0  0
   16.8760   -3.0350    0.0000 C   0  0  0  0  0  0  0  0  0  0  0  0
   16.4593   -2.3221    0.0000 C   0  0  0  0  0  0  0  0  0  0  0  0
   15.6413   -2.3256    0.0000 C   0  0  0  0  0  0  0  0  0  0  0  0
   13.1226   -4.9699    0.0000 N   0  0  0  0  0  0  0  0  0  0  0  0
   13.1238   -5.7912    0.0000 C   0  0  0  0  0  0  0  0  0  0  0  0
   13.8363   -6.1987    0.0000 C   0  0  0  0  0  0  0  0  0  0  0  0
   12.4126   -6.2009    0.0000 O   0  0  0  0  0  0  0  0  0  0  0  0
   13.8330   -7.0174    0.0000 C   0  0  0  0  0  0  0  0  0  0  0  0
   14.5446   -7.4289    0.0000 C   0  0  0  0  0  0  0  0  0  0  0  0
   15.2568   -7.0150    0.0000 C   0  0  0  0  0  0  0  0  0  0  0  0
   15.2529   -6.1895    0.0000 C   0  0  0  0  0  0  0  0  0  0  0  0
   14.5407   -5.7858    0.0000 C   0  0  0  0  0  0  0  0  0  0  0  0
   17.6973   -3.0336    0.0000 O   0  0  0  0  0  0  0  0  0  0  0  0
   18.1071   -3.7448    0.0000 C   0  0  0  0  0  0  0  0  0  0  0  0
   15.9661   -7.4209    0.0000 O   0  0  0  0  0  0  0  0  0  0  0  0
   15.9692   -8.2381    0.0000 C   0  0  0  0  0  0  0  0  0  0  0  0
  1  2  2  0
  2  3  1  0
  3  4  2  0
  4  5  1  0
  5  6  2  0
  6  1  1  0
  5  7  1  0
  7  8  1  0
  8  9  1  0
  9 10  2  0
 10 11  1  0
 11  7  2  0
  9 12  1  0
 12 13  2  0
 13 14  1  0
 14 15  2  0
 15 16  1  0
 16 17  2  0
 17 12  1  0
  4 18  1  0
 18 19  1  0
 19 20  1  0
 19 21  2  0
 20 22  2  0
 22 23  1  0
 23 24  2  0
 24 25  1  0
 25 26  2  0
 26 20  1  0
 15 27  1  0
 27 28  1  0
 24 29  1  0
 29 30  1  0
M  END
>  <Classification>  (587) 
1

>  <pchembl>  (587) 
6.36

>  <InChI_steorem>  (587) 
InChI=1S/C23H19N3O4/c1-28-17-11-7-15(8-12-17)21(27)24-20-6-4-3-5-19(20)23-26-25-22(30-23)16-9-13-18(29-2)14-10-16/h3-14H,1-2H3,(H,24,27)

>  <source>  (587) 
ChEMBL26

>  <source_id>  (587) 
26

>  <optional_reference>  (587) 
10.1016/j.ejmech.2018.01.012

>  <optional_origin>  (587) 
None

>  <target>  (587) 
BCRP

$$$$

     RDKit          2D

 30 33  0  0  0  0  0  0  0  0999 V2000
    1.3936  -20.4793    0.0000 C   0  0  0  0  0  0  0  0  0  0  0  0
    1.3924  -21.3029    0.0000 C   0  0  0  0  0  0  0  0  0  0  0  0
    2.1046  -21.7160    0.0000 C   0  0  0  0  0  0  0  0  0  0  0  0
    2.1028  -20.0704    0.0000 C   0  0  0  0  0  0  0  0  0  0  0  0
    2.8156  -20.4757    0.0000 C   0  0  0  0  0  0  0  0  0  0  0  0
    2.8163  -21.2988    0.0000 C   0  0  0  0  0  0  0  0  0  0  0  0
    3.5290  -21.7100    0.0000 N   0  0  0  0  0  0  0  0  0  0  0  0
    4.2373  -21.2951    0.0000 C   0  0  0  0  0  0  0  0  0  0  0  0
    4.2325  -20.4688    0.0000 N   0  0  0  0  0  0  0  0  0  0  0  0
    3.5234  -20.0654    0.0000 C   0  0  0  0  0  0  0  0  0  0  0  0
    4.9471  -21.7009    0.0000 C   0  0  0  0  0  0  0  0  0  0  0  0
    4.9490  -22.5234    0.0000 C   0  0  0  0  0  0  0  0  0  0  0  0
    5.6615  -22.9291    0.0000 C   0  0  0  0  0  0  0  0  0  0  0  0
    6.3728  -22.5177    0.0000 C   0  0  0  0  0  0  0  0  0  0  0  0
    6.3669  -21.6922    0.0000 C   0  0  0  0  0  0  0  0  0  0  0  0
    5.6538  -21.2860    0.0000 C   0  0  0  0  0  0  0  0  0  0  0  0
    3.5191  -19.2441    0.0000 N   0  0  0  0  0  0  0  0  0  0  0  0
    4.2246  -18.8277    0.0000 C   0  0  0  0  0  0  0  0  0  0  0  0
    4.9340  -19.2400    0.0000 C   0  0  0  0  0  0  0  0  0  0  0  0
    5.6432  -18.8242    0.0000 C   0  0  0  0  0  0  0  0  0  0  0  0
    5.6393  -18.0020    0.0000 C   0  0  0  0  0  0  0  0  0  0  0  0
    4.9203  -17.5974    0.0000 C   0  0  0  0  0  0  0  0  0  0  0  0
    4.2141  -18.0114    0.0000 C   0  0  0  0  0  0  0  0  0  0  0  0
    5.6647  -23.7496    0.0000 N   0  0  0  0  0  0  0  0  0  0  0  0
    6.3738  -24.1558    0.0000 O   0  0  0  0  0  0  0  0  0  0  0  0
    4.9584  -24.1605    0.0000 O   0  0  0  0  0  0  0  0  0  0  0  0
    4.9132  -16.7802    0.0000 N   0  0  0  0  0  0  0  0  0  0  0  0
    5.6173  -16.3654    0.0000 C   0  0  0  0  0  0  0  0  0  0  0  0
    5.6101  -15.5483    0.0000 O   0  0  0  0  0  0  0  0  0  0  0  0
    6.3285  -16.7678    0.0000 C   0  0  0  0  0  0  0  0  0  0  0  0
  1  2  2  0
  2  3  1  0
  3  6  2  0
  5  4  2  0
  4  1  1  0
  5  6  1  0
  6  7  1  0
  7  8  2  0
  8  9  1  0
  9 10  2  0
 10  5  1  0
 11 12  2  0
 12 13  1  0
 13 14  2  0
 14 15  1  0
 15 16  2  0
 16 11  1  0
  8 11  1  0
 10 17  1  0
 17 18  1  0
 18 19  2  0
 19 20  1  0
 20 21  2  0
 21 22  1  0
 22 23  2  0
 23 18  1  0
 24 25  2  0
 24 26  1  0
 13 24  1  0
 22 27  1  0
 27 28  1  0
 28 29  2  0
 28 30  1  0
M  CHG  2  24   1  26  -1
M  END
>  <Classification>  (588) 
1

>  <pchembl>  (588) 
6.9

>  <InChI_steorem>  (588) 
InChI=1S/C22H17N5O3/c1-14(28)23-16-7-5-8-17(13-16)24-22-19-10-2-3-11-20(19)25-21(26-22)15-6-4-9-18(12-15)27(29)30/h2-13H,1H3,(H,23,28)(H,24,25,26)

>  <source>  (588) 
ChEMBL26

>  <source_id>  (588) 
26

>  <optional_reference>  (588) 
10.1016/j.ejmech.2017.08.020

>  <optional_origin>  (588) 
None

>  <target>  (588) 
BCRP

$$$$

     RDKit          2D

 30 33  0  0  0  0  0  0  0  0999 V2000
    1.4926  -26.0964    0.0000 C   0  0  0  0  0  0  0  0  0  0  0  0
    1.4915  -26.9201    0.0000 C   0  0  0  0  0  0  0  0  0  0  0  0
    2.2037  -27.3332    0.0000 C   0  0  0  0  0  0  0  0  0  0  0  0
    2.9175  -26.9196    0.0000 C   0  0  0  0  0  0  0  0  0  0  0  0
    2.9146  -26.0928    0.0000 C   0  0  0  0  0  0  0  0  0  0  0  0
    2.2019  -25.6876    0.0000 C   0  0  0  0  0  0  0  0  0  0  0  0
    3.6249  -25.6816    0.0000 C   0  0  0  0  0  0  0  0  0  0  0  0
    4.3764  -26.0086    0.0000 N   0  0  0  0  0  0  0  0  0  0  0  0
    4.9251  -25.3951    0.0000 N   0  0  0  0  0  0  0  0  0  0  0  0
    4.5097  -24.6848    0.0000 N   0  0  0  0  0  0  0  0  0  0  0  0
    3.7069  -24.8620    0.0000 N   0  0  0  0  0  0  0  0  0  0  0  0
    3.6262  -27.3265    0.0000 N   0  0  0  0  0  0  0  0  0  0  0  0
    3.6282  -28.1436    0.0000 C   0  0  0  0  0  0  0  0  0  0  0  0
    4.3369  -28.5505    0.0000 C   0  0  0  0  0  0  0  0  0  0  0  0
    2.9215  -28.5540    0.0000 O   0  0  0  0  0  0  0  0  0  0  0  0
    4.3370  -29.3663    0.0000 C   0  0  0  0  0  0  0  0  0  0  0  0
    5.0449  -29.7731    0.0000 C   0  0  0  0  0  0  0  0  0  0  0  0
    5.7525  -29.3627    0.0000 C   0  0  0  0  0  0  0  0  0  0  0  0
    5.7479  -28.5413    0.0000 C   0  0  0  0  0  0  0  0  0  0  0  0
    5.0394  -28.1382    0.0000 C   0  0  0  0  0  0  0  0  0  0  0  0
    5.7410  -25.3948    0.0000 C   0  0  0  0  0  0  0  0  0  0  0  0
    6.1473  -26.1036    0.0000 C   0  0  0  0  0  0  0  0  0  0  0  0
    6.9625  -26.1036    0.0000 N   0  0  0  0  0  0  0  0  0  0  0  0
    7.3710  -25.3964    0.0000 C   0  0  0  0  0  0  0  0  0  0  0  0
    6.9584  -24.6876    0.0000 C   0  0  0  0  0  0  0  0  0  0  0  0
    6.1446  -24.6910    0.0000 C   0  0  0  0  0  0  0  0  0  0  0  0
    8.1882  -25.3950    0.0000 O   0  0  0  0  0  0  0  0  0  0  0  0
    8.5980  -26.1020    0.0000 C   0  0  0  0  0  0  0  0  0  0  0  0
    6.4618  -29.7686    0.0000 O   0  0  0  0  0  0  0  0  0  0  0  0
    6.4649  -30.5858    0.0000 C   0  0  0  0  0  0  0  0  0  0  0  0
  1  2  2  0
  2  3  1  0
  3  4  2  0
  4  5  1  0
  5  6  2  0
  6  1  1  0
  5  7  1  0
  7  8  2  0
  8  9  1  0
  9 10  1  0
 10 11  2  0
 11  7  1  0
  4 12  1  0
 12 13  1  0
 13 14  1  0
 13 15  2  0
 14 16  2  0
 16 17  1  0
 17 18  2  0
 18 19  1  0
 19 20  2  0
 20 14  1  0
  9 21  1  0
 21 22  2  0
 22 23  1  0
 23 24  2  0
 24 25  1  0
 25 26  2  0
 26 21  1  0
 24 27  1  0
 27 28  1  0
 18 29  1  0
 29 30  1  0
M  END
>  <Classification>  (589) 
1

>  <pchembl>  (589) 
7.21

>  <InChI_steorem>  (589) 
InChI=1S/C21H18N6O3/c1-29-16-10-7-14(8-11-16)21(28)23-18-6-4-3-5-17(18)20-24-26-27(25-20)15-9-12-19(30-2)22-13-15/h3-13H,1-2H3,(H,23,28)

>  <source>  (589) 
ChEMBL26

>  <source_id>  (589) 
26

>  <optional_reference>  (589) 
10.1016/j.ejmech.2018.01.012

>  <optional_origin>  (589) 
None

>  <target>  (589) 
BCRP

$$$$

     RDKit          2D

 30 33  0  0  0  0  0  0  0  0999 V2000
   18.9797  -11.6676    0.0000 C   0  0  0  0  0  0  0  0  0  0  0  0
   18.9786  -12.4913    0.0000 C   0  0  0  0  0  0  0  0  0  0  0  0
   19.6907  -12.9044    0.0000 C   0  0  0  0  0  0  0  0  0  0  0  0
   19.6889  -11.2588    0.0000 C   0  0  0  0  0  0  0  0  0  0  0  0
   20.4017  -11.6640    0.0000 C   0  0  0  0  0  0  0  0  0  0  0  0
   20.4024  -12.4872    0.0000 C   0  0  0  0  0  0  0  0  0  0  0  0
   21.1110  -12.8984    0.0000 N   0  0  0  0  0  0  0  0  0  0  0  0
   21.8234  -12.4834    0.0000 C   0  0  0  0  0  0  0  0  0  0  0  0
   21.8186  -11.6572    0.0000 N   0  0  0  0  0  0  0  0  0  0  0  0
   21.1054  -11.2538    0.0000 C   0  0  0  0  0  0  0  0  0  0  0  0
   21.1011  -10.4325    0.0000 N   0  0  0  0  0  0  0  0  0  0  0  0
   21.8107  -10.0160    0.0000 C   0  0  0  0  0  0  0  0  0  0  0  0
   22.5201  -10.4284    0.0000 C   0  0  0  0  0  0  0  0  0  0  0  0
   23.2293  -10.0126    0.0000 C   0  0  0  0  0  0  0  0  0  0  0  0
   23.2254   -9.1904    0.0000 C   0  0  0  0  0  0  0  0  0  0  0  0
   22.5065   -8.7858    0.0000 C   0  0  0  0  0  0  0  0  0  0  0  0
   21.8002   -9.1997    0.0000 C   0  0  0  0  0  0  0  0  0  0  0  0
   22.5368  -12.8934    0.0000 C   0  0  0  0  0  0  0  0  0  0  0  0
   22.5351  -13.7117    0.0000 C   0  0  0  0  0  0  0  0  0  0  0  0
   23.2477  -14.1175    0.0000 C   0  0  0  0  0  0  0  0  0  0  0  0
   23.9589  -13.7061    0.0000 C   0  0  0  0  0  0  0  0  0  0  0  0
   23.9531  -12.8806    0.0000 C   0  0  0  0  0  0  0  0  0  0  0  0
   23.2399  -12.4744    0.0000 C   0  0  0  0  0  0  0  0  0  0  0  0
   18.2671  -11.2595    0.0000 N   0  0  0  0  0  0  0  0  0  0  0  0
   17.5553  -11.6682    0.0000 O   0  0  0  0  0  0  0  0  0  0  0  0
   18.2669  -10.4381    0.0000 O   0  0  0  0  0  0  0  0  0  0  0  0
   22.4992   -7.9645    0.0000 C   0  0  0  0  0  0  0  0  0  0  0  0
   23.2074   -7.5455    0.0000 F   0  0  0  0  0  0  0  0  0  0  0  0
   21.7838   -7.5580    0.0000 F   0  0  0  0  0  0  0  0  0  0  0  0
   22.4934   -7.1401    0.0000 F   0  0  0  0  0  0  0  0  0  0  0  0
  1  2  2  0
  2  3  1  0
  3  6  2  0
  5  4  2  0
  4  1  1  0
  5  6  1  0
  6  7  1  0
  7  8  2  0
  8  9  1  0
  9 10  2  0
 10  5  1  0
 10 11  1  0
 11 12  1  0
 12 13  2  0
 13 14  1  0
 14 15  2  0
 15 16  1  0
 16 17  2  0
 17 12  1  0
  8 18  1  0
 18 19  2  0
 19 20  1  0
 20 21  2  0
 21 22  1  0
 22 23  2  0
 23 18  1  0
 24 25  2  0
 24 26  1  0
  1 24  1  0
 16 27  1  0
 27 28  1  0
 27 29  1  0
 27 30  1  0
M  CHG  2  24   1  26  -1
M  END
>  <Classification>  (590) 
1

>  <pchembl>  (590) 
7.31

>  <InChI_steorem>  (590) 
InChI=1S/C21H13F3N4O2/c22-21(23,24)14-7-4-8-15(11-14)25-20-17-12-16(28(29)30)9-10-18(17)26-19(27-20)13-5-2-1-3-6-13/h1-12H,(H,25,26,27)

>  <source>  (590) 
ChEMBL26

>  <source_id>  (590) 
26

>  <optional_reference>  (590) 
10.1021/acs.jmedchem.8b01011

>  <optional_origin>  (590) 
None

>  <target>  (590) 
BCRP

$$$$

     RDKit          2D

 30 33  0  0  0  0  0  0  0  0999 V2000
   19.1448   -4.4285    0.0000 C   0  0  0  0  0  0  0  0  0  0  0  0
   19.1437   -5.2521    0.0000 C   0  0  0  0  0  0  0  0  0  0  0  0
   19.8558   -5.6652    0.0000 C   0  0  0  0  0  0  0  0  0  0  0  0
   19.8540   -4.0196    0.0000 C   0  0  0  0  0  0  0  0  0  0  0  0
   20.5668   -4.4249    0.0000 C   0  0  0  0  0  0  0  0  0  0  0  0
   20.5675   -5.2480    0.0000 C   0  0  0  0  0  0  0  0  0  0  0  0
   21.2802   -5.6592    0.0000 N   0  0  0  0  0  0  0  0  0  0  0  0
   21.9885   -5.2443    0.0000 C   0  0  0  0  0  0  0  0  0  0  0  0
   21.9837   -4.4180    0.0000 N   0  0  0  0  0  0  0  0  0  0  0  0
   21.2746   -4.0146    0.0000 C   0  0  0  0  0  0  0  0  0  0  0  0
   22.6983   -5.6502    0.0000 C   0  0  0  0  0  0  0  0  0  0  0  0
   22.7002   -6.4726    0.0000 C   0  0  0  0  0  0  0  0  0  0  0  0
   23.4128   -6.8783    0.0000 C   0  0  0  0  0  0  0  0  0  0  0  0
   24.1240   -6.4669    0.0000 C   0  0  0  0  0  0  0  0  0  0  0  0
   24.1182   -5.6414    0.0000 C   0  0  0  0  0  0  0  0  0  0  0  0
   23.4050   -5.2352    0.0000 C   0  0  0  0  0  0  0  0  0  0  0  0
   21.2703   -3.1933    0.0000 N   0  0  0  0  0  0  0  0  0  0  0  0
   21.9758   -2.7769    0.0000 C   0  0  0  0  0  0  0  0  0  0  0  0
   22.6852   -3.1892    0.0000 C   0  0  0  0  0  0  0  0  0  0  0  0
   23.3944   -2.7734    0.0000 C   0  0  0  0  0  0  0  0  0  0  0  0
   23.3905   -1.9512    0.0000 C   0  0  0  0  0  0  0  0  0  0  0  0
   22.6716   -1.5466    0.0000 C   0  0  0  0  0  0  0  0  0  0  0  0
   21.9653   -1.9606    0.0000 C   0  0  0  0  0  0  0  0  0  0  0  0
   23.4159   -7.6988    0.0000 N   0  0  0  0  0  0  0  0  0  0  0  0
   24.1250   -8.1050    0.0000 O   0  0  0  0  0  0  0  0  0  0  0  0
   22.7096   -8.1098    0.0000 O   0  0  0  0  0  0  0  0  0  0  0  0
   22.6621   -0.7295    0.0000 N   0  0  0  0  0  0  0  0  0  0  0  0
   21.9508   -0.3272    0.0000 O   0  0  0  0  0  0  0  0  0  0  0  0
   23.3662   -0.3147    0.0000 O   0  0  0  0  0  0  0  0  0  0  0  0
   24.0950   -1.5371    0.0000 O   0  0  0  0  0  0  0  0  0  0  0  0
  1  2  2  0
  2  3  1  0
  3  6  2  0
  5  4  2  0
  4  1  1  0
  5  6  1  0
  6  7  1  0
  7  8  2  0
  8  9  1  0
  9 10  2  0
 10  5  1  0
 11 12  2  0
 12 13  1  0
 13 14  2  0
 14 15  1  0
 15 16  2  0
 16 11  1  0
  8 11  1  0
 10 17  1  0
 17 18  1  0
 18 19  2  0
 19 20  1  0
 20 21  2  0
 21 22  1  0
 22 23  2  0
 23 18  1  0
 24 25  2  0
 24 26  1  0
 13 24  1  0
 27 28  2  0
 27 29  1  0
 22 27  1  0
 21 30  1  0
M  CHG  4  24   1  26  -1  27   1  29  -1
M  END
>  <Classification>  (591) 
1

>  <pchembl>  (591) 
6.82

>  <InChI_steorem>  (591) 
InChI=1S/C20H13N5O5/c26-18-9-8-13(11-17(18)25(29)30)21-20-15-6-1-2-7-16(15)22-19(23-20)12-4-3-5-14(10-12)24(27)28/h1-11,26H,(H,21,22,23)

>  <source>  (591) 
ChEMBL26

>  <source_id>  (591) 
26

>  <optional_reference>  (591) 
10.1016/j.ejmech.2017.08.020

>  <optional_origin>  (591) 
None

>  <target>  (591) 
BCRP

$$$$

     RDKit          2D

 30 33  0  0  0  0  0  0  0  0999 V2000
   21.1836   -5.6666    0.0000 C   0  0  0  0  0  0  0  0  0  0  0  0
   21.1825   -6.4903    0.0000 C   0  0  0  0  0  0  0  0  0  0  0  0
   21.8947   -6.8993    0.0000 C   0  0  0  0  0  0  0  0  0  0  0  0
   21.8929   -5.2537    0.0000 C   0  0  0  0  0  0  0  0  0  0  0  0
   22.6056   -5.6630    0.0000 C   0  0  0  0  0  0  0  0  0  0  0  0
   22.6064   -6.4862    0.0000 C   0  0  0  0  0  0  0  0  0  0  0  0
   23.3191   -6.8933    0.0000 N   0  0  0  0  0  0  0  0  0  0  0  0
   24.0314   -6.4824    0.0000 C   0  0  0  0  0  0  0  0  0  0  0  0
   24.0267   -5.6562    0.0000 N   0  0  0  0  0  0  0  0  0  0  0  0
   23.3135   -5.2487    0.0000 C   0  0  0  0  0  0  0  0  0  0  0  0
   23.3091   -4.4274    0.0000 N   0  0  0  0  0  0  0  0  0  0  0  0
   24.0188   -4.0150    0.0000 C   0  0  0  0  0  0  0  0  0  0  0  0
   24.7282   -4.4233    0.0000 C   0  0  0  0  0  0  0  0  0  0  0  0
   25.4374   -4.0116    0.0000 C   0  0  0  0  0  0  0  0  0  0  0  0
   25.4335   -3.1894    0.0000 C   0  0  0  0  0  0  0  0  0  0  0  0
   24.7145   -2.7806    0.0000 C   0  0  0  0  0  0  0  0  0  0  0  0
   24.0083   -3.1988    0.0000 C   0  0  0  0  0  0  0  0  0  0  0  0
   24.7449   -6.8883    0.0000 C   0  0  0  0  0  0  0  0  0  0  0  0
   24.7432   -7.7066    0.0000 C   0  0  0  0  0  0  0  0  0  0  0  0
   25.4557   -8.1165    0.0000 C   0  0  0  0  0  0  0  0  0  0  0  0
   26.1670   -7.7010    0.0000 C   0  0  0  0  0  0  0  0  0  0  0  0
   26.1570   -6.8755    0.0000 C   0  0  0  0  0  0  0  0  0  0  0  0
   25.4480   -6.4734    0.0000 C   0  0  0  0  0  0  0  0  0  0  0  0
   20.4751   -5.2543    0.0000 N   0  0  0  0  0  0  0  0  0  0  0  0
   19.7634   -5.6672    0.0000 O   0  0  0  0  0  0  0  0  0  0  0  0
   20.4749   -4.4330    0.0000 O   0  0  0  0  0  0  0  0  0  0  0  0
   25.4585   -8.9378    0.0000 O   0  0  0  0  0  0  0  0  0  0  0  0
   26.1386   -2.7738    0.0000 C   0  0  0  0  0  0  0  0  0  0  0  0
   26.8477   -2.3606    0.0000 N   0  0  0  0  0  0  0  0  0  0  0  0
   26.1717   -9.3440    0.0000 C   0  0  0  0  0  0  0  0  0  0  0  0
  1  2  2  0
  2  3  1  0
  3  6  2  0
  5  4  2  0
  4  1  1  0
  5  6  1  0
  6  7  1  0
  7  8  2  0
  8  9  1  0
  9 10  2  0
 10  5  1  0
 10 11  1  0
 11 12  1  0
 12 13  2  0
 13 14  1  0
 14 15  2  0
 15 16  1  0
 16 17  2  0
 17 12  1  0
  8 18  1  0
 18 19  2  0
 19 20  1  0
 20 21  2  0
 21 22  1  0
 22 23  2  0
 23 18  1  0
 24 25  2  0
 24 26  1  0
  1 24  1  0
 20 27  1  0
 28 29  3  0
 15 28  1  0
 27 30  1  0
M  CHG  2  24   1  26  -1
M  END
>  <Classification>  (592) 
1

>  <pchembl>  (592) 
7.56

>  <InChI_steorem>  (592) 
InChI=1S/C22H15N5O3/c1-30-18-4-2-3-15(11-18)21-25-20-10-9-17(27(28)29)12-19(20)22(26-21)24-16-7-5-14(13-23)6-8-16/h2-12H,1H3,(H,24,25,26)

>  <source>  (592) 
ChEMBL26

>  <source_id>  (592) 
26

>  <optional_reference>  (592) 
10.1021/acs.jmedchem.8b01011

>  <optional_origin>  (592) 
None

>  <target>  (592) 
BCRP

$$$$

     RDKit          2D

 30 33  0  0  0  0  0  0  0  0999 V2000
   27.1846  -11.6140    0.0000 C   0  0  0  0  0  0  0  0  0  0  0  0
   27.1835  -12.4335    0.0000 C   0  0  0  0  0  0  0  0  0  0  0  0
   27.8915  -12.8425    0.0000 C   0  0  0  0  0  0  0  0  0  0  0  0
   27.8897  -11.2051    0.0000 C   0  0  0  0  0  0  0  0  0  0  0  0
   28.5984  -11.6104    0.0000 C   0  0  0  0  0  0  0  0  0  0  0  0
   28.5991  -12.4294    0.0000 C   0  0  0  0  0  0  0  0  0  0  0  0
   29.3077  -12.8365    0.0000 N   0  0  0  0  0  0  0  0  0  0  0  0
   30.0159  -12.4256    0.0000 C   0  0  0  0  0  0  0  0  0  0  0  0
   30.0112  -11.6035    0.0000 N   0  0  0  0  0  0  0  0  0  0  0  0
   29.3021  -11.2002    0.0000 C   0  0  0  0  0  0  0  0  0  0  0  0
   29.2977  -10.3830    0.0000 N   0  0  0  0  0  0  0  0  0  0  0  0
   30.0033   -9.9706    0.0000 C   0  0  0  0  0  0  0  0  0  0  0  0
   30.7086  -10.3788    0.0000 C   0  0  0  0  0  0  0  0  0  0  0  0
   31.4136   -9.9672    0.0000 C   0  0  0  0  0  0  0  0  0  0  0  0
   31.4097   -9.1491    0.0000 C   0  0  0  0  0  0  0  0  0  0  0  0
   30.6949   -8.7445    0.0000 C   0  0  0  0  0  0  0  0  0  0  0  0
   29.9928   -9.1585    0.0000 C   0  0  0  0  0  0  0  0  0  0  0  0
   30.7252  -12.8315    0.0000 C   0  0  0  0  0  0  0  0  0  0  0  0
   30.7235  -13.6457    0.0000 C   0  0  0  0  0  0  0  0  0  0  0  0
   31.4320  -14.0515    0.0000 C   0  0  0  0  0  0  0  0  0  0  0  0
   32.1391  -13.6401    0.0000 C   0  0  0  0  0  0  0  0  0  0  0  0
   32.1332  -12.8187    0.0000 C   0  0  0  0  0  0  0  0  0  0  0  0
   31.4242  -12.4166    0.0000 C   0  0  0  0  0  0  0  0  0  0  0  0
   26.4761  -11.2058    0.0000 N   0  0  0  0  0  0  0  0  0  0  0  0
   25.7685  -11.6146    0.0000 O   0  0  0  0  0  0  0  0  0  0  0  0
   26.4759  -10.3886    0.0000 O   0  0  0  0  0  0  0  0  0  0  0  0
   30.6876   -7.9235    0.0000 N   0  0  0  0  0  0  0  0  0  0  0  0
   29.9764   -7.5211    0.0000 O   0  0  0  0  0  0  0  0  0  0  0  0
   31.3917   -7.5086    0.0000 O   0  0  0  0  0  0  0  0  0  0  0  0
   32.1147   -8.7359    0.0000 O   0  0  0  0  0  0  0  0  0  0  0  0
  1  2  2  0
  2  3  1  0
  3  6  2  0
  5  4  2  0
  4  1  1  0
  5  6  1  0
  6  7  1  0
  7  8  2  0
  8  9  1  0
  9 10  2  0
 10  5  1  0
 10 11  1  0
 11 12  1  0
 12 13  2  0
 13 14  1  0
 14 15  2  0
 15 16  1  0
 16 17  2  0
 17 12  1  0
  8 18  1  0
 18 19  2  0
 19 20  1  0
 20 21  2  0
 21 22  1  0
 22 23  2  0
 23 18  1  0
 24 25  2  0
 24 26  1  0
  1 24  1  0
 27 28  2  0
 27 29  1  0
 16 27  1  0
 15 30  1  0
M  CHG  4  24   1  26  -1  27   1  29  -1
M  END
>  <Classification>  (593) 
1

>  <pchembl>  (593) 
7.43

>  <InChI_steorem>  (593) 
InChI=1S/C20H13N5O5/c26-18-9-6-13(10-17(18)25(29)30)21-20-15-11-14(24(27)28)7-8-16(15)22-19(23-20)12-4-2-1-3-5-12/h1-11,26H,(H,21,22,23)

>  <source>  (593) 
ChEMBL26

>  <source_id>  (593) 
26

>  <optional_reference>  (593) 
10.1021/acs.jmedchem.8b01011

>  <optional_origin>  (593) 
None

>  <target>  (593) 
BCRP

$$$$

     RDKit          2D

 30 33  0  0  0  0  0  0  0  0999 V2000
   31.5554   -4.6059    0.0000 C   0  0  0  0  0  0  0  0  0  0  0  0
   31.5542   -5.4255    0.0000 C   0  0  0  0  0  0  0  0  0  0  0  0
   32.2623   -5.8345    0.0000 C   0  0  0  0  0  0  0  0  0  0  0  0
   32.2605   -4.1971    0.0000 C   0  0  0  0  0  0  0  0  0  0  0  0
   32.9691   -4.6024    0.0000 C   0  0  0  0  0  0  0  0  0  0  0  0
   32.9699   -5.4214    0.0000 C   0  0  0  0  0  0  0  0  0  0  0  0
   33.6784   -5.8284    0.0000 N   0  0  0  0  0  0  0  0  0  0  0  0
   34.3867   -5.4176    0.0000 C   0  0  0  0  0  0  0  0  0  0  0  0
   34.3819   -4.5955    0.0000 N   0  0  0  0  0  0  0  0  0  0  0  0
   33.6728   -4.1921    0.0000 C   0  0  0  0  0  0  0  0  0  0  0  0
   33.6685   -3.3749    0.0000 N   0  0  0  0  0  0  0  0  0  0  0  0
   34.3740   -2.9626    0.0000 C   0  0  0  0  0  0  0  0  0  0  0  0
   35.0793   -3.3708    0.0000 C   0  0  0  0  0  0  0  0  0  0  0  0
   35.7844   -2.9592    0.0000 C   0  0  0  0  0  0  0  0  0  0  0  0
   35.7805   -2.1411    0.0000 C   0  0  0  0  0  0  0  0  0  0  0  0
   35.0656   -1.7365    0.0000 C   0  0  0  0  0  0  0  0  0  0  0  0
   34.3635   -2.1504    0.0000 C   0  0  0  0  0  0  0  0  0  0  0  0
   35.0959   -5.8235    0.0000 C   0  0  0  0  0  0  0  0  0  0  0  0
   35.0942   -6.6377    0.0000 C   0  0  0  0  0  0  0  0  0  0  0  0
   35.8027   -7.0434    0.0000 C   0  0  0  0  0  0  0  0  0  0  0  0
   36.5098   -6.6320    0.0000 C   0  0  0  0  0  0  0  0  0  0  0  0
   36.5040   -5.8106    0.0000 C   0  0  0  0  0  0  0  0  0  0  0  0
   35.7949   -5.4086    0.0000 C   0  0  0  0  0  0  0  0  0  0  0  0
   30.8469   -4.1978    0.0000 N   0  0  0  0  0  0  0  0  0  0  0  0
   30.1393   -4.6065    0.0000 O   0  0  0  0  0  0  0  0  0  0  0  0
   30.8467   -3.3806    0.0000 O   0  0  0  0  0  0  0  0  0  0  0  0
   35.0584   -0.9193    0.0000 O   0  0  0  0  0  0  0  0  0  0  0  0
   36.4854   -1.7237    0.0000 O   0  0  0  0  0  0  0  0  0  0  0  0
   35.7625   -0.5045    0.0000 C   0  0  0  0  0  0  0  0  0  0  0  0
   37.1958   -2.1317    0.0000 C   0  0  0  0  0  0  0  0  0  0  0  0
  1  2  2  0
  2  3  1  0
  3  6  2  0
  5  4  2  0
  4  1  1  0
  5  6  1  0
  6  7  1  0
  7  8  2  0
  8  9  1  0
  9 10  2  0
 10  5  1  0
 10 11  1  0
 11 12  1  0
 12 13  2  0
 13 14  1  0
 14 15  2  0
 15 16  1  0
 16 17  2  0
 17 12  1  0
  8 18  1  0
 18 19  2  0
 19 20  1  0
 20 21  2  0
 21 22  1  0
 22 23  2  0
 23 18  1  0
 24 25  2  0
 24 26  1  0
  1 24  1  0
 16 27  1  0
 15 28  1  0
 27 29  1  0
 28 30  1  0
M  CHG  2  24   1  26  -1
M  END
>  <Classification>  (594) 
1

>  <pchembl>  (594) 
7.43

>  <InChI_steorem>  (594) 
InChI=1S/C22H18N4O4/c1-29-19-11-8-15(12-20(19)30-2)23-22-17-13-16(26(27)28)9-10-18(17)24-21(25-22)14-6-4-3-5-7-14/h3-13H,1-2H3,(H,23,24,25)

>  <source>  (594) 
ChEMBL26

>  <source_id>  (594) 
26

>  <optional_reference>  (594) 
10.1021/acs.jmedchem.8b01011

>  <optional_origin>  (594) 
None

>  <target>  (594) 
BCRP

$$$$

     RDKit          2D

 30 33  0  0  0  0  0  0  0  0999 V2000
   32.1887  -18.4097    0.0000 C   0  0  0  0  0  0  0  0  0  0  0  0
   32.1875  -19.2376    0.0000 C   0  0  0  0  0  0  0  0  0  0  0  0
   32.9034  -19.6486    0.0000 C   0  0  0  0  0  0  0  0  0  0  0  0
   32.9015  -17.9946    0.0000 C   0  0  0  0  0  0  0  0  0  0  0  0
   33.6180  -18.4061    0.0000 C   0  0  0  0  0  0  0  0  0  0  0  0
   33.6187  -19.2334    0.0000 C   0  0  0  0  0  0  0  0  0  0  0  0
   34.3350  -19.6426    0.0000 N   0  0  0  0  0  0  0  0  0  0  0  0
   35.0468  -19.2297    0.0000 C   0  0  0  0  0  0  0  0  0  0  0  0
   35.0421  -18.3992    0.0000 N   0  0  0  0  0  0  0  0  0  0  0  0
   34.3294  -17.9896    0.0000 C   0  0  0  0  0  0  0  0  0  0  0  0
   34.3250  -17.1641    0.0000 N   0  0  0  0  0  0  0  0  0  0  0  0
   35.0341  -16.7497    0.0000 C   0  0  0  0  0  0  0  0  0  0  0  0
   35.7471  -17.1600    0.0000 C   0  0  0  0  0  0  0  0  0  0  0  0
   36.4599  -16.7463    0.0000 C   0  0  0  0  0  0  0  0  0  0  0  0
   36.4560  -15.9199    0.0000 C   0  0  0  0  0  0  0  0  0  0  0  0
   35.7334  -15.5091    0.0000 C   0  0  0  0  0  0  0  0  0  0  0  0
   35.0236  -15.9293    0.0000 C   0  0  0  0  0  0  0  0  0  0  0  0
   35.7639  -19.6375    0.0000 C   0  0  0  0  0  0  0  0  0  0  0  0
   35.7622  -20.4601    0.0000 C   0  0  0  0  0  0  0  0  0  0  0  0
   36.4783  -20.8721    0.0000 C   0  0  0  0  0  0  0  0  0  0  0  0
   37.1933  -20.4544    0.0000 C   0  0  0  0  0  0  0  0  0  0  0  0
   37.1873  -19.6247    0.0000 C   0  0  0  0  0  0  0  0  0  0  0  0
   36.4706  -19.2205    0.0000 C   0  0  0  0  0  0  0  0  0  0  0  0
   31.4724  -17.9953    0.0000 N   0  0  0  0  0  0  0  0  0  0  0  0
   30.7571  -18.4103    0.0000 O   0  0  0  0  0  0  0  0  0  0  0  0
   31.4722  -17.1699    0.0000 O   0  0  0  0  0  0  0  0  0  0  0  0
   37.8997  -19.2088    0.0000 C   0  0  0  0  0  0  0  0  0  0  0  0
   38.6183  -19.6141    0.0000 F   0  0  0  0  0  0  0  0  0  0  0  0
   37.8937  -18.3833    0.0000 F   0  0  0  0  0  0  0  0  0  0  0  0
   38.6115  -18.7872    0.0000 F   0  0  0  0  0  0  0  0  0  0  0  0
  1  2  2  0
  2  3  1  0
  3  6  2  0
  5  4  2  0
  4  1  1  0
  5  6  1  0
  6  7  1  0
  7  8  2  0
  8  9  1  0
  9 10  2  0
 10  5  1  0
 10 11  1  0
 11 12  1  0
 12 13  2  0
 13 14  1  0
 14 15  2  0
 15 16  1  0
 16 17  2  0
 17 12  1  0
  8 18  1  0
 18 19  2  0
 19 20  1  0
 20 21  2  0
 21 22  1  0
 22 23  2  0
 23 18  1  0
 24 25  2  0
 24 26  1  0
  1 24  1  0
 22 27  1  0
 27 28  1  0
 27 29  1  0
 27 30  1  0
M  CHG  2  24   1  26  -1
M  END
>  <Classification>  (595) 
1

>  <pchembl>  (595) 
7.22

>  <InChI_steorem>  (595) 
InChI=1S/C21H13F3N4O2/c22-21(23,24)14-6-4-5-13(11-14)19-26-18-10-9-16(28(29)30)12-17(18)20(27-19)25-15-7-2-1-3-8-15/h1-12H,(H,25,26,27)

>  <source>  (595) 
ChEMBL26

>  <source_id>  (595) 
26

>  <optional_reference>  (595) 
10.1021/acs.jmedchem.8b01011

>  <optional_origin>  (595) 
None

>  <target>  (595) 
BCRP

$$$$

     RDKit          2D

 30 33  0  0  0  0  0  0  0  0999 V2000
   34.9067  -11.7915    0.0000 C   0  0  0  0  0  0  0  0  0  0  0  0
   34.9055  -12.6110    0.0000 C   0  0  0  0  0  0  0  0  0  0  0  0
   35.6136  -13.0200    0.0000 C   0  0  0  0  0  0  0  0  0  0  0  0
   35.6118  -11.3826    0.0000 C   0  0  0  0  0  0  0  0  0  0  0  0
   36.3204  -11.7879    0.0000 C   0  0  0  0  0  0  0  0  0  0  0  0
   36.3212  -12.6069    0.0000 C   0  0  0  0  0  0  0  0  0  0  0  0
   37.0297  -13.0139    0.0000 N   0  0  0  0  0  0  0  0  0  0  0  0
   37.7380  -12.6031    0.0000 C   0  0  0  0  0  0  0  0  0  0  0  0
   37.7332  -11.7810    0.0000 N   0  0  0  0  0  0  0  0  0  0  0  0
   37.0241  -11.3776    0.0000 C   0  0  0  0  0  0  0  0  0  0  0  0
   37.0198  -10.5604    0.0000 N   0  0  0  0  0  0  0  0  0  0  0  0
   37.7253  -10.1481    0.0000 C   0  0  0  0  0  0  0  0  0  0  0  0
   38.4306  -10.5563    0.0000 C   0  0  0  0  0  0  0  0  0  0  0  0
   39.1357  -10.1447    0.0000 C   0  0  0  0  0  0  0  0  0  0  0  0
   39.1318   -9.3266    0.0000 C   0  0  0  0  0  0  0  0  0  0  0  0
   38.4169   -8.9220    0.0000 C   0  0  0  0  0  0  0  0  0  0  0  0
   37.7148   -9.3359    0.0000 C   0  0  0  0  0  0  0  0  0  0  0  0
   38.4473  -13.0090    0.0000 C   0  0  0  0  0  0  0  0  0  0  0  0
   38.4455  -13.8232    0.0000 C   0  0  0  0  0  0  0  0  0  0  0  0
   39.1540  -14.2289    0.0000 C   0  0  0  0  0  0  0  0  0  0  0  0
   39.8611  -13.8175    0.0000 C   0  0  0  0  0  0  0  0  0  0  0  0
   39.8553  -12.9961    0.0000 C   0  0  0  0  0  0  0  0  0  0  0  0
   39.1463  -12.5941    0.0000 C   0  0  0  0  0  0  0  0  0  0  0  0
   34.1982  -11.3833    0.0000 N   0  0  0  0  0  0  0  0  0  0  0  0
   33.4906  -11.7920    0.0000 O   0  0  0  0  0  0  0  0  0  0  0  0
   34.1980  -10.5661    0.0000 O   0  0  0  0  0  0  0  0  0  0  0  0
   38.4097   -8.1048    0.0000 N   0  0  0  0  0  0  0  0  0  0  0  0
   39.1138   -7.6858    0.0000 C   0  0  0  0  0  0  0  0  0  0  0  0
   39.1066   -6.8687    0.0000 C   0  0  0  0  0  0  0  0  0  0  0  0
   39.8251   -8.0923    0.0000 O   0  0  0  0  0  0  0  0  0  0  0  0
  1  2  2  0
  2  3  1  0
  3  6  2  0
  5  4  2  0
  4  1  1  0
  5  6  1  0
  6  7  1  0
  7  8  2  0
  8  9  1  0
  9 10  2  0
 10  5  1  0
 10 11  1  0
 11 12  1  0
 12 13  2  0
 13 14  1  0
 14 15  2  0
 15 16  1  0
 16 17  2  0
 17 12  1  0
  8 18  1  0
 18 19  2  0
 19 20  1  0
 20 21  2  0
 21 22  1  0
 22 23  2  0
 23 18  1  0
 24 25  2  0
 24 26  1  0
  1 24  1  0
 16 27  1  0
 27 28  1  0
 28 29  1  0
 28 30  2  0
M  CHG  2  24   1  26  -1
M  END
>  <Classification>  (596) 
1

>  <pchembl>  (596) 
7.1

>  <InChI_steorem>  (596) 
InChI=1S/C22H17N5O3/c1-14(28)23-16-8-5-9-17(12-16)24-22-19-13-18(27(29)30)10-11-20(19)25-21(26-22)15-6-3-2-4-7-15/h2-13H,1H3,(H,23,28)(H,24,25,26)

>  <source>  (596) 
ChEMBL26

>  <source_id>  (596) 
26

>  <optional_reference>  (596) 
10.1021/acs.jmedchem.8b01011

>  <optional_origin>  (596) 
None

>  <target>  (596) 
BCRP

$$$$

     RDKit          2D

 30 33  0  0  0  0  0  0  0  0999 V2000
   36.3966  -12.8645    0.0000 C   0  0  0  0  0  0  0  0  0  0  0  0
   36.3955  -13.6841    0.0000 C   0  0  0  0  0  0  0  0  0  0  0  0
   37.1035  -14.0930    0.0000 C   0  0  0  0  0  0  0  0  0  0  0  0
   37.1017  -12.4557    0.0000 C   0  0  0  0  0  0  0  0  0  0  0  0
   37.8103  -12.8609    0.0000 C   0  0  0  0  0  0  0  0  0  0  0  0
   37.8111  -13.6799    0.0000 C   0  0  0  0  0  0  0  0  0  0  0  0
   38.5196  -14.0870    0.0000 N   0  0  0  0  0  0  0  0  0  0  0  0
   39.2279  -13.6762    0.0000 C   0  0  0  0  0  0  0  0  0  0  0  0
   39.2232  -12.8541    0.0000 N   0  0  0  0  0  0  0  0  0  0  0  0
   38.5141  -12.4507    0.0000 C   0  0  0  0  0  0  0  0  0  0  0  0
   38.5097  -11.6335    0.0000 N   0  0  0  0  0  0  0  0  0  0  0  0
   39.2153  -11.2212    0.0000 C   0  0  0  0  0  0  0  0  0  0  0  0
   39.9205  -11.6294    0.0000 C   0  0  0  0  0  0  0  0  0  0  0  0
   40.6256  -11.2177    0.0000 C   0  0  0  0  0  0  0  0  0  0  0  0
   40.6217  -10.3997    0.0000 C   0  0  0  0  0  0  0  0  0  0  0  0
   39.9069   -9.9950    0.0000 C   0  0  0  0  0  0  0  0  0  0  0  0
   39.2047  -10.4090    0.0000 C   0  0  0  0  0  0  0  0  0  0  0  0
   39.9372  -14.0820    0.0000 C   0  0  0  0  0  0  0  0  0  0  0  0
   39.9355  -14.8963    0.0000 C   0  0  0  0  0  0  0  0  0  0  0  0
   40.6439  -15.3020    0.0000 C   0  0  0  0  0  0  0  0  0  0  0  0
   41.3510  -14.8906    0.0000 C   0  0  0  0  0  0  0  0  0  0  0  0
   41.3452  -14.0692    0.0000 C   0  0  0  0  0  0  0  0  0  0  0  0
   40.6362  -13.6672    0.0000 C   0  0  0  0  0  0  0  0  0  0  0  0
   35.6888  -12.4561    0.0000 N   0  0  0  0  0  0  0  0  0  0  0  0
   42.0499  -13.6554    0.0000 C   0  0  0  0  0  0  0  0  0  0  0  0
   42.7606  -14.0628    0.0000 F   0  0  0  0  0  0  0  0  0  0  0  0
   42.0438  -12.8382    0.0000 F   0  0  0  0  0  0  0  0  0  0  0  0
   42.7540  -13.2443    0.0000 F   0  0  0  0  0  0  0  0  0  0  0  0
   39.8996   -9.1779    0.0000 O   0  0  0  0  0  0  0  0  0  0  0  0
   40.6037   -8.7630    0.0000 C   0  0  0  0  0  0  0  0  0  0  0  0
  1  2  2  0
  2  3  1  0
  3  6  2  0
  5  4  2  0
  4  1  1  0
  5  6  1  0
  6  7  1  0
  7  8  2  0
  8  9  1  0
  9 10  2  0
 10  5  1  0
 10 11  1  0
 11 12  1  0
 12 13  2  0
 13 14  1  0
 14 15  2  0
 15 16  1  0
 16 17  2  0
 17 12  1  0
  8 18  1  0
 18 19  2  0
 19 20  1  0
 20 21  2  0
 21 22  1  0
 22 23  2  0
 23 18  1  0
  1 24  1  0
 22 25  1  0
 25 26  1  0
 25 27  1  0
 25 28  1  0
 16 29  1  0
 29 30  1  0
M  END
>  <Classification>  (597) 
1

>  <pchembl>  (597) 
6.08

>  <InChI_steorem>  (597) 
InChI=1S/C22H17F3N4O/c1-30-17-7-3-6-16(12-17)27-21-18-11-15(26)8-9-19(18)28-20(29-21)13-4-2-5-14(10-13)22(23,24)25/h2-12H,26H2,1H3,(H,27,28,29)

>  <source>  (597) 
ChEMBL26

>  <source_id>  (597) 
26

>  <optional_reference>  (597) 
10.1021/acs.jmedchem.8b01011

>  <optional_origin>  (597) 
None

>  <target>  (597) 
BCRP

$$$$

     RDKit          2D

 30 33  0  0  0  0  0  0  0  0999 V2000
   36.9043   -3.4421    0.0000 C   0  0  0  0  0  0  0  0  0  0  0  0
   36.9031   -4.2657    0.0000 C   0  0  0  0  0  0  0  0  0  0  0  0
   37.6153   -4.6788    0.0000 C   0  0  0  0  0  0  0  0  0  0  0  0
   38.3291   -4.2653    0.0000 C   0  0  0  0  0  0  0  0  0  0  0  0
   38.3262   -3.4385    0.0000 C   0  0  0  0  0  0  0  0  0  0  0  0
   37.6135   -3.0332    0.0000 C   0  0  0  0  0  0  0  0  0  0  0  0
   39.0365   -3.0272    0.0000 N   0  0  0  0  0  0  0  0  0  0  0  0
   39.7881   -3.3543    0.0000 C   0  0  0  0  0  0  0  0  0  0  0  0
   40.3367   -2.7408    0.0000 C   0  0  0  0  0  0  0  0  0  0  0  0
   39.9213   -2.0304    0.0000 N   0  0  0  0  0  0  0  0  0  0  0  0
   39.1185   -2.2076    0.0000 N   0  0  0  0  0  0  0  0  0  0  0  0
   41.1567   -2.7405    0.0000 C   0  0  0  0  0  0  0  0  0  0  0  0
   41.5631   -3.4533    0.0000 C   0  0  0  0  0  0  0  0  0  0  0  0
   42.3823   -3.4534    0.0000 C   0  0  0  0  0  0  0  0  0  0  0  0
   42.7950   -2.7420    0.0000 C   0  0  0  0  0  0  0  0  0  0  0  0
   42.3783   -2.0291    0.0000 C   0  0  0  0  0  0  0  0  0  0  0  0
   41.5603   -2.0325    0.0000 C   0  0  0  0  0  0  0  0  0  0  0  0
   39.0416   -4.6769    0.0000 N   0  0  0  0  0  0  0  0  0  0  0  0
   39.0428   -5.4982    0.0000 C   0  0  0  0  0  0  0  0  0  0  0  0
   39.7553   -5.9057    0.0000 C   0  0  0  0  0  0  0  0  0  0  0  0
   38.3316   -5.9079    0.0000 O   0  0  0  0  0  0  0  0  0  0  0  0
   39.7520   -6.7243    0.0000 C   0  0  0  0  0  0  0  0  0  0  0  0
   40.4636   -7.1359    0.0000 C   0  0  0  0  0  0  0  0  0  0  0  0
   41.1758   -6.7220    0.0000 C   0  0  0  0  0  0  0  0  0  0  0  0
   41.1719   -5.8964    0.0000 C   0  0  0  0  0  0  0  0  0  0  0  0
   40.4597   -5.4927    0.0000 C   0  0  0  0  0  0  0  0  0  0  0  0
   43.6163   -2.7406    0.0000 O   0  0  0  0  0  0  0  0  0  0  0  0
   44.0261   -3.4517    0.0000 C   0  0  0  0  0  0  0  0  0  0  0  0
   41.8851   -7.1279    0.0000 O   0  0  0  0  0  0  0  0  0  0  0  0
   41.8882   -7.9451    0.0000 C   0  0  0  0  0  0  0  0  0  0  0  0
  1  2  2  0
  2  3  1  0
  3  4  2  0
  4  5  1  0
  5  6  2  0
  6  1  1  0
  5  7  1  0
  7  8  1  0
  8  9  2  0
  9 10  1  0
 10 11  2  0
 11  7  1  0
  9 12  1  0
 12 13  2  0
 13 14  1  0
 14 15  2  0
 15 16  1  0
 16 17  2  0
 17 12  1  0
  4 18  1  0
 18 19  1  0
 19 20  1  0
 19 21  2  0
 20 22  2  0
 22 23  1  0
 23 24  2  0
 24 25  1  0
 25 26  2  0
 26 20  1  0
 15 27  1  0
 27 28  1  0
 24 29  1  0
 29 30  1  0
M  END
>  <Classification>  (598) 
1

>  <pchembl>  (598) 
5.63

>  <InChI_steorem>  (598) 
InChI=1S/C23H20N4O3/c1-29-18-11-7-16(8-12-18)21-15-27(26-25-21)22-6-4-3-5-20(22)24-23(28)17-9-13-19(30-2)14-10-17/h3-15H,1-2H3,(H,24,28)

>  <source>  (598) 
ChEMBL26

>  <source_id>  (598) 
26

>  <optional_reference>  (598) 
10.1016/j.ejmech.2018.01.012

>  <optional_origin>  (598) 
None

>  <target>  (598) 
BCRP

$$$$

     RDKit          2D

 30 33  0  0  0  0  0  0  0  0999 V2000
   38.1837   -4.0488    0.0000 C   0  0  0  0  0  0  0  0  0  0  0  0
   38.1826   -4.8724    0.0000 C   0  0  0  0  0  0  0  0  0  0  0  0
   38.8947   -5.2855    0.0000 C   0  0  0  0  0  0  0  0  0  0  0  0
   38.8929   -3.6399    0.0000 C   0  0  0  0  0  0  0  0  0  0  0  0
   39.6057   -4.0452    0.0000 C   0  0  0  0  0  0  0  0  0  0  0  0
   39.6064   -4.8683    0.0000 C   0  0  0  0  0  0  0  0  0  0  0  0
   40.3191   -5.2795    0.0000 N   0  0  0  0  0  0  0  0  0  0  0  0
   41.0274   -4.8646    0.0000 C   0  0  0  0  0  0  0  0  0  0  0  0
   41.0226   -4.0383    0.0000 N   0  0  0  0  0  0  0  0  0  0  0  0
   40.3135   -3.6349    0.0000 C   0  0  0  0  0  0  0  0  0  0  0  0
   41.7372   -5.2705    0.0000 C   0  0  0  0  0  0  0  0  0  0  0  0
   41.7391   -6.0929    0.0000 C   0  0  0  0  0  0  0  0  0  0  0  0
   42.4517   -6.4986    0.0000 C   0  0  0  0  0  0  0  0  0  0  0  0
   43.1629   -6.0872    0.0000 C   0  0  0  0  0  0  0  0  0  0  0  0
   43.1571   -5.2617    0.0000 C   0  0  0  0  0  0  0  0  0  0  0  0
   42.4439   -4.8555    0.0000 C   0  0  0  0  0  0  0  0  0  0  0  0
   40.3092   -2.8136    0.0000 N   0  0  0  0  0  0  0  0  0  0  0  0
   41.0147   -2.3972    0.0000 C   0  0  0  0  0  0  0  0  0  0  0  0
   41.7241   -2.8095    0.0000 C   0  0  0  0  0  0  0  0  0  0  0  0
   42.4333   -2.3937    0.0000 C   0  0  0  0  0  0  0  0  0  0  0  0
   42.4294   -1.5715    0.0000 C   0  0  0  0  0  0  0  0  0  0  0  0
   41.7105   -1.1669    0.0000 C   0  0  0  0  0  0  0  0  0  0  0  0
   41.0042   -1.5809    0.0000 C   0  0  0  0  0  0  0  0  0  0  0  0
   42.4548   -7.3191    0.0000 N   0  0  0  0  0  0  0  0  0  0  0  0
   43.1639   -7.7253    0.0000 O   0  0  0  0  0  0  0  0  0  0  0  0
   41.7485   -7.7300    0.0000 O   0  0  0  0  0  0  0  0  0  0  0  0
   41.7033   -0.3497    0.0000 O   0  0  0  0  0  0  0  0  0  0  0  0
   43.1339   -1.1574    0.0000 O   0  0  0  0  0  0  0  0  0  0  0  0
   43.8448   -1.5604    0.0000 C   0  0  0  0  0  0  0  0  0  0  0  0
   42.4074    0.0651    0.0000 C   0  0  0  0  0  0  0  0  0  0  0  0
  1  2  2  0
  2  3  1  0
  3  6  2  0
  5  4  2  0
  4  1  1  0
  5  6  1  0
  6  7  1  0
  7  8  2  0
  8  9  1  0
  9 10  2  0
 10  5  1  0
 11 12  2  0
 12 13  1  0
 13 14  2  0
 14 15  1  0
 15 16  2  0
 16 11  1  0
  8 11  1  0
 10 17  1  0
 17 18  1  0
 18 19  2  0
 19 20  1  0
 20 21  2  0
 21 22  1  0
 22 23  2  0
 23 18  1  0
 24 25  2  0
 24 26  1  0
 13 24  1  0
 22 27  1  0
 21 28  1  0
 28 29  1  0
 27 30  1  0
M  CHG  2  24   1  26  -1
M  END
>  <Classification>  (599) 
1

>  <pchembl>  (599) 
7.25

>  <InChI_steorem>  (599) 
InChI=1S/C22H18N4O4/c1-29-19-11-10-15(13-20(19)30-2)23-22-17-8-3-4-9-18(17)24-21(25-22)14-6-5-7-16(12-14)26(27)28/h3-13H,1-2H3,(H,23,24,25)

>  <source>  (599) 
ChEMBL26

>  <source_id>  (599) 
26

>  <optional_reference>  (599) 
10.1016/j.ejmech.2017.08.020

>  <optional_origin>  (599) 
None

>  <target>  (599) 
BCRP

$$$$

     RDKit          2D

 30 33  0  0  0  0  0  0  0  0999 V2000
   41.1429  -18.7335    0.0000 C   0  0  0  0  0  0  0  0  0  0  0  0
   41.1418  -19.5571    0.0000 C   0  0  0  0  0  0  0  0  0  0  0  0
   41.8540  -19.9702    0.0000 C   0  0  0  0  0  0  0  0  0  0  0  0
   41.8522  -18.3246    0.0000 C   0  0  0  0  0  0  0  0  0  0  0  0
   42.5649  -18.7299    0.0000 C   0  0  0  0  0  0  0  0  0  0  0  0
   42.5657  -19.5530    0.0000 C   0  0  0  0  0  0  0  0  0  0  0  0
   43.2783  -19.9642    0.0000 N   0  0  0  0  0  0  0  0  0  0  0  0
   43.9866  -19.5492    0.0000 C   0  0  0  0  0  0  0  0  0  0  0  0
   43.9819  -18.7230    0.0000 N   0  0  0  0  0  0  0  0  0  0  0  0
   43.2728  -18.3196    0.0000 C   0  0  0  0  0  0  0  0  0  0  0  0
   44.6965  -19.9551    0.0000 C   0  0  0  0  0  0  0  0  0  0  0  0
   44.6983  -20.7776    0.0000 C   0  0  0  0  0  0  0  0  0  0  0  0
   45.4109  -21.1833    0.0000 C   0  0  0  0  0  0  0  0  0  0  0  0
   46.1221  -20.7719    0.0000 C   0  0  0  0  0  0  0  0  0  0  0  0
   46.1163  -19.9464    0.0000 C   0  0  0  0  0  0  0  0  0  0  0  0
   45.4031  -19.5402    0.0000 C   0  0  0  0  0  0  0  0  0  0  0  0
   43.2684  -17.4983    0.0000 N   0  0  0  0  0  0  0  0  0  0  0  0
   43.9740  -17.0818    0.0000 C   0  0  0  0  0  0  0  0  0  0  0  0
   44.6834  -17.4942    0.0000 C   0  0  0  0  0  0  0  0  0  0  0  0
   45.3925  -17.0784    0.0000 C   0  0  0  0  0  0  0  0  0  0  0  0
   45.3886  -16.2562    0.0000 C   0  0  0  0  0  0  0  0  0  0  0  0
   44.6697  -15.8516    0.0000 C   0  0  0  0  0  0  0  0  0  0  0  0
   43.9634  -16.2656    0.0000 C   0  0  0  0  0  0  0  0  0  0  0  0
   46.8314  -21.1777    0.0000 O   0  0  0  0  0  0  0  0  0  0  0  0
   46.8346  -21.9949    0.0000 C   0  0  0  0  0  0  0  0  0  0  0  0
   46.8213  -19.5332    0.0000 O   0  0  0  0  0  0  0  0  0  0  0  0
   47.5317  -19.9373    0.0000 C   0  0  0  0  0  0  0  0  0  0  0  0
   46.1026  -17.4830    0.0000 O   0  0  0  0  0  0  0  0  0  0  0  0
   46.1072  -18.3001    0.0000 C   0  0  0  0  0  0  0  0  0  0  0  0
   46.0931  -15.8421    0.0000 Br  0  0  0  0  0  0  0  0  0  0  0  0
  1  2  2  0
  2  3  1  0
  3  6  2  0
  5  4  2  0
  4  1  1  0
  5  6  1  0
  6  7  1  0
  7  8  2  0
  8  9  1  0
  9 10  2  0
 10  5  1  0
 11 12  2  0
 12 13  1  0
 13 14  2  0
 14 15  1  0
 15 16  2  0
 16 11  1  0
  8 11  1  0
 10 17  1  0
 17 18  1  0
 18 19  2  0
 19 20  1  0
 20 21  2  0
 21 22  1  0
 22 23  2  0
 23 18  1  0
 14 24  1  0
 24 25  1  0
 15 26  1  0
 26 27  1  0
 20 28  1  0
 28 29  1  0
 21 30  1  0
M  END
>  <Classification>  (600) 
1

>  <pchembl>  (600) 
7.32

>  <InChI_steorem>  (600) 
InChI=1S/C23H20BrN3O3/c1-28-19-11-8-14(12-21(19)30-3)22-26-18-7-5-4-6-16(18)23(27-22)25-15-9-10-17(24)20(13-15)29-2/h4-13H,1-3H3,(H,25,26,27)

>  <source>  (600) 
ChEMBL26

>  <source_id>  (600) 
26

>  <optional_reference>  (600) 
10.1016/j.ejmech.2017.08.020

>  <optional_origin>  (600) 
None

>  <target>  (600) 
BCRP

$$$$

     RDKit          2D

 30 33  0  0  0  0  0  0  0  0999 V2000
    7.3616  -20.6939    0.0000 C   0  0  0  0  0  0  0  0  0  0  0  0
    7.3604  -21.5176    0.0000 C   0  0  0  0  0  0  0  0  0  0  0  0
    8.0726  -21.9306    0.0000 C   0  0  0  0  0  0  0  0  0  0  0  0
    8.0708  -20.2850    0.0000 C   0  0  0  0  0  0  0  0  0  0  0  0
    8.7835  -20.6903    0.0000 C   0  0  0  0  0  0  0  0  0  0  0  0
    8.7843  -21.5134    0.0000 C   0  0  0  0  0  0  0  0  0  0  0  0
    9.4970  -21.9246    0.0000 N   0  0  0  0  0  0  0  0  0  0  0  0
   10.2052  -21.5097    0.0000 C   0  0  0  0  0  0  0  0  0  0  0  0
   10.2005  -20.6834    0.0000 N   0  0  0  0  0  0  0  0  0  0  0  0
    9.4914  -20.2801    0.0000 C   0  0  0  0  0  0  0  0  0  0  0  0
   10.9151  -21.9156    0.0000 C   0  0  0  0  0  0  0  0  0  0  0  0
   10.9169  -22.7380    0.0000 C   0  0  0  0  0  0  0  0  0  0  0  0
   11.6295  -23.1438    0.0000 C   0  0  0  0  0  0  0  0  0  0  0  0
   12.3407  -22.7324    0.0000 C   0  0  0  0  0  0  0  0  0  0  0  0
   12.3349  -21.9068    0.0000 C   0  0  0  0  0  0  0  0  0  0  0  0
   11.6218  -21.5006    0.0000 C   0  0  0  0  0  0  0  0  0  0  0  0
    9.4871  -19.4587    0.0000 N   0  0  0  0  0  0  0  0  0  0  0  0
   10.1926  -19.0423    0.0000 C   0  0  0  0  0  0  0  0  0  0  0  0
   10.9020  -19.4546    0.0000 C   0  0  0  0  0  0  0  0  0  0  0  0
   11.6112  -19.0388    0.0000 C   0  0  0  0  0  0  0  0  0  0  0  0
   11.6073  -18.2167    0.0000 C   0  0  0  0  0  0  0  0  0  0  0  0
   10.8883  -17.8120    0.0000 C   0  0  0  0  0  0  0  0  0  0  0  0
   10.1821  -18.2260    0.0000 C   0  0  0  0  0  0  0  0  0  0  0  0
   11.6327  -23.9642    0.0000 N   0  0  0  0  0  0  0  0  0  0  0  0
   12.3418  -24.3704    0.0000 O   0  0  0  0  0  0  0  0  0  0  0  0
   10.9264  -24.3752    0.0000 O   0  0  0  0  0  0  0  0  0  0  0  0
   10.8811  -16.9948    0.0000 C   0  0  0  0  0  0  0  0  0  0  0  0
   11.5852  -16.5801    0.0000 F   0  0  0  0  0  0  0  0  0  0  0  0
   10.1699  -16.5925    0.0000 F   0  0  0  0  0  0  0  0  0  0  0  0
   10.8752  -16.1746    0.0000 F   0  0  0  0  0  0  0  0  0  0  0  0
  1  2  2  0
  2  3  1  0
  3  6  2  0
  5  4  2  0
  4  1  1  0
  5  6  1  0
  6  7  1  0
  7  8  2  0
  8  9  1  0
  9 10  2  0
 10  5  1  0
 11 12  2  0
 12 13  1  0
 13 14  2  0
 14 15  1  0
 15 16  2  0
 16 11  1  0
  8 11  1  0
 10 17  1  0
 17 18  1  0
 18 19  2  0
 19 20  1  0
 20 21  2  0
 21 22  1  0
 22 23  2  0
 23 18  1  0
 24 25  2  0
 24 26  1  0
 13 24  1  0
 22 27  1  0
 27 28  1  0
 27 29  1  0
 27 30  1  0
M  CHG  2  24   1  26  -1
M  END
>  <Classification>  (601) 
0

>  <pchembl>  (601) 
4.97

>  <InChI_steorem>  (601) 
InChI=1S/C21H13F3N4O2/c22-21(23,24)14-6-4-7-15(12-14)25-20-17-9-1-2-10-18(17)26-19(27-20)13-5-3-8-16(11-13)28(29)30/h1-12H,(H,25,26,27)

>  <source>  (601) 
ChEMBL26

>  <source_id>  (601) 
26

>  <optional_reference>  (601) 
10.1016/j.ejmech.2017.08.020

>  <optional_origin>  (601) 
None

>  <target>  (601) 
BCRP

$$$$

     RDKit          2D

 30 34  0  0  0  0  0  0  0  0999 V2000
   10.9399   -3.0995    0.0000 C   0  0  0  0  0  0  0  0  0  0  0  0
   10.9387   -3.9232    0.0000 C   0  0  0  0  0  0  0  0  0  0  0  0
   11.6509   -4.3363    0.0000 C   0  0  0  0  0  0  0  0  0  0  0  0
   12.3647   -3.9227    0.0000 C   0  0  0  0  0  0  0  0  0  0  0  0
   12.3619   -3.0959    0.0000 C   0  0  0  0  0  0  0  0  0  0  0  0
   11.6491   -2.6906    0.0000 C   0  0  0  0  0  0  0  0  0  0  0  0
   13.0721   -2.6847    0.0000 C   0  0  0  0  0  0  0  0  0  0  0  0
   13.8237   -3.0117    0.0000 N   0  0  0  0  0  0  0  0  0  0  0  0
   14.3723   -2.3982    0.0000 N   0  0  0  0  0  0  0  0  0  0  0  0
   13.9569   -1.6879    0.0000 N   0  0  0  0  0  0  0  0  0  0  0  0
   13.1541   -1.8650    0.0000 N   0  0  0  0  0  0  0  0  0  0  0  0
   15.1923   -2.3979    0.0000 C   0  0  0  0  0  0  0  0  0  0  0  0
   15.5987   -3.1108    0.0000 C   0  0  0  0  0  0  0  0  0  0  0  0
   16.4179   -3.1108    0.0000 C   0  0  0  0  0  0  0  0  0  0  0  0
   16.8306   -2.3994    0.0000 C   0  0  0  0  0  0  0  0  0  0  0  0
   16.4139   -1.6865    0.0000 C   0  0  0  0  0  0  0  0  0  0  0  0
   15.5960   -1.6900    0.0000 C   0  0  0  0  0  0  0  0  0  0  0  0
   13.0734   -4.3295    0.0000 N   0  0  0  0  0  0  0  0  0  0  0  0
   13.0754   -5.1467    0.0000 C   0  0  0  0  0  0  0  0  0  0  0  0
   13.7841   -5.5536    0.0000 C   0  0  0  0  0  0  0  0  0  0  0  0
   12.3687   -5.5571    0.0000 O   0  0  0  0  0  0  0  0  0  0  0  0
   13.7842   -6.3694    0.0000 C   0  0  0  0  0  0  0  0  0  0  0  0
   14.4921   -6.7762    0.0000 N   0  0  0  0  0  0  0  0  0  0  0  0
   14.4866   -5.1413    0.0000 C   0  0  0  0  0  0  0  0  0  0  0  0
   15.1917   -5.5438    0.0000 C   0  0  0  0  0  0  0  0  0  0  0  0
   15.1980   -6.3624    0.0000 C   0  0  0  0  0  0  0  0  0  0  0  0
   15.9090   -6.7644    0.0000 C   0  0  0  0  0  0  0  0  0  0  0  0
   16.6141   -6.3490    0.0000 C   0  0  0  0  0  0  0  0  0  0  0  0
   16.6038   -5.5273    0.0000 C   0  0  0  0  0  0  0  0  0  0  0  0
   15.8923   -5.1290    0.0000 C   0  0  0  0  0  0  0  0  0  0  0  0
  1  2  2  0
  2  3  1  0
  3  4  2  0
  4  5  1  0
  5  6  2  0
  6  1  1  0
  5  7  1  0
  7  8  2  0
  8  9  1  0
  9 10  1  0
 10 11  2  0
 11  7  1  0
  9 12  1  0
 12 13  2  0
 13 14  1  0
 14 15  2  0
 15 16  1  0
 16 17  2  0
 17 12  1  0
  4 18  1  0
 18 19  1  0
 19 20  1  0
 19 21  2  0
 20 22  2  0
 22 23  1  0
 23 26  2  0
 24 20  1  0
 24 25  2  0
 25 26  1  0
 26 27  1  0
 27 28  2  0
 28 29  1  0
 29 30  2  0
 30 25  1  0
M  END
>  <Classification>  (602) 
1

>  <pchembl>  (602) 
6.75

>  <InChI_steorem>  (602) 
InChI=1S/C23H16N6O/c30-23(17-14-16-8-4-6-12-20(16)24-15-17)25-21-13-7-5-11-19(21)22-26-28-29(27-22)18-9-2-1-3-10-18/h1-15H,(H,25,30)

>  <source>  (602) 
ChEMBL26

>  <source_id>  (602) 
26

>  <optional_reference>  (602) 
10.1016/j.ejmech.2018.01.012

>  <optional_origin>  (602) 
None

>  <target>  (602) 
BCRP

$$$$

     RDKit          2D

 30 34  0  0  0  0  0  0  0  0999 V2000
   14.4840  -12.3698    0.0000 C   0  0  0  0  0  0  0  0  0  0  0  0
   14.4828  -13.1976    0.0000 C   0  0  0  0  0  0  0  0  0  0  0  0
   15.1986  -13.6128    0.0000 C   0  0  0  0  0  0  0  0  0  0  0  0
   15.1968  -11.9589    0.0000 C   0  0  0  0  0  0  0  0  0  0  0  0
   15.9132  -12.3662    0.0000 C   0  0  0  0  0  0  0  0  0  0  0  0
   15.9139  -13.1935    0.0000 C   0  0  0  0  0  0  0  0  0  0  0  0
   16.6302  -13.6068    0.0000 N   0  0  0  0  0  0  0  0  0  0  0  0
   17.3420  -13.1897    0.0000 C   0  0  0  0  0  0  0  0  0  0  0  0
   17.3373  -12.3593    0.0000 N   0  0  0  0  0  0  0  0  0  0  0  0
   16.6246  -11.9538    0.0000 C   0  0  0  0  0  0  0  0  0  0  0  0
   18.0555  -13.5976    0.0000 C   0  0  0  0  0  0  0  0  0  0  0  0
   18.0573  -14.4243    0.0000 C   0  0  0  0  0  0  0  0  0  0  0  0
   18.7735  -14.8321    0.0000 C   0  0  0  0  0  0  0  0  0  0  0  0
   19.4884  -14.4186    0.0000 C   0  0  0  0  0  0  0  0  0  0  0  0
   19.4825  -13.5889    0.0000 C   0  0  0  0  0  0  0  0  0  0  0  0
   18.7658  -13.1806    0.0000 C   0  0  0  0  0  0  0  0  0  0  0  0
   16.6203  -11.1284    0.0000 N   0  0  0  0  0  0  0  0  0  0  0  0
   17.3294  -10.7098    0.0000 C   0  0  0  0  0  0  0  0  0  0  0  0
   18.0424  -11.1242    0.0000 C   0  0  0  0  0  0  0  0  0  0  0  0
   18.7552  -10.7063    0.0000 C   0  0  0  0  0  0  0  0  0  0  0  0
   17.3188   -9.8894    0.0000 C   0  0  0  0  0  0  0  0  0  0  0  0
   18.7768  -15.6566    0.0000 N   0  0  0  0  0  0  0  0  0  0  0  0
   19.4895  -16.0649    0.0000 O   0  0  0  0  0  0  0  0  0  0  0  0
   18.0669  -16.0697    0.0000 O   0  0  0  0  0  0  0  0  0  0  0  0
   18.0286   -9.4733    0.0000 C   0  0  0  0  0  0  0  0  0  0  0  0
   18.7473   -9.8797    0.0000 C   0  0  0  0  0  0  0  0  0  0  0  0
   19.4547   -9.4628    0.0000 O   0  0  0  0  0  0  0  0  0  0  0  0
   19.4497   -8.6378    0.0000 C   0  0  0  0  0  0  0  0  0  0  0  0
   18.7309   -8.2313    0.0000 C   0  0  0  0  0  0  0  0  0  0  0  0
   18.0173   -8.6500    0.0000 O   0  0  0  0  0  0  0  0  0  0  0  0
  1  2  2  0
  2  3  1  0
  3  6  2  0
  5  4  2  0
  4  1  1  0
  5  6  1  0
  6  7  1  0
  7  8  2  0
  8  9  1  0
  9 10  2  0
 10  5  1  0
 11 12  2  0
 12 13  1  0
 13 14  2  0
 14 15  1  0
 15 16  2  0
 16 11  1  0
  8 11  1  0
 10 17  1  0
 17 18  1  0
 18 19  2  0
 19 20  1  0
 20 26  2  0
 25 21  2  0
 21 18  1  0
 22 23  2  0
 22 24  1  0
 13 22  1  0
 25 26  1  0
 25 30  1  0
 26 27  1  0
 27 28  1  0
 28 29  1  0
 29 30  1  0
M  CHG  2  22   1  24  -1
M  END
>  <Classification>  (603) 
1

>  <pchembl>  (603) 
6.58

>  <InChI_steorem>  (603) 
InChI=1S/C22H16N4O4/c27-26(28)16-5-3-4-14(12-16)21-24-18-7-2-1-6-17(18)22(25-21)23-15-8-9-19-20(13-15)30-11-10-29-19/h1-9,12-13H,10-11H2,(H,23,24,25)

>  <source>  (603) 
ChEMBL26

>  <source_id>  (603) 
26

>  <optional_reference>  (603) 
10.1016/j.ejmech.2017.08.020

>  <optional_origin>  (603) 
None

>  <target>  (603) 
BCRP

$$$$

     RDKit          2D

 30 34  0  0  0  0  0  0  0  0999 V2000
   30.4824  -10.9503    0.0000 C   0  0  0  0  0  0  0  0  0  0  0  0
   30.4812  -11.7789    0.0000 C   0  0  0  0  0  0  0  0  0  0  0  0
   31.1978  -12.1945    0.0000 C   0  0  0  0  0  0  0  0  0  0  0  0
   31.9160  -11.7785    0.0000 C   0  0  0  0  0  0  0  0  0  0  0  0
   31.9131  -10.9466    0.0000 C   0  0  0  0  0  0  0  0  0  0  0  0
   31.1960  -10.5388    0.0000 C   0  0  0  0  0  0  0  0  0  0  0  0
   32.6277  -10.5328    0.0000 C   0  0  0  0  0  0  0  0  0  0  0  0
   33.3839  -10.8619    0.0000 N   0  0  0  0  0  0  0  0  0  0  0  0
   33.9359  -10.2447    0.0000 N   0  0  0  0  0  0  0  0  0  0  0  0
   33.5179   -9.5299    0.0000 N   0  0  0  0  0  0  0  0  0  0  0  0
   32.7102   -9.7082    0.0000 N   0  0  0  0  0  0  0  0  0  0  0  0
   34.7609  -10.2444    0.0000 C   0  0  0  0  0  0  0  0  0  0  0  0
   35.1698  -10.9615    0.0000 C   0  0  0  0  0  0  0  0  0  0  0  0
   35.9940  -10.9616    0.0000 C   0  0  0  0  0  0  0  0  0  0  0  0
   36.4093  -10.2459    0.0000 C   0  0  0  0  0  0  0  0  0  0  0  0
   35.9900   -9.5286    0.0000 C   0  0  0  0  0  0  0  0  0  0  0  0
   35.1671   -9.5320    0.0000 C   0  0  0  0  0  0  0  0  0  0  0  0
   32.6290  -12.1878    0.0000 N   0  0  0  0  0  0  0  0  0  0  0  0
   32.6310  -13.0100    0.0000 C   0  0  0  0  0  0  0  0  0  0  0  0
   33.3441  -13.4193    0.0000 C   0  0  0  0  0  0  0  0  0  0  0  0
   31.9200  -13.4228    0.0000 O   0  0  0  0  0  0  0  0  0  0  0  0
   33.3442  -14.2401    0.0000 C   0  0  0  0  0  0  0  0  0  0  0  0
   34.0564  -14.6494    0.0000 C   0  0  0  0  0  0  0  0  0  0  0  0
   34.0510  -13.0045    0.0000 C   0  0  0  0  0  0  0  0  0  0  0  0
   34.7563  -13.3999    0.0000 C   0  0  0  0  0  0  0  0  0  0  0  0
   34.7666  -14.2331    0.0000 C   0  0  0  0  0  0  0  0  0  0  0  0
   35.4893  -14.6385    0.0000 O   0  0  0  0  0  0  0  0  0  0  0  0
   36.2064  -14.2153    0.0000 C   0  0  0  0  0  0  0  0  0  0  0  0
   36.1961  -13.3820    0.0000 C   0  0  0  0  0  0  0  0  0  0  0  0
   35.4687  -12.9721    0.0000 O   0  0  0  0  0  0  0  0  0  0  0  0
  1  2  2  0
  2  3  1  0
  3  4  2  0
  4  5  1  0
  5  6  2  0
  6  1  1  0
  5  7  1  0
  7  8  2  0
  8  9  1  0
  9 10  1  0
 10 11  2  0
 11  7  1  0
  9 12  1  0
 12 13  2  0
 13 14  1  0
 14 15  2  0
 15 16  1  0
 16 17  2  0
 17 12  1  0
  4 18  1  0
 18 19  1  0
 19 20  1  0
 19 21  2  0
 20 22  2  0
 22 23  1  0
 23 26  2  0
 24 20  1  0
 24 25  2  0
 25 26  1  0
 25 30  1  0
 26 27  1  0
 27 28  1  0
 28 29  1  0
 29 30  1  0
M  END
>  <Classification>  (604) 
1

>  <pchembl>  (604) 
6.72

>  <InChI_steorem>  (604) 
InChI=1S/C22H17N5O3/c28-22(15-10-11-19-20(14-15)30-13-12-29-19)23-18-9-5-4-8-17(18)21-24-26-27(25-21)16-6-2-1-3-7-16/h1-11,14H,12-13H2,(H,23,28)

>  <source>  (604) 
ChEMBL26

>  <source_id>  (604) 
26

>  <optional_reference>  (604) 
10.1016/j.ejmech.2018.01.012

>  <optional_origin>  (604) 
None

>  <target>  (604) 
BCRP

$$$$

     RDKit          2D

 30 34  0  0  0  0  0  0  0  0999 V2000
   36.3842  -26.0386    0.0000 C   0  0  0  0  0  0  0  0  0  0  0  0
   36.3831  -26.8623    0.0000 C   0  0  0  0  0  0  0  0  0  0  0  0
   37.0953  -27.2754    0.0000 C   0  0  0  0  0  0  0  0  0  0  0  0
   37.8090  -26.8618    0.0000 C   0  0  0  0  0  0  0  0  0  0  0  0
   37.8062  -26.0350    0.0000 C   0  0  0  0  0  0  0  0  0  0  0  0
   37.0935  -25.6298    0.0000 C   0  0  0  0  0  0  0  0  0  0  0  0
   38.5165  -25.6238    0.0000 C   0  0  0  0  0  0  0  0  0  0  0  0
   39.2680  -25.9508    0.0000 N   0  0  0  0  0  0  0  0  0  0  0  0
   39.8167  -25.3374    0.0000 N   0  0  0  0  0  0  0  0  0  0  0  0
   39.4013  -24.6270    0.0000 N   0  0  0  0  0  0  0  0  0  0  0  0
   38.5985  -24.8042    0.0000 N   0  0  0  0  0  0  0  0  0  0  0  0
   40.6367  -25.3371    0.0000 C   0  0  0  0  0  0  0  0  0  0  0  0
   41.0430  -26.0499    0.0000 C   0  0  0  0  0  0  0  0  0  0  0  0
   41.8623  -26.0500    0.0000 C   0  0  0  0  0  0  0  0  0  0  0  0
   42.2749  -25.3386    0.0000 C   0  0  0  0  0  0  0  0  0  0  0  0
   41.8582  -24.6257    0.0000 C   0  0  0  0  0  0  0  0  0  0  0  0
   41.0403  -24.6291    0.0000 C   0  0  0  0  0  0  0  0  0  0  0  0
   38.5178  -27.2687    0.0000 N   0  0  0  0  0  0  0  0  0  0  0  0
   38.5198  -28.0859    0.0000 C   0  0  0  0  0  0  0  0  0  0  0  0
   39.2285  -28.4927    0.0000 C   0  0  0  0  0  0  0  0  0  0  0  0
   37.8131  -28.4962    0.0000 O   0  0  0  0  0  0  0  0  0  0  0  0
   39.2286  -29.3085    0.0000 C   0  0  0  0  0  0  0  0  0  0  0  0
   39.9365  -29.7153    0.0000 C   0  0  0  0  0  0  0  0  0  0  0  0
   40.6441  -29.3049    0.0000 C   0  0  0  0  0  0  0  0  0  0  0  0
   39.9310  -28.0804    0.0000 C   0  0  0  0  0  0  0  0  0  0  0  0
   40.6360  -28.4829    0.0000 C   0  0  0  0  0  0  0  0  0  0  0  0
   41.3350  -28.0737    0.0000 C   0  0  0  0  0  0  0  0  0  0  0  0
   41.3302  -27.2621    0.0000 C   0  0  0  0  0  0  0  0  0  0  0  0
   40.6205  -26.8615    0.0000 C   0  0  0  0  0  0  0  0  0  0  0  0
   39.9245  -27.2730    0.0000 C   0  0  0  0  0  0  0  0  0  0  0  0
  1  2  2  0
  2  3  1  0
  3  4  2  0
  4  5  1  0
  5  6  2  0
  6  1  1  0
  5  7  1  0
  7  8  2  0
  8  9  1  0
  9 10  1  0
 10 11  2  0
 11  7  1  0
  9 12  1  0
 12 13  2  0
 13 14  1  0
 14 15  2  0
 15 16  1  0
 16 17  2  0
 17 12  1  0
  4 18  1  0
 18 19  1  0
 19 20  1  0
 19 21  2  0
 20 22  2  0
 22 23  1  0
 23 24  2  0
 24 26  1  0
 25 20  1  0
 25 26  2  0
 26 27  1  0
 27 28  2  0
 28 29  1  0
 29 30  2  0
 30 25  1  0
M  END
>  <Classification>  (605) 
1

>  <pchembl>  (605) 
6.37

>  <InChI_steorem>  (605) 
InChI=1S/C24H17N5O/c30-24(20-15-8-10-17-9-4-5-13-19(17)20)25-22-16-7-6-14-21(22)23-26-28-29(27-23)18-11-2-1-3-12-18/h1-16H,(H,25,30)

>  <source>  (605) 
ChEMBL26

>  <source_id>  (605) 
26

>  <optional_reference>  (605) 
10.1016/j.ejmech.2018.01.012

>  <optional_origin>  (605) 
None

>  <target>  (605) 
BCRP

$$$$

     RDKit          2D

 30 35  0  0  0  0  0  0  0  0999 V2000
   21.2510  -31.1744    0.0000 C   0  0  0  0  0  0  0  0  0  0  0  0
   21.2928  -30.2469    0.0000 C   0  0  0  0  0  0  0  0  0  0  0  0
   21.7079  -30.4894    0.0000 C   0  0  0  0  0  0  0  0  0  0  0  0
   21.9940  -29.9887    0.0000 C   0  0  0  0  0  0  0  0  0  0  0  0
   22.4724  -30.2294    0.0000 C   0  0  0  0  0  0  0  0  0  0  0  0
   22.4370  -29.3672    0.0000 C   0  0  0  0  0  0  0  0  0  0  0  0
   21.1592  -29.8529    0.0000 C   0  0  0  0  0  0  0  0  0  0  0  0
   21.1512  -28.9962    0.0000 C   0  0  0  0  0  0  0  0  0  0  0  0
   20.7768  -29.6514    0.0000 C   0  0  0  0  0  0  0  0  0  0  0  0
   21.9168  -28.7448    0.0000 C   0  0  0  0  0  0  0  0  0  0  0  0
   18.3070  -26.5422    0.0000 C   0  0  0  0  0  0  0  0  0  0  0  0
   18.3058  -27.3658    0.0000 C   0  0  0  0  0  0  0  0  0  0  0  0
   19.0180  -27.7789    0.0000 C   0  0  0  0  0  0  0  0  0  0  0  0
   19.7318  -27.3654    0.0000 C   0  0  0  0  0  0  0  0  0  0  0  0
   19.7290  -26.5386    0.0000 C   0  0  0  0  0  0  0  0  0  0  0  0
   19.0162  -26.1333    0.0000 C   0  0  0  0  0  0  0  0  0  0  0  0
   20.4392  -26.1273    0.0000 C   0  0  0  0  0  0  0  0  0  0  0  0
   21.1908  -26.4544    0.0000 N   0  0  0  0  0  0  0  0  0  0  0  0
   21.7394  -25.8409    0.0000 N   0  0  0  0  0  0  0  0  0  0  0  0
   21.3240  -25.1305    0.0000 N   0  0  0  0  0  0  0  0  0  0  0  0
   20.5212  -25.3077    0.0000 N   0  0  0  0  0  0  0  0  0  0  0  0
   22.5594  -25.8406    0.0000 C   0  0  0  0  0  0  0  0  0  0  0  0
   22.9658  -26.5534    0.0000 C   0  0  0  0  0  0  0  0  0  0  0  0
   23.7850  -26.5535    0.0000 C   0  0  0  0  0  0  0  0  0  0  0  0
   24.1977  -25.8421    0.0000 C   0  0  0  0  0  0  0  0  0  0  0  0
   23.7810  -25.1292    0.0000 C   0  0  0  0  0  0  0  0  0  0  0  0
   22.9631  -25.1326    0.0000 C   0  0  0  0  0  0  0  0  0  0  0  0
   20.4405  -27.7722    0.0000 N   0  0  0  0  0  0  0  0  0  0  0  0
   20.4425  -28.5894    0.0000 C   0  0  0  0  0  0  0  0  0  0  0  0
   19.7358  -28.9997    0.0000 O   0  0  0  0  0  0  0  0  0  0  0  0
  1  2  1  0
  1  3  1  0
  2  4  1  0
  3  5  1  0
  4  6  1  0
  5  6  1  0
  7  8  1  0
  3  7  1  0
  2  9  1  0
  6 10  1  0
 10  8  1  0
  8  9  1  0
 11 12  2  0
 12 13  1  0
 13 14  2  0
 14 15  1  0
 15 16  2  0
 16 11  1  0
 15 17  1  0
 17 18  2  0
 18 19  1  0
 19 20  1  0
 20 21  2  0
 21 17  1  0
 19 22  1  0
 22 23  2  0
 23 24  1  0
 24 25  2  0
 25 26  1  0
 26 27  2  0
 27 22  1  0
 14 28  1  0
 28 29  1  0
 29  8  1  0
 29 30  2  0
M  END
>  <Classification>  (606) 
1

>  <pchembl>  (606) 
5.97

>  <InChI_steorem>  (606) 
InChI=1S/C24H25N5O/c30-23(24-13-16-10-17(14-24)12-18(11-16)15-24)25-21-9-5-4-8-20(21)22-26-28-29(27-22)19-6-2-1-3-7-19/h1-9,16-18H,10-15H2,(H,25,30)

>  <source>  (606) 
ChEMBL26

>  <source_id>  (606) 
26

>  <optional_reference>  (606) 
10.1016/j.ejmech.2018.01.012

>  <optional_origin>  (606) 
None

>  <target>  (606) 
BCRP

$$$$

     RDKit          2D

 31 34  0  0  0  0  0  0  0  0999 V2000
    0.9396   -4.2056    0.0000 C   0  0  0  0  0  0  0  0  0  0  0  0
    0.9384   -5.0293    0.0000 C   0  0  0  0  0  0  0  0  0  0  0  0
    1.6506   -5.4424    0.0000 C   0  0  0  0  0  0  0  0  0  0  0  0
    1.6488   -3.7967    0.0000 C   0  0  0  0  0  0  0  0  0  0  0  0
    2.3616   -4.2020    0.0000 C   0  0  0  0  0  0  0  0  0  0  0  0
    2.3623   -5.0252    0.0000 C   0  0  0  0  0  0  0  0  0  0  0  0
    3.0750   -5.4363    0.0000 N   0  0  0  0  0  0  0  0  0  0  0  0
    3.7833   -5.0214    0.0000 C   0  0  0  0  0  0  0  0  0  0  0  0
    3.7785   -4.1951    0.0000 N   0  0  0  0  0  0  0  0  0  0  0  0
    3.0694   -3.7918    0.0000 C   0  0  0  0  0  0  0  0  0  0  0  0
    4.4931   -5.4273    0.0000 C   0  0  0  0  0  0  0  0  0  0  0  0
    4.4950   -6.2497    0.0000 C   0  0  0  0  0  0  0  0  0  0  0  0
    5.2076   -6.6555    0.0000 C   0  0  0  0  0  0  0  0  0  0  0  0
    5.9188   -6.2441    0.0000 C   0  0  0  0  0  0  0  0  0  0  0  0
    5.9130   -5.4185    0.0000 C   0  0  0  0  0  0  0  0  0  0  0  0
    5.1998   -5.0124    0.0000 C   0  0  0  0  0  0  0  0  0  0  0  0
    3.0651   -2.9705    0.0000 N   0  0  0  0  0  0  0  0  0  0  0  0
    3.7706   -2.5540    0.0000 C   0  0  0  0  0  0  0  0  0  0  0  0
    4.4800   -2.9663    0.0000 C   0  0  0  0  0  0  0  0  0  0  0  0
    5.1892   -2.5506    0.0000 C   0  0  0  0  0  0  0  0  0  0  0  0
    5.1853   -1.7284    0.0000 C   0  0  0  0  0  0  0  0  0  0  0  0
    4.4663   -1.3237    0.0000 C   0  0  0  0  0  0  0  0  0  0  0  0
    3.7601   -1.7377    0.0000 C   0  0  0  0  0  0  0  0  0  0  0  0
    6.6180   -5.0054    0.0000 O   0  0  0  0  0  0  0  0  0  0  0  0
    7.3283   -5.4094    0.0000 C   0  0  0  0  0  0  0  0  0  0  0  0
    5.9006   -2.9543    0.0000 N   0  0  0  0  0  0  0  0  0  0  0  0
    6.6060   -2.5417    0.0000 O   0  0  0  0  0  0  0  0  0  0  0  0
    5.9053   -3.7715    0.0000 O   0  0  0  0  0  0  0  0  0  0  0  0
    4.4569   -0.5067    0.0000 N   0  0  0  0  0  0  0  0  0  0  0  0
    3.7463   -0.1031    0.0000 O   0  0  0  0  0  0  0  0  0  0  0  0
    5.1644   -0.0882    0.0000 O   0  0  0  0  0  0  0  0  0  0  0  0
  1  2  2  0
  2  3  1  0
  3  6  2  0
  5  4  2  0
  4  1  1  0
  5  6  1  0
  6  7  1  0
  7  8  2  0
  8  9  1  0
  9 10  2  0
 10  5  1  0
 11 12  2  0
 12 13  1  0
 13 14  2  0
 14 15  1  0
 15 16  2  0
 16 11  1  0
  8 11  1  0
 10 17  1  0
 17 18  1  0
 18 19  2  0
 19 20  1  0
 20 21  2  0
 21 22  1  0
 22 23  2  0
 23 18  1  0
 15 24  1  0
 24 25  1  0
 26 27  2  0
 26 28  1  0
 20 26  1  0
 29 30  2  0
 29 31  1  0
 22 29  1  0
M  CHG  4  26   1  28  -1  29   1  31  -1
M  END
>  <Classification>  (607) 
1

>  <pchembl>  (607) 
6.54

>  <InChI_steorem>  (607) 
InChI=1S/C21H15N5O5/c1-31-17-6-4-5-13(9-17)20-23-19-8-3-2-7-18(19)21(24-20)22-14-10-15(25(27)28)12-16(11-14)26(29)30/h2-12H,1H3,(H,22,23,24)

>  <source>  (607) 
ChEMBL26

>  <source_id>  (607) 
26

>  <optional_reference>  (607) 
10.1016/j.ejmech.2017.08.020

>  <optional_origin>  (607) 
None

>  <target>  (607) 
BCRP

$$$$

     RDKit          2D

 31 34  0  0  0  0  0  0  0  0999 V2000
   12.7573  -21.4244    0.0000 O   0  0  0  0  0  0  0  0  0  0  0  0
   13.1700  -20.7187    0.0000 S   0  0  0  0  0  0  0  0  0  0  0  0
   12.3524  -20.7141    0.0000 O   0  0  0  0  0  0  0  0  0  0  0  0
   11.0348  -18.6633    0.0000 C   0  0  0  0  0  0  0  0  0  0  0  0
   11.0336  -19.4870    0.0000 C   0  0  0  0  0  0  0  0  0  0  0  0
   11.7458  -19.9000    0.0000 C   0  0  0  0  0  0  0  0  0  0  0  0
   12.4596  -19.4865    0.0000 C   0  0  0  0  0  0  0  0  0  0  0  0
   12.4568  -18.6597    0.0000 C   0  0  0  0  0  0  0  0  0  0  0  0
   11.7440  -18.2544    0.0000 C   0  0  0  0  0  0  0  0  0  0  0  0
   13.1671  -18.2484    0.0000 C   0  0  0  0  0  0  0  0  0  0  0  0
   13.9186  -18.5755    0.0000 N   0  0  0  0  0  0  0  0  0  0  0  0
   14.4672  -17.9620    0.0000 N   0  0  0  0  0  0  0  0  0  0  0  0
   14.0518  -17.2517    0.0000 N   0  0  0  0  0  0  0  0  0  0  0  0
   13.2491  -17.4288    0.0000 N   0  0  0  0  0  0  0  0  0  0  0  0
   15.2873  -17.9617    0.0000 C   0  0  0  0  0  0  0  0  0  0  0  0
   15.6936  -18.6746    0.0000 C   0  0  0  0  0  0  0  0  0  0  0  0
   16.5129  -18.6746    0.0000 C   0  0  0  0  0  0  0  0  0  0  0  0
   16.9255  -17.9632    0.0000 C   0  0  0  0  0  0  0  0  0  0  0  0
   16.5088  -17.2503    0.0000 C   0  0  0  0  0  0  0  0  0  0  0  0
   15.6909  -17.2537    0.0000 C   0  0  0  0  0  0  0  0  0  0  0  0
   13.1721  -19.8981    0.0000 N   0  0  0  0  0  0  0  0  0  0  0  0
   13.8858  -21.1269    0.0000 C   0  0  0  0  0  0  0  0  0  0  0  0
   13.8825  -21.9456    0.0000 C   0  0  0  0  0  0  0  0  0  0  0  0
   14.5942  -22.3571    0.0000 C   0  0  0  0  0  0  0  0  0  0  0  0
   15.3063  -21.9432    0.0000 C   0  0  0  0  0  0  0  0  0  0  0  0
   15.3024  -21.1177    0.0000 C   0  0  0  0  0  0  0  0  0  0  0  0
   14.5902  -20.7139    0.0000 C   0  0  0  0  0  0  0  0  0  0  0  0
   17.7468  -17.9618    0.0000 O   0  0  0  0  0  0  0  0  0  0  0  0
   18.1566  -18.6730    0.0000 C   0  0  0  0  0  0  0  0  0  0  0  0
   16.0156  -22.3491    0.0000 O   0  0  0  0  0  0  0  0  0  0  0  0
   16.0187  -23.1663    0.0000 C   0  0  0  0  0  0  0  0  0  0  0  0
  2  1  2  0
  3  2  2  0
  4  5  2  0
  5  6  1  0
  6  7  2  0
  7  8  1  0
  8  9  2  0
  9  4  1  0
  8 10  1  0
 10 11  2  0
 11 12  1  0
 12 13  1  0
 13 14  2  0
 14 10  1  0
 12 15  1  0
 15 16  2  0
 16 17  1  0
 17 18  2  0
 18 19  1  0
 19 20  2  0
 20 15  1  0
  7 21  1  0
 21  2  1  0
  2 22  1  0
 22 23  2  0
 23 24  1  0
 24 25  2  0
 25 26  1  0
 26 27  2  0
 27 22  1  0
 18 28  1  0
 28 29  1  0
 25 30  1  0
 30 31  1  0
M  END
>  <Classification>  (608) 
1

>  <pchembl>  (608) 
5.12

>  <InChI_steorem>  (608) 
InChI=1S/C21H19N5O4S/c1-29-16-9-7-15(8-10-16)26-23-21(22-25-26)19-5-3-4-6-20(19)24-31(27,28)18-13-11-17(30-2)12-14-18/h3-14,24H,1-2H3

>  <source>  (608) 
ChEMBL26

>  <source_id>  (608) 
26

>  <optional_reference>  (608) 
10.1016/j.ejmech.2018.01.012

>  <optional_origin>  (608) 
None

>  <target>  (608) 
BCRP

$$$$

     RDKit          2D

 31 34  0  0  0  0  0  0  0  0999 V2000
   16.1168  -25.6714    0.0000 O   0  0  0  0  0  0  0  0  0  0  0  0
   15.7124  -24.9656    0.0000 S   0  0  0  0  0  0  0  0  0  0  0  0
   15.3034  -25.6688    0.0000 O   0  0  0  0  0  0  0  0  0  0  0  0
   10.7541  -26.2161    0.0000 C   0  0  0  0  0  0  0  0  0  0  0  0
   10.7530  -27.0398    0.0000 C   0  0  0  0  0  0  0  0  0  0  0  0
   11.4652  -27.4529    0.0000 C   0  0  0  0  0  0  0  0  0  0  0  0
   11.4634  -25.8073    0.0000 C   0  0  0  0  0  0  0  0  0  0  0  0
   12.1761  -26.2125    0.0000 C   0  0  0  0  0  0  0  0  0  0  0  0
   12.1769  -27.0357    0.0000 C   0  0  0  0  0  0  0  0  0  0  0  0
   12.8895  -27.4469    0.0000 N   0  0  0  0  0  0  0  0  0  0  0  0
   13.5978  -27.0319    0.0000 C   0  0  0  0  0  0  0  0  0  0  0  0
   13.5931  -26.2056    0.0000 N   0  0  0  0  0  0  0  0  0  0  0  0
   12.8840  -25.8023    0.0000 C   0  0  0  0  0  0  0  0  0  0  0  0
   14.3077  -27.4378    0.0000 C   0  0  0  0  0  0  0  0  0  0  0  0
   14.3095  -28.2602    0.0000 C   0  0  0  0  0  0  0  0  0  0  0  0
   15.0221  -28.6660    0.0000 C   0  0  0  0  0  0  0  0  0  0  0  0
   15.7333  -28.2546    0.0000 C   0  0  0  0  0  0  0  0  0  0  0  0
   15.7275  -27.4291    0.0000 C   0  0  0  0  0  0  0  0  0  0  0  0
   15.0144  -27.0229    0.0000 C   0  0  0  0  0  0  0  0  0  0  0  0
   12.8796  -24.9810    0.0000 N   0  0  0  0  0  0  0  0  0  0  0  0
   13.5852  -24.5645    0.0000 C   0  0  0  0  0  0  0  0  0  0  0  0
   14.2946  -24.9769    0.0000 C   0  0  0  0  0  0  0  0  0  0  0  0
   15.0038  -24.5611    0.0000 C   0  0  0  0  0  0  0  0  0  0  0  0
   14.9999  -23.7389    0.0000 C   0  0  0  0  0  0  0  0  0  0  0  0
   14.2809  -23.3342    0.0000 C   0  0  0  0  0  0  0  0  0  0  0  0
   13.5746  -23.7482    0.0000 C   0  0  0  0  0  0  0  0  0  0  0  0
   16.4426  -28.6604    0.0000 O   0  0  0  0  0  0  0  0  0  0  0  0
   16.4458  -29.4776    0.0000 C   0  0  0  0  0  0  0  0  0  0  0  0
   16.4326  -27.0159    0.0000 O   0  0  0  0  0  0  0  0  0  0  0  0
   17.1429  -27.4199    0.0000 C   0  0  0  0  0  0  0  0  0  0  0  0
   16.4192  -24.5530    0.0000 F   0  0  0  0  0  0  0  0  0  0  0  0
  2  1  2  0
  3  2  2  0
  4  5  2  0
  5  6  1  0
  6  9  2  0
  8  7  2  0
  7  4  1  0
  8  9  1  0
  9 10  1  0
 10 11  2  0
 11 12  1  0
 12 13  2  0
 13  8  1  0
 14 15  2  0
 15 16  1  0
 16 17  2  0
 17 18  1  0
 18 19  2  0
 19 14  1  0
 11 14  1  0
 13 20  1  0
 20 21  1  0
 21 22  2  0
 22 23  1  0
 23 24  2  0
 24 25  1  0
 25 26  2  0
 26 21  1  0
 17 27  1  0
 27 28  1  0
 18 29  1  0
 29 30  1  0
 23  2  1  0
  2 31  1  0
M  END
>  <Classification>  (609) 
1

>  <pchembl>  (609) 
6.24

>  <InChI_steorem>  (609) 
InChI=1S/C22H18FN3O4S/c1-29-19-11-10-14(12-20(19)30-2)21-25-18-9-4-3-8-17(18)22(26-21)24-15-6-5-7-16(13-15)31(23,27)28/h3-13H,1-2H3,(H,24,25,26)

>  <source>  (609) 
ChEMBL26

>  <source_id>  (609) 
26

>  <optional_reference>  (609) 
10.1016/j.ejmech.2017.08.020

>  <optional_origin>  (609) 
None

>  <target>  (609) 
BCRP

$$$$

     RDKit          2D

 31 34  0  0  0  0  0  0  0  0999 V2000
   20.3334  -26.2863    0.0000 C   0  0  0  0  0  0  0  0  0  0  0  0
   20.3323  -27.1099    0.0000 C   0  0  0  0  0  0  0  0  0  0  0  0
   21.0445  -27.5189    0.0000 C   0  0  0  0  0  0  0  0  0  0  0  0
   21.0427  -25.8733    0.0000 C   0  0  0  0  0  0  0  0  0  0  0  0
   21.7554  -26.2827    0.0000 C   0  0  0  0  0  0  0  0  0  0  0  0
   21.7562  -27.1058    0.0000 C   0  0  0  0  0  0  0  0  0  0  0  0
   22.4688  -27.5129    0.0000 N   0  0  0  0  0  0  0  0  0  0  0  0
   23.1771  -27.1021    0.0000 C   0  0  0  0  0  0  0  0  0  0  0  0
   23.1724  -26.2758    0.0000 N   0  0  0  0  0  0  0  0  0  0  0  0
   22.4633  -25.8683    0.0000 C   0  0  0  0  0  0  0  0  0  0  0  0
   22.4589  -25.0470    0.0000 N   0  0  0  0  0  0  0  0  0  0  0  0
   23.1645  -24.6347    0.0000 C   0  0  0  0  0  0  0  0  0  0  0  0
   23.8739  -25.0429    0.0000 C   0  0  0  0  0  0  0  0  0  0  0  0
   24.5831  -24.6312    0.0000 C   0  0  0  0  0  0  0  0  0  0  0  0
   24.5792  -23.8090    0.0000 C   0  0  0  0  0  0  0  0  0  0  0  0
   23.8602  -23.4003    0.0000 C   0  0  0  0  0  0  0  0  0  0  0  0
   23.1539  -23.8184    0.0000 C   0  0  0  0  0  0  0  0  0  0  0  0
   23.8905  -27.5079    0.0000 C   0  0  0  0  0  0  0  0  0  0  0  0
   23.8888  -28.3263    0.0000 C   0  0  0  0  0  0  0  0  0  0  0  0
   24.6014  -28.7361    0.0000 C   0  0  0  0  0  0  0  0  0  0  0  0
   25.3126  -28.3206    0.0000 C   0  0  0  0  0  0  0  0  0  0  0  0
   25.3068  -27.4951    0.0000 C   0  0  0  0  0  0  0  0  0  0  0  0
   24.5936  -27.0930    0.0000 C   0  0  0  0  0  0  0  0  0  0  0  0
   19.6208  -25.8740    0.0000 N   0  0  0  0  0  0  0  0  0  0  0  0
   18.9091  -26.2869    0.0000 O   0  0  0  0  0  0  0  0  0  0  0  0
   19.6206  -25.0527    0.0000 O   0  0  0  0  0  0  0  0  0  0  0  0
   26.0156  -27.0813    0.0000 C   0  0  0  0  0  0  0  0  0  0  0  0
   26.7304  -27.4846    0.0000 F   0  0  0  0  0  0  0  0  0  0  0  0
   26.0095  -26.2600    0.0000 F   0  0  0  0  0  0  0  0  0  0  0  0
   26.7238  -26.6619    0.0000 F   0  0  0  0  0  0  0  0  0  0  0  0
   23.8530  -22.5790    0.0000 F   0  0  0  0  0  0  0  0  0  0  0  0
  1  2  2  0
  2  3  1  0
  3  6  2  0
  5  4  2  0
  4  1  1  0
  5  6  1  0
  6  7  1  0
  7  8  2  0
  8  9  1  0
  9 10  2  0
 10  5  1  0
 10 11  1  0
 11 12  1  0
 12 13  2  0
 13 14  1  0
 14 15  2  0
 15 16  1  0
 16 17  2  0
 17 12  1  0
  8 18  1  0
 18 19  2  0
 19 20  1  0
 20 21  2  0
 21 22  1  0
 22 23  2  0
 23 18  1  0
 24 25  2  0
 24 26  1  0
  1 24  1  0
 22 27  1  0
 27 28  1  0
 27 29  1  0
 27 30  1  0
 16 31  1  0
M  CHG  2  24   1  26  -1
M  END
>  <Classification>  (610) 
1

>  <pchembl>  (610) 
7.35

>  <InChI_steorem>  (610) 
InChI=1S/C21H12F4N4O2/c22-14-5-2-6-15(10-14)26-20-17-11-16(29(30)31)7-8-18(17)27-19(28-20)12-3-1-4-13(9-12)21(23,24)25/h1-11H,(H,26,27,28)

>  <source>  (610) 
ChEMBL26

>  <source_id>  (610) 
26

>  <optional_reference>  (610) 
10.1021/acs.jmedchem.8b01011

>  <optional_origin>  (610) 
None

>  <target>  (610) 
BCRP

$$$$

     RDKit          2D

 31 34  0  0  0  0  0  0  0  0999 V2000
   41.1842  -11.5686    0.0000 C   0  0  0  0  0  0  0  0  0  0  0  0
   41.1831  -12.3922    0.0000 C   0  0  0  0  0  0  0  0  0  0  0  0
   41.8952  -12.8053    0.0000 C   0  0  0  0  0  0  0  0  0  0  0  0
   41.8934  -11.1597    0.0000 C   0  0  0  0  0  0  0  0  0  0  0  0
   42.6062  -11.5650    0.0000 C   0  0  0  0  0  0  0  0  0  0  0  0
   42.6069  -12.3881    0.0000 C   0  0  0  0  0  0  0  0  0  0  0  0
   43.3196  -12.7993    0.0000 N   0  0  0  0  0  0  0  0  0  0  0  0
   44.0279  -12.3844    0.0000 C   0  0  0  0  0  0  0  0  0  0  0  0
   44.0231  -11.5581    0.0000 N   0  0  0  0  0  0  0  0  0  0  0  0
   43.3140  -11.1548    0.0000 C   0  0  0  0  0  0  0  0  0  0  0  0
   44.7377  -12.7903    0.0000 C   0  0  0  0  0  0  0  0  0  0  0  0
   44.7396  -13.6127    0.0000 C   0  0  0  0  0  0  0  0  0  0  0  0
   45.4522  -14.0185    0.0000 C   0  0  0  0  0  0  0  0  0  0  0  0
   46.1634  -13.6071    0.0000 C   0  0  0  0  0  0  0  0  0  0  0  0
   46.1576  -12.7815    0.0000 C   0  0  0  0  0  0  0  0  0  0  0  0
   45.4444  -12.3753    0.0000 C   0  0  0  0  0  0  0  0  0  0  0  0
   43.3097  -10.3334    0.0000 N   0  0  0  0  0  0  0  0  0  0  0  0
   44.0152   -9.9170    0.0000 C   0  0  0  0  0  0  0  0  0  0  0  0
   44.7246  -10.3293    0.0000 C   0  0  0  0  0  0  0  0  0  0  0  0
   45.4338   -9.9135    0.0000 C   0  0  0  0  0  0  0  0  0  0  0  0
   45.4299   -9.0914    0.0000 C   0  0  0  0  0  0  0  0  0  0  0  0
   44.7110   -8.6867    0.0000 C   0  0  0  0  0  0  0  0  0  0  0  0
   44.0047   -9.1007    0.0000 C   0  0  0  0  0  0  0  0  0  0  0  0
   45.4553  -14.8389    0.0000 N   0  0  0  0  0  0  0  0  0  0  0  0
   46.1644  -15.2451    0.0000 O   0  0  0  0  0  0  0  0  0  0  0  0
   44.7490  -15.2499    0.0000 O   0  0  0  0  0  0  0  0  0  0  0  0
   44.7038   -7.8695    0.0000 N   0  0  0  0  0  0  0  0  0  0  0  0
   45.4079   -7.4547    0.0000 C   0  0  0  0  0  0  0  0  0  0  0  0
   43.9925   -7.4672    0.0000 C   0  0  0  0  0  0  0  0  0  0  0  0
   43.9853   -6.6500    0.0000 C   0  0  0  0  0  0  0  0  0  0  0  0
   46.1191   -7.8571    0.0000 C   0  0  0  0  0  0  0  0  0  0  0  0
  1  2  2  0
  2  3  1  0
  3  6  2  0
  5  4  2  0
  4  1  1  0
  5  6  1  0
  6  7  1  0
  7  8  2  0
  8  9  1  0
  9 10  2  0
 10  5  1  0
 11 12  2  0
 12 13  1  0
 13 14  2  0
 14 15  1  0
 15 16  2  0
 16 11  1  0
  8 11  1  0
 10 17  1  0
 17 18  1  0
 18 19  2  0
 19 20  1  0
 20 21  2  0
 21 22  1  0
 22 23  2  0
 23 18  1  0
 24 25  2  0
 24 26  1  0
 13 24  1  0
 22 27  1  0
 27 28  1  0
 27 29  1  0
 29 30  1  0
 28 31  1  0
M  CHG  2  24   1  26  -1
M  END
>  <Classification>  (611) 
1

>  <pchembl>  (611) 
6.64

>  <InChI_steorem>  (611) 
InChI=1S/C24H23N5O2/c1-3-28(4-2)19-11-8-10-18(16-19)25-24-21-13-5-6-14-22(21)26-23(27-24)17-9-7-12-20(15-17)29(30)31/h5-16H,3-4H2,1-2H3,(H,25,26,27)

>  <source>  (611) 
ChEMBL26

>  <source_id>  (611) 
26

>  <optional_reference>  (611) 
10.1016/j.ejmech.2017.08.020

>  <optional_origin>  (611) 
None

>  <target>  (611) 
BCRP

$$$$

     RDKit          2D

 31 34  0  0  0  0  0  0  0  0999 V2000
   41.2688  -18.3695    0.0000 C   0  0  0  0  0  0  0  0  0  0  0  0
   41.2677  -19.1969    0.0000 C   0  0  0  0  0  0  0  0  0  0  0  0
   41.9831  -19.6118    0.0000 C   0  0  0  0  0  0  0  0  0  0  0  0
   41.9813  -17.9589    0.0000 C   0  0  0  0  0  0  0  0  0  0  0  0
   42.6972  -18.3659    0.0000 C   0  0  0  0  0  0  0  0  0  0  0  0
   42.6980  -19.1927    0.0000 C   0  0  0  0  0  0  0  0  0  0  0  0
   43.4139  -19.6057    0.0000 N   0  0  0  0  0  0  0  0  0  0  0  0
   44.1252  -19.1889    0.0000 C   0  0  0  0  0  0  0  0  0  0  0  0
   44.1205  -18.3589    0.0000 N   0  0  0  0  0  0  0  0  0  0  0  0
   43.4083  -17.9538    0.0000 C   0  0  0  0  0  0  0  0  0  0  0  0
   43.4038  -17.1289    0.0000 N   0  0  0  0  0  0  0  0  0  0  0  0
   44.1126  -16.7105    0.0000 C   0  0  0  0  0  0  0  0  0  0  0  0
   44.8252  -17.1246    0.0000 C   0  0  0  0  0  0  0  0  0  0  0  0
   45.5375  -16.7071    0.0000 C   0  0  0  0  0  0  0  0  0  0  0  0
   45.5336  -15.8812    0.0000 C   0  0  0  0  0  0  0  0  0  0  0  0
   44.8114  -15.4747    0.0000 C   0  0  0  0  0  0  0  0  0  0  0  0
   44.1019  -15.8905    0.0000 C   0  0  0  0  0  0  0  0  0  0  0  0
   44.8418  -19.6008    0.0000 C   0  0  0  0  0  0  0  0  0  0  0  0
   44.8401  -20.4227    0.0000 C   0  0  0  0  0  0  0  0  0  0  0  0
   45.5559  -20.8303    0.0000 C   0  0  0  0  0  0  0  0  0  0  0  0
   46.2703  -20.4171    0.0000 C   0  0  0  0  0  0  0  0  0  0  0  0
   46.2645  -19.5878    0.0000 C   0  0  0  0  0  0  0  0  0  0  0  0
   45.5482  -19.1799    0.0000 C   0  0  0  0  0  0  0  0  0  0  0  0
   40.5530  -17.9595    0.0000 N   0  0  0  0  0  0  0  0  0  0  0  0
   39.8382  -18.3701    0.0000 O   0  0  0  0  0  0  0  0  0  0  0  0
   40.5528  -17.1345    0.0000 O   0  0  0  0  0  0  0  0  0  0  0  0
   46.9764  -19.1680    0.0000 C   0  0  0  0  0  0  0  0  0  0  0  0
   47.6944  -19.5774    0.0000 F   0  0  0  0  0  0  0  0  0  0  0  0
   46.9703  -18.3431    0.0000 F   0  0  0  0  0  0  0  0  0  0  0  0
   47.6878  -18.7510    0.0000 F   0  0  0  0  0  0  0  0  0  0  0  0
   44.8042  -14.6497    0.0000 O   0  0  0  0  0  0  0  0  0  0  0  0
  1  2  2  0
  2  3  1  0
  3  6  2  0
  5  4  2  0
  4  1  1  0
  5  6  1  0
  6  7  1  0
  7  8  2  0
  8  9  1  0
  9 10  2  0
 10  5  1  0
 10 11  1  0
 11 12  1  0
 12 13  2  0
 13 14  1  0
 14 15  2  0
 15 16  1  0
 16 17  2  0
 17 12  1  0
  8 18  1  0
 18 19  2  0
 19 20  1  0
 20 21  2  0
 21 22  1  0
 22 23  2  0
 23 18  1  0
 24 25  2  0
 24 26  1  0
  1 24  1  0
 22 27  1  0
 27 28  1  0
 27 29  1  0
 27 30  1  0
 16 31  1  0
M  CHG  2  24   1  26  -1
M  END
>  <Classification>  (612) 
1

>  <pchembl>  (612) 
7.56

>  <InChI_steorem>  (612) 
InChI=1S/C21H13F3N4O3/c22-21(23,24)13-4-1-3-12(9-13)19-26-18-8-7-15(28(30)31)11-17(18)20(27-19)25-14-5-2-6-16(29)10-14/h1-11,29H,(H,25,26,27)

>  <source>  (612) 
ChEMBL26

>  <source_id>  (612) 
26

>  <optional_reference>  (612) 
10.1021/acs.jmedchem.8b01011

>  <optional_origin>  (612) 
None

>  <target>  (612) 
BCRP

$$$$

     RDKit          2D

 31 34  0  0  0  0  0  0  0  0999 V2000
    9.1815  -18.7404    0.0000 C   0  0  0  0  0  0  0  0  0  0  0  0
    9.1805  -19.5654    0.0000 C   0  0  0  0  0  0  0  0  0  0  0  0
    9.8927  -19.9785    0.0000 C   0  0  0  0  0  0  0  0  0  0  0  0
    9.8909  -18.3328    0.0000 C   0  0  0  0  0  0  0  0  0  0  0  0
   10.6037  -18.7381    0.0000 C   0  0  0  0  0  0  0  0  0  0  0  0
   10.6044  -19.5612    0.0000 C   0  0  0  0  0  0  0  0  0  0  0  0
   11.3171  -19.9724    0.0000 N   0  0  0  0  0  0  0  0  0  0  0  0
   12.0253  -19.5575    0.0000 C   0  0  0  0  0  0  0  0  0  0  0  0
   12.0206  -18.7312    0.0000 N   0  0  0  0  0  0  0  0  0  0  0  0
   11.3115  -18.3279    0.0000 C   0  0  0  0  0  0  0  0  0  0  0  0
   12.7352  -19.9634    0.0000 C   0  0  0  0  0  0  0  0  0  0  0  0
   12.7370  -20.7858    0.0000 C   0  0  0  0  0  0  0  0  0  0  0  0
   13.4496  -21.1916    0.0000 C   0  0  0  0  0  0  0  0  0  0  0  0
   14.1608  -20.7802    0.0000 C   0  0  0  0  0  0  0  0  0  0  0  0
   14.1550  -19.9546    0.0000 C   0  0  0  0  0  0  0  0  0  0  0  0
   13.4419  -19.5485    0.0000 C   0  0  0  0  0  0  0  0  0  0  0  0
   11.3072  -17.5066    0.0000 N   0  0  0  0  0  0  0  0  0  0  0  0
   12.0127  -17.0901    0.0000 C   0  0  0  0  0  0  0  0  0  0  0  0
   12.7221  -17.5024    0.0000 C   0  0  0  0  0  0  0  0  0  0  0  0
   13.4313  -17.0867    0.0000 C   0  0  0  0  0  0  0  0  0  0  0  0
   13.4274  -16.2645    0.0000 C   0  0  0  0  0  0  0  0  0  0  0  0
   12.7084  -15.8598    0.0000 C   0  0  0  0  0  0  0  0  0  0  0  0
   12.0022  -16.2738    0.0000 C   0  0  0  0  0  0  0  0  0  0  0  0
   14.8702  -21.1860    0.0000 O   0  0  0  0  0  0  0  0  0  0  0  0
   14.8734  -22.0032    0.0000 C   0  0  0  0  0  0  0  0  0  0  0  0
   14.8601  -19.5415    0.0000 O   0  0  0  0  0  0  0  0  0  0  0  0
   15.5704  -19.9455    0.0000 C   0  0  0  0  0  0  0  0  0  0  0  0
   14.1427  -17.4904    0.0000 N   0  0  0  0  0  0  0  0  0  0  0  0
   14.8480  -17.0778    0.0000 O   0  0  0  0  0  0  0  0  0  0  0  0
   14.1473  -18.3076    0.0000 O   0  0  0  0  0  0  0  0  0  0  0  0
   14.1319  -15.8503    0.0000 O   0  0  0  0  0  0  0  0  0  0  0  0
  1  2  2  0
  2  3  1  0
  3  6  2  0
  5  4  2  0
  4  1  1  0
  5  6  1  0
  6  7  1  0
  7  8  2  0
  8  9  1  0
  9 10  2  0
 10  5  1  0
 11 12  2  0
 12 13  1  0
 13 14  2  0
 14 15  1  0
 15 16  2  0
 16 11  1  0
  8 11  1  0
 10 17  1  0
 17 18  1  0
 18 19  2  0
 19 20  1  0
 20 21  2  0
 21 22  1  0
 22 23  2  0
 23 18  1  0
 14 24  1  0
 24 25  1  0
 15 26  1  0
 26 27  1  0
 28 29  2  0
 28 30  1  0
 20 28  1  0
 21 31  1  0
M  CHG  2  28   1  30  -1
M  END
>  <Classification>  (613) 
1

>  <pchembl>  (613) 
6.52

>  <InChI_steorem>  (613) 
InChI=1S/C22H18N4O5/c1-30-19-10-7-13(11-20(19)31-2)21-24-16-6-4-3-5-15(16)22(25-21)23-14-8-9-18(27)17(12-14)26(28)29/h3-12,27H,1-2H3,(H,23,24,25)

>  <source>  (613) 
ChEMBL26

>  <source_id>  (613) 
26

>  <optional_reference>  (613) 
10.1016/j.ejmech.2017.08.020

>  <optional_origin>  (613) 
None

>  <target>  (613) 
BCRP

$$$$

     RDKit          2D

 32 35  0  0  0  0  0  0  0  0999 V2000
   11.4393  -26.4349    0.0000 C   0  0  0  0  0  0  0  0  0  0  0  0
   11.4381  -27.2585    0.0000 C   0  0  0  0  0  0  0  0  0  0  0  0
   12.1503  -27.6716    0.0000 C   0  0  0  0  0  0  0  0  0  0  0  0
   12.1485  -26.0260    0.0000 C   0  0  0  0  0  0  0  0  0  0  0  0
   12.8612  -26.4313    0.0000 C   0  0  0  0  0  0  0  0  0  0  0  0
   12.8620  -27.2544    0.0000 C   0  0  0  0  0  0  0  0  0  0  0  0
   13.5747  -27.6656    0.0000 N   0  0  0  0  0  0  0  0  0  0  0  0
   14.2829  -27.2506    0.0000 C   0  0  0  0  0  0  0  0  0  0  0  0
   14.2782  -26.4244    0.0000 N   0  0  0  0  0  0  0  0  0  0  0  0
   13.5691  -26.0210    0.0000 C   0  0  0  0  0  0  0  0  0  0  0  0
   13.5648  -25.1997    0.0000 N   0  0  0  0  0  0  0  0  0  0  0  0
   14.2703  -24.7833    0.0000 C   0  0  0  0  0  0  0  0  0  0  0  0
   14.9797  -25.1956    0.0000 C   0  0  0  0  0  0  0  0  0  0  0  0
   15.6889  -24.7798    0.0000 C   0  0  0  0  0  0  0  0  0  0  0  0
   15.6850  -23.9576    0.0000 C   0  0  0  0  0  0  0  0  0  0  0  0
   14.9660  -23.5530    0.0000 C   0  0  0  0  0  0  0  0  0  0  0  0
   14.2598  -23.9670    0.0000 C   0  0  0  0  0  0  0  0  0  0  0  0
   14.9963  -27.6606    0.0000 C   0  0  0  0  0  0  0  0  0  0  0  0
   14.9946  -28.4790    0.0000 C   0  0  0  0  0  0  0  0  0  0  0  0
   15.7072  -28.8847    0.0000 C   0  0  0  0  0  0  0  0  0  0  0  0
   16.4184  -28.4733    0.0000 C   0  0  0  0  0  0  0  0  0  0  0  0
   16.4126  -27.6478    0.0000 C   0  0  0  0  0  0  0  0  0  0  0  0
   15.6995  -27.2416    0.0000 C   0  0  0  0  0  0  0  0  0  0  0  0
   10.7266  -26.0267    0.0000 N   0  0  0  0  0  0  0  0  0  0  0  0
   10.0149  -26.4354    0.0000 O   0  0  0  0  0  0  0  0  0  0  0  0
   10.7264  -25.2054    0.0000 O   0  0  0  0  0  0  0  0  0  0  0  0
   17.1214  -27.2298    0.0000 C   0  0  0  0  0  0  0  0  0  0  0  0
   17.8363  -27.6373    0.0000 F   0  0  0  0  0  0  0  0  0  0  0  0
   17.1153  -26.4085    0.0000 F   0  0  0  0  0  0  0  0  0  0  0  0
   17.8296  -26.8146    0.0000 F   0  0  0  0  0  0  0  0  0  0  0  0
   14.9588  -22.7317    0.0000 S   0  0  0  0  0  0  0  0  0  0  0  0
   15.6670  -22.3127    0.0000 C   0  0  0  0  0  0  0  0  0  0  0  0
  1  2  2  0
  2  3  1  0
  3  6  2  0
  5  4  2  0
  4  1  1  0
  5  6  1  0
  6  7  1  0
  7  8  2  0
  8  9  1  0
  9 10  2  0
 10  5  1  0
 10 11  1  0
 11 12  1  0
 12 13  2  0
 13 14  1  0
 14 15  2  0
 15 16  1  0
 16 17  2  0
 17 12  1  0
  8 18  1  0
 18 19  2  0
 19 20  1  0
 20 21  2  0
 21 22  1  0
 22 23  2  0
 23 18  1  0
 24 25  2  0
 24 26  1  0
  1 24  1  0
 22 27  1  0
 27 28  1  0
 27 29  1  0
 27 30  1  0
 16 31  1  0
 31 32  1  0
M  CHG  2  24   1  26  -1
M  END
>  <Classification>  (614) 
1

>  <pchembl>  (614) 
7.0

>  <InChI_steorem>  (614) 
InChI=1S/C22H15F3N4O2S/c1-32-17-7-3-6-15(11-17)26-21-18-12-16(29(30)31)8-9-19(18)27-20(28-21)13-4-2-5-14(10-13)22(23,24)25/h2-12H,1H3,(H,26,27,28)

>  <source>  (614) 
ChEMBL26

>  <source_id>  (614) 
26

>  <optional_reference>  (614) 
10.1021/acs.jmedchem.8b01011

>  <optional_origin>  (614) 
None

>  <target>  (614) 
BCRP

$$$$

     RDKit          2D

 32 35  0  0  0  0  0  0  0  0999 V2000
    1.4018   -3.3389    0.0000 C   0  0  0  0  0  0  0  0  0  0  0  0
    1.4007   -4.1626    0.0000 C   0  0  0  0  0  0  0  0  0  0  0  0
    2.1129   -4.5756    0.0000 C   0  0  0  0  0  0  0  0  0  0  0  0
    2.8267   -4.1621    0.0000 C   0  0  0  0  0  0  0  0  0  0  0  0
    2.8238   -3.3353    0.0000 C   0  0  0  0  0  0  0  0  0  0  0  0
    2.1111   -2.9300    0.0000 C   0  0  0  0  0  0  0  0  0  0  0  0
    3.5341   -2.9240    0.0000 C   0  0  0  0  0  0  0  0  0  0  0  0
    4.2856   -3.2511    0.0000 O   0  0  0  0  0  0  0  0  0  0  0  0
    4.8343   -2.6376    0.0000 C   0  0  0  0  0  0  0  0  0  0  0  0
    4.4189   -1.9273    0.0000 N   0  0  0  0  0  0  0  0  0  0  0  0
    3.6161   -2.1044    0.0000 N   0  0  0  0  0  0  0  0  0  0  0  0
    5.6543   -2.6373    0.0000 C   0  0  0  0  0  0  0  0  0  0  0  0
    6.0607   -3.3502    0.0000 C   0  0  0  0  0  0  0  0  0  0  0  0
    6.8799   -3.3502    0.0000 C   0  0  0  0  0  0  0  0  0  0  0  0
    7.2925   -2.6388    0.0000 C   0  0  0  0  0  0  0  0  0  0  0  0
    6.8758   -1.9259    0.0000 C   0  0  0  0  0  0  0  0  0  0  0  0
    6.0579   -1.9293    0.0000 C   0  0  0  0  0  0  0  0  0  0  0  0
    3.5391   -4.5737    0.0000 N   0  0  0  0  0  0  0  0  0  0  0  0
    3.5404   -5.3950    0.0000 C   0  0  0  0  0  0  0  0  0  0  0  0
    4.2529   -5.8025    0.0000 C   0  0  0  0  0  0  0  0  0  0  0  0
    2.8292   -5.8047    0.0000 O   0  0  0  0  0  0  0  0  0  0  0  0
    4.2496   -6.6212    0.0000 C   0  0  0  0  0  0  0  0  0  0  0  0
    4.9612   -7.0327    0.0000 C   0  0  0  0  0  0  0  0  0  0  0  0
    5.6734   -6.6188    0.0000 C   0  0  0  0  0  0  0  0  0  0  0  0
    5.6695   -5.7933    0.0000 C   0  0  0  0  0  0  0  0  0  0  0  0
    4.9573   -5.3895    0.0000 C   0  0  0  0  0  0  0  0  0  0  0  0
    6.3823   -7.0295    0.0000 C   0  0  0  0  0  0  0  0  0  0  0  0
    6.3846   -7.8508    0.0000 F   0  0  0  0  0  0  0  0  0  0  0  0
    7.0929   -6.6147    0.0000 F   0  0  0  0  0  0  0  0  0  0  0  0
    7.0906   -7.4373    0.0000 F   0  0  0  0  0  0  0  0  0  0  0  0
    8.1139   -2.6374    0.0000 O   0  0  0  0  0  0  0  0  0  0  0  0
    8.5237   -3.3486    0.0000 C   0  0  0  0  0  0  0  0  0  0  0  0
  1  2  2  0
  2  3  1  0
  3  4  2  0
  4  5  1  0
  5  6  2  0
  6  1  1  0
  5  7  1  0
  7  8  1  0
  8  9  1  0
  9 10  2  0
 10 11  1  0
 11  7  2  0
  9 12  1  0
 12 13  2  0
 13 14  1  0
 14 15  2  0
 15 16  1  0
 16 17  2  0
 17 12  1  0
  4 18  1  0
 18 19  1  0
 19 20  1  0
 19 21  2  0
 20 22  2  0
 22 23  1  0
 23 24  2  0
 24 25  1  0
 25 26  2  0
 26 20  1  0
 24 27  1  0
 27 28  1  0
 27 29  1  0
 27 30  1  0
 15 31  1  0
 31 32  1  0
M  END
>  <Classification>  (615) 
1

>  <pchembl>  (615) 
7.05

>  <InChI_steorem>  (615) 
InChI=1S/C23H16F3N3O3/c1-31-17-12-8-15(9-13-17)21-28-29-22(32-21)18-4-2-3-5-19(18)27-20(30)14-6-10-16(11-7-14)23(24,25)26/h2-13H,1H3,(H,27,30)

>  <source>  (615) 
ChEMBL26

>  <source_id>  (615) 
26

>  <optional_reference>  (615) 
10.1016/j.ejmech.2018.01.012

>  <optional_origin>  (615) 
None

>  <target>  (615) 
BCRP

$$$$

     RDKit          2D

 32 35  0  0  0  0  0  0  0  0999 V2000
   14.7823  -20.6691    0.0000 C   0  0  0  0  0  0  0  0  0  0  0  0
   14.7812  -21.4928    0.0000 C   0  0  0  0  0  0  0  0  0  0  0  0
   15.4933  -21.9059    0.0000 C   0  0  0  0  0  0  0  0  0  0  0  0
   15.4916  -20.2603    0.0000 C   0  0  0  0  0  0  0  0  0  0  0  0
   16.2043  -20.6655    0.0000 C   0  0  0  0  0  0  0  0  0  0  0  0
   16.2051  -21.4887    0.0000 C   0  0  0  0  0  0  0  0  0  0  0  0
   16.9177  -21.8999    0.0000 N   0  0  0  0  0  0  0  0  0  0  0  0
   17.6260  -21.4849    0.0000 C   0  0  0  0  0  0  0  0  0  0  0  0
   17.6213  -20.6587    0.0000 N   0  0  0  0  0  0  0  0  0  0  0  0
   16.9121  -20.2553    0.0000 C   0  0  0  0  0  0  0  0  0  0  0  0
   18.3358  -21.8908    0.0000 C   0  0  0  0  0  0  0  0  0  0  0  0
   18.3377  -22.7132    0.0000 C   0  0  0  0  0  0  0  0  0  0  0  0
   19.0503  -23.1190    0.0000 C   0  0  0  0  0  0  0  0  0  0  0  0
   19.7615  -22.7076    0.0000 C   0  0  0  0  0  0  0  0  0  0  0  0
   19.7557  -21.8821    0.0000 C   0  0  0  0  0  0  0  0  0  0  0  0
   19.0425  -21.4759    0.0000 C   0  0  0  0  0  0  0  0  0  0  0  0
   16.9078  -19.4340    0.0000 N   0  0  0  0  0  0  0  0  0  0  0  0
   17.6133  -19.0175    0.0000 C   0  0  0  0  0  0  0  0  0  0  0  0
   18.3228  -19.4299    0.0000 C   0  0  0  0  0  0  0  0  0  0  0  0
   19.0319  -19.0141    0.0000 C   0  0  0  0  0  0  0  0  0  0  0  0
   19.0280  -18.1919    0.0000 C   0  0  0  0  0  0  0  0  0  0  0  0
   18.3091  -17.7872    0.0000 C   0  0  0  0  0  0  0  0  0  0  0  0
   17.6028  -18.2012    0.0000 C   0  0  0  0  0  0  0  0  0  0  0  0
   19.0534  -23.9394    0.0000 N   0  0  0  0  0  0  0  0  0  0  0  0
   19.7625  -24.3456    0.0000 O   0  0  0  0  0  0  0  0  0  0  0  0
   18.3471  -24.3504    0.0000 O   0  0  0  0  0  0  0  0  0  0  0  0
   18.3019  -16.9701    0.0000 C   0  0  0  0  0  0  0  0  0  0  0  0
   19.0060  -16.5553    0.0000 F   0  0  0  0  0  0  0  0  0  0  0  0
   17.5906  -16.5677    0.0000 F   0  0  0  0  0  0  0  0  0  0  0  0
   18.2960  -16.1498    0.0000 F   0  0  0  0  0  0  0  0  0  0  0  0
   19.7325  -17.7778    0.0000 O   0  0  0  0  0  0  0  0  0  0  0  0
   20.4434  -18.1808    0.0000 C   0  0  0  0  0  0  0  0  0  0  0  0
  1  2  2  0
  2  3  1  0
  3  6  2  0
  5  4  2  0
  4  1  1  0
  5  6  1  0
  6  7  1  0
  7  8  2  0
  8  9  1  0
  9 10  2  0
 10  5  1  0
 11 12  2  0
 12 13  1  0
 13 14  2  0
 14 15  1  0
 15 16  2  0
 16 11  1  0
  8 11  1  0
 10 17  1  0
 17 18  1  0
 18 19  2  0
 19 20  1  0
 20 21  2  0
 21 22  1  0
 22 23  2  0
 23 18  1  0
 24 25  2  0
 24 26  1  0
 13 24  1  0
 22 27  1  0
 27 28  1  0
 27 29  1  0
 27 30  1  0
 21 31  1  0
 31 32  1  0
M  CHG  2  24   1  26  -1
M  END
>  <Classification>  (616) 
0

>  <pchembl>  (616) 
4.79

>  <InChI_steorem>  (616) 
InChI=1S/C22H15F3N4O3/c1-32-19-10-9-14(12-17(19)22(23,24)25)26-21-16-7-2-3-8-18(16)27-20(28-21)13-5-4-6-15(11-13)29(30)31/h2-12H,1H3,(H,26,27,28)

>  <source>  (616) 
ChEMBL26

>  <source_id>  (616) 
26

>  <optional_reference>  (616) 
10.1016/j.ejmech.2017.08.020

>  <optional_origin>  (616) 
None

>  <target>  (616) 
BCRP

$$$$

     RDKit          2D

 32 35  0  0  0  0  0  0  0  0999 V2000
   19.5410  -10.5822    0.0000 C   0  0  0  0  0  0  0  0  0  0  0  0
   19.5399  -11.4058    0.0000 C   0  0  0  0  0  0  0  0  0  0  0  0
   20.2520  -11.8189    0.0000 C   0  0  0  0  0  0  0  0  0  0  0  0
   20.9658  -11.4054    0.0000 C   0  0  0  0  0  0  0  0  0  0  0  0
   20.9630  -10.5786    0.0000 C   0  0  0  0  0  0  0  0  0  0  0  0
   20.2502  -10.1733    0.0000 C   0  0  0  0  0  0  0  0  0  0  0  0
   21.6733  -10.1673    0.0000 C   0  0  0  0  0  0  0  0  0  0  0  0
   22.4248  -10.4944    0.0000 N   0  0  0  0  0  0  0  0  0  0  0  0
   22.9735   -9.8809    0.0000 N   0  0  0  0  0  0  0  0  0  0  0  0
   22.5580   -9.1705    0.0000 N   0  0  0  0  0  0  0  0  0  0  0  0
   21.7553   -9.3477    0.0000 N   0  0  0  0  0  0  0  0  0  0  0  0
   23.7935   -9.8806    0.0000 C   0  0  0  0  0  0  0  0  0  0  0  0
   24.1998  -10.5934    0.0000 C   0  0  0  0  0  0  0  0  0  0  0  0
   25.0191  -10.5935    0.0000 C   0  0  0  0  0  0  0  0  0  0  0  0
   25.4317   -9.8821    0.0000 C   0  0  0  0  0  0  0  0  0  0  0  0
   25.0150   -9.1692    0.0000 C   0  0  0  0  0  0  0  0  0  0  0  0
   24.1971   -9.1726    0.0000 C   0  0  0  0  0  0  0  0  0  0  0  0
   26.2530   -9.8807    0.0000 O   0  0  0  0  0  0  0  0  0  0  0  0
   26.6628  -10.5919    0.0000 C   0  0  0  0  0  0  0  0  0  0  0  0
   18.8315  -11.8132    0.0000 N   0  0  0  0  0  0  0  0  0  0  0  0
   18.8301  -12.6304    0.0000 C   0  0  0  0  0  0  0  0  0  0  0  0
   18.1217  -13.0378    0.0000 C   0  0  0  0  0  0  0  0  0  0  0  0
   19.5371  -13.0402    0.0000 O   0  0  0  0  0  0  0  0  0  0  0  0
   17.4181  -12.6280    0.0000 C   0  0  0  0  0  0  0  0  0  0  0  0
   16.7102  -13.0347    0.0000 C   0  0  0  0  0  0  0  0  0  0  0  0
   16.7083  -13.8527    0.0000 C   0  0  0  0  0  0  0  0  0  0  0  0
   17.4203  -14.2624    0.0000 C   0  0  0  0  0  0  0  0  0  0  0  0
   18.1253  -13.8533    0.0000 C   0  0  0  0  0  0  0  0  0  0  0  0
   16.0005  -14.2611    0.0000 C   0  0  0  0  0  0  0  0  0  0  0  0
   15.2929  -13.8522    0.0000 F   0  0  0  0  0  0  0  0  0  0  0  0
   16.0002  -15.0783    0.0000 F   0  0  0  0  0  0  0  0  0  0  0  0
   15.2873  -14.6640    0.0000 F   0  0  0  0  0  0  0  0  0  0  0  0
  1  2  2  0
  2  3  1  0
  3  4  2  0
  4  5  1  0
  5  6  2  0
  6  1  1  0
  5  7  1  0
  7  8  2  0
  8  9  1  0
  9 10  1  0
 10 11  2  0
 11  7  1  0
  9 12  1  0
 12 13  2  0
 13 14  1  0
 14 15  2  0
 15 16  1  0
 16 17  2  0
 17 12  1  0
 15 18  1  0
 18 19  1  0
  2 20  1  0
 20 21  1  0
 21 22  1  0
 21 23  2  0
 22 24  2  0
 24 25  1  0
 25 26  2  0
 26 27  1  0
 27 28  2  0
 28 22  1  0
 26 29  1  0
 29 30  1  0
 29 31  1  0
 29 32  1  0
M  END
>  <Classification>  (617) 
0

>  <pchembl>  (617) 
4.4

>  <InChI_steorem>  (617) 
InChI=1S/C22H16F3N5O2/c1-32-19-12-10-18(11-13-19)30-28-20(27-29-30)14-4-8-17(9-5-14)26-21(31)15-2-6-16(7-3-15)22(23,24)25/h2-13H,1H3,(H,26,31)

>  <source>  (617) 
ChEMBL26

>  <source_id>  (617) 
26

>  <optional_reference>  (617) 
10.1016/j.ejmech.2018.01.012

>  <optional_origin>  (617) 
None

>  <target>  (617) 
BCRP

$$$$

     RDKit          2D

 32 35  0  0  0  0  0  0  0  0999 V2000
   27.5932   -3.7351    0.0000 C   0  0  0  0  0  0  0  0  0  0  0  0
   27.5921   -4.5588    0.0000 C   0  0  0  0  0  0  0  0  0  0  0  0
   28.3043   -4.9719    0.0000 C   0  0  0  0  0  0  0  0  0  0  0  0
   29.0180   -4.5583    0.0000 C   0  0  0  0  0  0  0  0  0  0  0  0
   29.0152   -3.7315    0.0000 C   0  0  0  0  0  0  0  0  0  0  0  0
   28.3025   -3.3262    0.0000 C   0  0  0  0  0  0  0  0  0  0  0  0
   29.7255   -3.3202    0.0000 N   0  0  0  0  0  0  0  0  0  0  0  0
   30.4770   -3.6473    0.0000 C   0  0  0  0  0  0  0  0  0  0  0  0
   31.0257   -3.0338    0.0000 C   0  0  0  0  0  0  0  0  0  0  0  0
   30.6103   -2.3235    0.0000 N   0  0  0  0  0  0  0  0  0  0  0  0
   29.8075   -2.5006    0.0000 N   0  0  0  0  0  0  0  0  0  0  0  0
   31.8457   -3.0335    0.0000 C   0  0  0  0  0  0  0  0  0  0  0  0
   32.2521   -3.7464    0.0000 C   0  0  0  0  0  0  0  0  0  0  0  0
   33.0713   -3.7464    0.0000 C   0  0  0  0  0  0  0  0  0  0  0  0
   33.4839   -3.0350    0.0000 C   0  0  0  0  0  0  0  0  0  0  0  0
   33.0672   -2.3221    0.0000 C   0  0  0  0  0  0  0  0  0  0  0  0
   32.2493   -2.3256    0.0000 C   0  0  0  0  0  0  0  0  0  0  0  0
   29.7305   -4.9699    0.0000 N   0  0  0  0  0  0  0  0  0  0  0  0
   29.7318   -5.7912    0.0000 C   0  0  0  0  0  0  0  0  0  0  0  0
   30.4443   -6.1987    0.0000 C   0  0  0  0  0  0  0  0  0  0  0  0
   29.0206   -6.2009    0.0000 O   0  0  0  0  0  0  0  0  0  0  0  0
   30.4410   -7.0174    0.0000 C   0  0  0  0  0  0  0  0  0  0  0  0
   31.1526   -7.4289    0.0000 C   0  0  0  0  0  0  0  0  0  0  0  0
   31.8648   -7.0150    0.0000 C   0  0  0  0  0  0  0  0  0  0  0  0
   31.8609   -6.1895    0.0000 C   0  0  0  0  0  0  0  0  0  0  0  0
   31.1486   -5.7858    0.0000 C   0  0  0  0  0  0  0  0  0  0  0  0
   34.3053   -3.0336    0.0000 O   0  0  0  0  0  0  0  0  0  0  0  0
   34.7151   -3.7448    0.0000 C   0  0  0  0  0  0  0  0  0  0  0  0
   32.5740   -7.4209    0.0000 C   0  0  0  0  0  0  0  0  0  0  0  0
   32.5771   -8.2381    0.0000 F   0  0  0  0  0  0  0  0  0  0  0  0
   33.2802   -7.0096    0.0000 F   0  0  0  0  0  0  0  0  0  0  0  0
   33.2778   -7.8294    0.0000 F   0  0  0  0  0  0  0  0  0  0  0  0
  1  2  2  0
  2  3  1  0
  3  4  2  0
  4  5  1  0
  5  6  2  0
  6  1  1  0
  5  7  1  0
  7  8  1  0
  8  9  2  0
  9 10  1  0
 10 11  2  0
 11  7  1  0
  9 12  1  0
 12 13  2  0
 13 14  1  0
 14 15  2  0
 15 16  1  0
 16 17  2  0
 17 12  1  0
  4 18  1  0
 18 19  1  0
 19 20  1  0
 19 21  2  0
 20 22  2  0
 22 23  1  0
 23 24  2  0
 24 25  1  0
 25 26  2  0
 26 20  1  0
 15 27  1  0
 27 28  1  0
 24 29  1  0
 29 30  1  0
 29 31  1  0
 29 32  1  0
M  END
>  <Classification>  (618) 
1

>  <pchembl>  (618) 
6.12

>  <InChI_steorem>  (618) 
InChI=1S/C23H17F3N4O2/c1-32-18-12-8-15(9-13-18)20-14-30(29-28-20)21-5-3-2-4-19(21)27-22(31)16-6-10-17(11-7-16)23(24,25)26/h2-14H,1H3,(H,27,31)

>  <source>  (618) 
ChEMBL26

>  <source_id>  (618) 
26

>  <optional_reference>  (618) 
10.1016/j.ejmech.2018.01.012

>  <optional_origin>  (618) 
None

>  <target>  (618) 
BCRP

$$$$

     RDKit          2D

 32 35  0  0  0  0  0  0  0  0999 V2000
   33.8171  -19.6332    0.0000 C   0  0  0  0  0  0  0  0  0  0  0  0
   33.8159  -20.4569    0.0000 C   0  0  0  0  0  0  0  0  0  0  0  0
   34.5281  -20.8699    0.0000 C   0  0  0  0  0  0  0  0  0  0  0  0
   35.2419  -20.4564    0.0000 C   0  0  0  0  0  0  0  0  0  0  0  0
   35.2391  -19.6296    0.0000 C   0  0  0  0  0  0  0  0  0  0  0  0
   34.5263  -19.2243    0.0000 C   0  0  0  0  0  0  0  0  0  0  0  0
   35.9494  -19.2183    0.0000 C   0  0  0  0  0  0  0  0  0  0  0  0
   36.7009  -19.5454    0.0000 N   0  0  0  0  0  0  0  0  0  0  0  0
   37.2495  -18.9319    0.0000 N   0  0  0  0  0  0  0  0  0  0  0  0
   36.8341  -18.2216    0.0000 N   0  0  0  0  0  0  0  0  0  0  0  0
   36.0314  -18.3987    0.0000 N   0  0  0  0  0  0  0  0  0  0  0  0
   35.9506  -20.8632    0.0000 N   0  0  0  0  0  0  0  0  0  0  0  0
   35.9527  -21.6804    0.0000 C   0  0  0  0  0  0  0  0  0  0  0  0
   36.6614  -22.0873    0.0000 C   0  0  0  0  0  0  0  0  0  0  0  0
   35.2460  -22.0908    0.0000 O   0  0  0  0  0  0  0  0  0  0  0  0
   36.6614  -22.9031    0.0000 C   0  0  0  0  0  0  0  0  0  0  0  0
   37.3693  -23.3098    0.0000 C   0  0  0  0  0  0  0  0  0  0  0  0
   38.0770  -22.8994    0.0000 C   0  0  0  0  0  0  0  0  0  0  0  0
   38.0723  -22.0780    0.0000 C   0  0  0  0  0  0  0  0  0  0  0  0
   37.3639  -21.6750    0.0000 C   0  0  0  0  0  0  0  0  0  0  0  0
   38.0654  -18.9316    0.0000 C   0  0  0  0  0  0  0  0  0  0  0  0
   38.4718  -19.6403    0.0000 C   0  0  0  0  0  0  0  0  0  0  0  0
   39.2869  -19.6404    0.0000 N   0  0  0  0  0  0  0  0  0  0  0  0
   39.6954  -18.9331    0.0000 C   0  0  0  0  0  0  0  0  0  0  0  0
   39.2828  -18.2243    0.0000 C   0  0  0  0  0  0  0  0  0  0  0  0
   38.4691  -18.2278    0.0000 C   0  0  0  0  0  0  0  0  0  0  0  0
   40.5126  -18.9317    0.0000 O   0  0  0  0  0  0  0  0  0  0  0  0
   40.9224  -19.6387    0.0000 C   0  0  0  0  0  0  0  0  0  0  0  0
   38.7863  -23.3053    0.0000 C   0  0  0  0  0  0  0  0  0  0  0  0
   38.7894  -24.1225    0.0000 F   0  0  0  0  0  0  0  0  0  0  0  0
   39.4924  -22.8940    0.0000 F   0  0  0  0  0  0  0  0  0  0  0  0
   39.4893  -23.7109    0.0000 F   0  0  0  0  0  0  0  0  0  0  0  0
  1  2  2  0
  2  3  1  0
  3  4  2  0
  4  5  1  0
  5  6  2  0
  6  1  1  0
  5  7  1  0
  7  8  2  0
  8  9  1  0
  9 10  1  0
 10 11  2  0
 11  7  1  0
  4 12  1  0
 12 13  1  0
 13 14  1  0
 13 15  2  0
 14 16  2  0
 16 17  1  0
 17 18  2  0
 18 19  1  0
 19 20  2  0
 20 14  1  0
  9 21  1  0
 21 22  2  0
 22 23  1  0
 23 24  2  0
 24 25  1  0
 25 26  2  0
 26 21  1  0
 24 27  1  0
 27 28  1  0
 18 29  1  0
 29 30  1  0
 29 31  1  0
 29 32  1  0
M  END
>  <Classification>  (619) 
1

>  <pchembl>  (619) 
6.89

>  <InChI_steorem>  (619) 
InChI=1S/C21H15F3N6O2/c1-32-18-11-10-15(12-25-18)30-28-19(27-29-30)16-4-2-3-5-17(16)26-20(31)13-6-8-14(9-7-13)21(22,23)24/h2-12H,1H3,(H,26,31)

>  <source>  (619) 
ChEMBL26

>  <source_id>  (619) 
26

>  <optional_reference>  (619) 
10.1016/j.ejmech.2018.01.012

>  <optional_origin>  (619) 
None

>  <target>  (619) 
BCRP

$$$$

     RDKit          2D

 32 35  0  0  0  0  0  0  0  0999 V2000
    4.0350  -17.8667    0.0000 C   0  0  0  0  0  0  0  0  0  0  0  0
    4.0339  -18.6863    0.0000 C   0  0  0  0  0  0  0  0  0  0  0  0
    4.7419  -19.0952    0.0000 C   0  0  0  0  0  0  0  0  0  0  0  0
    4.7401  -17.4579    0.0000 C   0  0  0  0  0  0  0  0  0  0  0  0
    5.4487  -17.8631    0.0000 C   0  0  0  0  0  0  0  0  0  0  0  0
    5.4495  -18.6822    0.0000 C   0  0  0  0  0  0  0  0  0  0  0  0
    6.1580  -19.0892    0.0000 N   0  0  0  0  0  0  0  0  0  0  0  0
    6.8663  -18.6784    0.0000 C   0  0  0  0  0  0  0  0  0  0  0  0
    6.8616  -17.8563    0.0000 N   0  0  0  0  0  0  0  0  0  0  0  0
    6.1525  -17.4529    0.0000 C   0  0  0  0  0  0  0  0  0  0  0  0
    6.1481  -16.6357    0.0000 N   0  0  0  0  0  0  0  0  0  0  0  0
    6.8537  -16.2234    0.0000 C   0  0  0  0  0  0  0  0  0  0  0  0
    7.5589  -16.6316    0.0000 C   0  0  0  0  0  0  0  0  0  0  0  0
    8.2640  -16.2199    0.0000 C   0  0  0  0  0  0  0  0  0  0  0  0
    8.2601  -15.4019    0.0000 C   0  0  0  0  0  0  0  0  0  0  0  0
    7.5453  -14.9972    0.0000 C   0  0  0  0  0  0  0  0  0  0  0  0
    6.8431  -15.4112    0.0000 C   0  0  0  0  0  0  0  0  0  0  0  0
    7.5756  -19.0842    0.0000 C   0  0  0  0  0  0  0  0  0  0  0  0
    7.5739  -19.8985    0.0000 C   0  0  0  0  0  0  0  0  0  0  0  0
    8.2823  -20.3042    0.0000 N   0  0  0  0  0  0  0  0  0  0  0  0
    8.9894  -19.8928    0.0000 C   0  0  0  0  0  0  0  0  0  0  0  0
    8.9836  -19.0714    0.0000 C   0  0  0  0  0  0  0  0  0  0  0  0
    8.2746  -18.6694    0.0000 C   0  0  0  0  0  0  0  0  0  0  0  0
    3.3272  -17.4583    0.0000 N   0  0  0  0  0  0  0  0  0  0  0  0
    8.9737  -16.6251    0.0000 O   0  0  0  0  0  0  0  0  0  0  0  0
    8.9776  -17.4423    0.0000 C   0  0  0  0  0  0  0  0  0  0  0  0
    2.6196  -17.8671    0.0000 C   0  0  0  0  0  0  0  0  0  0  0  0
    1.9118  -17.4586    0.0000 O   0  0  0  0  0  0  0  0  0  0  0  0
    2.6198  -18.6843    0.0000 C   0  0  0  0  0  0  0  0  0  0  0  0
    1.9116  -16.6415    0.0000 C   0  0  0  0  0  0  0  0  0  0  0  0
    1.2038  -16.2330    0.0000 C   0  0  0  0  0  0  0  0  0  0  0  0
    2.6192  -16.2327    0.0000 O   0  0  0  0  0  0  0  0  0  0  0  0
  1  2  2  0
  2  3  1  0
  3  6  2  0
  5  4  2  0
  4  1  1  0
  5  6  1  0
  6  7  1  0
  7  8  2  0
  8  9  1  0
  9 10  2  0
 10  5  1  0
 10 11  1  0
 11 12  1  0
 12 13  2  0
 13 14  1  0
 14 15  2  0
 15 16  1  0
 16 17  2  0
 17 12  1  0
  8 18  1  0
 18 19  2  0
 19 20  1  0
 20 21  2  0
 21 22  1  0
 22 23  2  0
 23 18  1  0
  1 24  1  0
 14 25  1  0
 25 26  1  0
 24 27  2  3
 27 28  1  0
 27 29  1  0
 28 30  1  0
 30 31  1  0
 30 32  2  0
M  END
>  <Classification>  (620) 
1

>  <pchembl>  (620) 
5.28

>  <InChI_steorem>  (620) 
InChI=1S/C24H21N5O3/c1-15(32-16(2)30)26-19-9-10-22-21(13-19)24(27-18-7-4-8-20(12-18)31-3)29-23(28-22)17-6-5-11-25-14-17/h4-14H,1-3H3,(H,27,28,29)

>  <source>  (620) 
ChEMBL26

>  <source_id>  (620) 
26

>  <optional_reference>  (620) 
10.1021/acs.jmedchem.8b01011

>  <optional_origin>  (620) 
None

>  <target>  (620) 
BCRP

$$$$

     RDKit          2D

 32 35  0  0  0  0  0  0  0  0999 V2000
   41.0851  -18.2877    0.0000 C   0  0  0  0  0  0  0  0  0  0  0  0
   41.0840  -19.1114    0.0000 C   0  0  0  0  0  0  0  0  0  0  0  0
   41.7962  -19.5245    0.0000 C   0  0  0  0  0  0  0  0  0  0  0  0
   41.7944  -17.8789    0.0000 C   0  0  0  0  0  0  0  0  0  0  0  0
   42.5071  -18.2841    0.0000 C   0  0  0  0  0  0  0  0  0  0  0  0
   42.5079  -19.1073    0.0000 C   0  0  0  0  0  0  0  0  0  0  0  0
   43.2206  -19.5184    0.0000 N   0  0  0  0  0  0  0  0  0  0  0  0
   43.9288  -19.1035    0.0000 C   0  0  0  0  0  0  0  0  0  0  0  0
   43.9241  -18.2772    0.0000 N   0  0  0  0  0  0  0  0  0  0  0  0
   43.2150  -17.8739    0.0000 C   0  0  0  0  0  0  0  0  0  0  0  0
   43.2106  -17.0526    0.0000 N   0  0  0  0  0  0  0  0  0  0  0  0
   43.9162  -16.6361    0.0000 C   0  0  0  0  0  0  0  0  0  0  0  0
   44.6256  -17.0484    0.0000 C   0  0  0  0  0  0  0  0  0  0  0  0
   45.3348  -16.6327    0.0000 C   0  0  0  0  0  0  0  0  0  0  0  0
   45.3309  -15.8105    0.0000 C   0  0  0  0  0  0  0  0  0  0  0  0
   44.6119  -15.4058    0.0000 C   0  0  0  0  0  0  0  0  0  0  0  0
   43.9056  -15.8198    0.0000 C   0  0  0  0  0  0  0  0  0  0  0  0
   44.6422  -19.5135    0.0000 C   0  0  0  0  0  0  0  0  0  0  0  0
   44.6405  -20.3318    0.0000 C   0  0  0  0  0  0  0  0  0  0  0  0
   45.3531  -20.7376    0.0000 C   0  0  0  0  0  0  0  0  0  0  0  0
   46.0643  -20.3262    0.0000 C   0  0  0  0  0  0  0  0  0  0  0  0
   46.0585  -19.5006    0.0000 C   0  0  0  0  0  0  0  0  0  0  0  0
   45.3454  -19.0945    0.0000 C   0  0  0  0  0  0  0  0  0  0  0  0
   40.3725  -17.8795    0.0000 N   0  0  0  0  0  0  0  0  0  0  0  0
   39.6608  -18.2883    0.0000 O   0  0  0  0  0  0  0  0  0  0  0  0
   40.3723  -17.0582    0.0000 O   0  0  0  0  0  0  0  0  0  0  0  0
   46.7673  -19.0827    0.0000 C   0  0  0  0  0  0  0  0  0  0  0  0
   47.4821  -19.4902    0.0000 F   0  0  0  0  0  0  0  0  0  0  0  0
   46.7612  -18.2614    0.0000 F   0  0  0  0  0  0  0  0  0  0  0  0
   47.4755  -18.6675    0.0000 F   0  0  0  0  0  0  0  0  0  0  0  0
   44.6047  -14.5845    0.0000 O   0  0  0  0  0  0  0  0  0  0  0  0
   45.3129  -14.1656    0.0000 C   0  0  0  0  0  0  0  0  0  0  0  0
  1  2  2  0
  2  3  1  0
  3  6  2  0
  5  4  2  0
  4  1  1  0
  5  6  1  0
  6  7  1  0
  7  8  2  0
  8  9  1  0
  9 10  2  0
 10  5  1  0
 10 11  1  0
 11 12  1  0
 12 13  2  0
 13 14  1  0
 14 15  2  0
 15 16  1  0
 16 17  2  0
 17 12  1  0
  8 18  1  0
 18 19  2  0
 19 20  1  0
 20 21  2  0
 21 22  1  0
 22 23  2  0
 23 18  1  0
 24 25  2  0
 24 26  1  0
  1 24  1  0
 22 27  1  0
 27 28  1  0
 27 29  1  0
 27 30  1  0
 16 31  1  0
 31 32  1  0
M  CHG  2  24   1  26  -1
M  END
>  <Classification>  (621) 
1

>  <pchembl>  (621) 
7.23

>  <InChI_steorem>  (621) 
InChI=1S/C22H15F3N4O3/c1-32-17-7-3-6-15(11-17)26-21-18-12-16(29(30)31)8-9-19(18)27-20(28-21)13-4-2-5-14(10-13)22(23,24)25/h2-12H,1H3,(H,26,27,28)

>  <source>  (621) 
ChEMBL26

>  <source_id>  (621) 
26

>  <optional_reference>  (621) 
10.1021/acs.jmedchem.8b01011

>  <optional_origin>  (621) 
None

>  <target>  (621) 
BCRP

$$$$

     RDKit          2D

 32 35  0  0  0  0  0  0  0  0999 V2000
    8.4429  -12.3404    0.0000 C   0  0  0  0  0  0  0  0  0  0  0  0
    8.4417  -13.1640    0.0000 C   0  0  0  0  0  0  0  0  0  0  0  0
    9.1539  -13.5771    0.0000 C   0  0  0  0  0  0  0  0  0  0  0  0
    9.1521  -11.9315    0.0000 C   0  0  0  0  0  0  0  0  0  0  0  0
    9.8649  -12.3368    0.0000 C   0  0  0  0  0  0  0  0  0  0  0  0
    9.8656  -13.1599    0.0000 C   0  0  0  0  0  0  0  0  0  0  0  0
   10.5783  -13.5711    0.0000 N   0  0  0  0  0  0  0  0  0  0  0  0
   11.2866  -13.1562    0.0000 C   0  0  0  0  0  0  0  0  0  0  0  0
   11.2818  -12.3299    0.0000 N   0  0  0  0  0  0  0  0  0  0  0  0
   10.5727  -11.9265    0.0000 C   0  0  0  0  0  0  0  0  0  0  0  0
   11.9964  -13.5621    0.0000 C   0  0  0  0  0  0  0  0  0  0  0  0
   11.9983  -14.3845    0.0000 C   0  0  0  0  0  0  0  0  0  0  0  0
   12.7109  -14.7902    0.0000 C   0  0  0  0  0  0  0  0  0  0  0  0
   13.4221  -14.3788    0.0000 C   0  0  0  0  0  0  0  0  0  0  0  0
   13.4163  -13.5533    0.0000 C   0  0  0  0  0  0  0  0  0  0  0  0
   12.7031  -13.1471    0.0000 C   0  0  0  0  0  0  0  0  0  0  0  0
   10.5684  -11.1052    0.0000 N   0  0  0  0  0  0  0  0  0  0  0  0
   11.2739  -10.6888    0.0000 C   0  0  0  0  0  0  0  0  0  0  0  0
   11.9833  -11.1011    0.0000 C   0  0  0  0  0  0  0  0  0  0  0  0
   12.6925  -10.6853    0.0000 C   0  0  0  0  0  0  0  0  0  0  0  0
   12.6886   -9.8631    0.0000 C   0  0  0  0  0  0  0  0  0  0  0  0
   11.9696   -9.4585    0.0000 C   0  0  0  0  0  0  0  0  0  0  0  0
   11.2634   -9.8725    0.0000 C   0  0  0  0  0  0  0  0  0  0  0  0
   12.7140  -15.6107    0.0000 N   0  0  0  0  0  0  0  0  0  0  0  0
   13.4231  -16.0169    0.0000 O   0  0  0  0  0  0  0  0  0  0  0  0
   12.0077  -16.0216    0.0000 O   0  0  0  0  0  0  0  0  0  0  0  0
   11.9625   -8.6413    0.0000 O   0  0  0  0  0  0  0  0  0  0  0  0
   13.3931   -9.4490    0.0000 O   0  0  0  0  0  0  0  0  0  0  0  0
   14.1040   -9.8520    0.0000 C   0  0  0  0  0  0  0  0  0  0  0  0
   12.6666   -8.2265    0.0000 C   0  0  0  0  0  0  0  0  0  0  0  0
   12.6594   -7.4094    0.0000 C   0  0  0  0  0  0  0  0  0  0  0  0
   14.1104  -10.6692    0.0000 C   0  0  0  0  0  0  0  0  0  0  0  0
  1  2  2  0
  2  3  1  0
  3  6  2  0
  5  4  2  0
  4  1  1  0
  5  6  1  0
  6  7  1  0
  7  8  2  0
  8  9  1  0
  9 10  2  0
 10  5  1  0
 11 12  2  0
 12 13  1  0
 13 14  2  0
 14 15  1  0
 15 16  2  0
 16 11  1  0
  8 11  1  0
 10 17  1  0
 17 18  1  0
 18 19  2  0
 19 20  1  0
 20 21  2  0
 21 22  1  0
 22 23  2  0
 23 18  1  0
 24 25  2  0
 24 26  1  0
 13 24  1  0
 22 27  1  0
 21 28  1  0
 28 29  1  0
 27 30  1  0
 30 31  1  0
 29 32  1  0
M  CHG  2  24   1  26  -1
M  END
>  <Classification>  (622) 
1

>  <pchembl>  (622) 
6.68

>  <InChI_steorem>  (622) 
InChI=1S/C24H22N4O4/c1-3-31-21-13-12-17(15-22(21)32-4-2)25-24-19-10-5-6-11-20(19)26-23(27-24)16-8-7-9-18(14-16)28(29)30/h5-15H,3-4H2,1-2H3,(H,25,26,27)

>  <source>  (622) 
ChEMBL26

>  <source_id>  (622) 
26

>  <optional_reference>  (622) 
10.1016/j.ejmech.2017.08.020

>  <optional_origin>  (622) 
None

>  <target>  (622) 
BCRP

$$$$

     RDKit          2D

 32 35  0  0  0  0  0  0  0  0999 V2000
    9.7388  -10.4006    0.0000 C   0  0  0  0  0  0  0  0  0  0  0  0
    9.7377  -11.2242    0.0000 C   0  0  0  0  0  0  0  0  0  0  0  0
   10.4499  -11.6373    0.0000 C   0  0  0  0  0  0  0  0  0  0  0  0
   11.1637  -11.2238    0.0000 C   0  0  0  0  0  0  0  0  0  0  0  0
   11.1608  -10.3970    0.0000 C   0  0  0  0  0  0  0  0  0  0  0  0
   10.4481   -9.9917    0.0000 C   0  0  0  0  0  0  0  0  0  0  0  0
   11.8711   -9.9857    0.0000 C   0  0  0  0  0  0  0  0  0  0  0  0
   12.6226  -10.3128    0.0000 N   0  0  0  0  0  0  0  0  0  0  0  0
   13.1713   -9.6993    0.0000 N   0  0  0  0  0  0  0  0  0  0  0  0
   12.7559   -8.9889    0.0000 N   0  0  0  0  0  0  0  0  0  0  0  0
   11.9531   -9.1661    0.0000 N   0  0  0  0  0  0  0  0  0  0  0  0
   13.9913   -9.6990    0.0000 C   0  0  0  0  0  0  0  0  0  0  0  0
   14.3977  -10.4118    0.0000 C   0  0  0  0  0  0  0  0  0  0  0  0
   15.2169  -10.4119    0.0000 C   0  0  0  0  0  0  0  0  0  0  0  0
   15.6296   -9.7005    0.0000 C   0  0  0  0  0  0  0  0  0  0  0  0
   15.2128   -8.9876    0.0000 C   0  0  0  0  0  0  0  0  0  0  0  0
   14.3949   -8.9910    0.0000 C   0  0  0  0  0  0  0  0  0  0  0  0
   16.4509   -9.6991    0.0000 O   0  0  0  0  0  0  0  0  0  0  0  0
   16.8607  -10.4103    0.0000 C   0  0  0  0  0  0  0  0  0  0  0  0
   10.4497  -12.4545    0.0000 N   0  0  0  0  0  0  0  0  0  0  0  0
   11.1573  -12.8633    0.0000 C   0  0  0  0  0  0  0  0  0  0  0  0
   11.1571  -13.6805    0.0000 C   0  0  0  0  0  0  0  0  0  0  0  0
   11.8651  -12.4549    0.0000 O   0  0  0  0  0  0  0  0  0  0  0  0
   10.4488  -14.0846    0.0000 C   0  0  0  0  0  0  0  0  0  0  0  0
   10.4483  -14.9010    0.0000 C   0  0  0  0  0  0  0  0  0  0  0  0
   11.1564  -15.3106    0.0000 C   0  0  0  0  0  0  0  0  0  0  0  0
   11.8666  -14.8978    0.0000 C   0  0  0  0  0  0  0  0  0  0  0  0
   11.8637  -14.0827    0.0000 C   0  0  0  0  0  0  0  0  0  0  0  0
   11.1573  -16.1278    0.0000 C   0  0  0  0  0  0  0  0  0  0  0  0
   10.4501  -16.5372    0.0000 F   0  0  0  0  0  0  0  0  0  0  0  0
   11.8655  -16.5357    0.0000 F   0  0  0  0  0  0  0  0  0  0  0  0
   11.1518  -16.9423    0.0000 F   0  0  0  0  0  0  0  0  0  0  0  0
  1  2  2  0
  2  3  1  0
  3  4  2  0
  4  5  1  0
  5  6  2  0
  6  1  1  0
  5  7  1  0
  7  8  2  0
  8  9  1  0
  9 10  1  0
 10 11  2  0
 11  7  1  0
  9 12  1  0
 12 13  2  0
 13 14  1  0
 14 15  2  0
 15 16  1  0
 16 17  2  0
 17 12  1  0
 15 18  1  0
 18 19  1  0
  3 20  1  0
 20 21  1  0
 21 22  1  0
 21 23  2  0
 22 24  2  0
 24 25  1  0
 25 26  2  0
 26 27  1  0
 27 28  2  0
 28 22  1  0
 26 29  1  0
 29 30  1  0
 29 31  1  0
 29 32  1  0
M  END
>  <Classification>  (623) 
0

>  <pchembl>  (623) 
4.73

>  <InChI_steorem>  (623) 
InChI=1S/C22H16F3N5O2/c1-32-19-11-9-18(10-12-19)30-28-20(27-29-30)15-3-2-4-17(13-15)26-21(31)14-5-7-16(8-6-14)22(23,24)25/h2-13H,1H3,(H,26,31)

>  <source>  (623) 
ChEMBL26

>  <source_id>  (623) 
26

>  <optional_reference>  (623) 
10.1016/j.ejmech.2018.01.012

>  <optional_origin>  (623) 
None

>  <target>  (623) 
BCRP

$$$$

     RDKit          2D

 32 36  0  0  0  0  0  0  0  0999 V2000
    2.0085   -3.4999    0.0000 C   0  0  0  0  0  0  0  0  0  0  0  0
    2.0074   -4.3235    0.0000 C   0  0  0  0  0  0  0  0  0  0  0  0
    2.7196   -4.7366    0.0000 C   0  0  0  0  0  0  0  0  0  0  0  0
    3.4334   -4.3230    0.0000 C   0  0  0  0  0  0  0  0  0  0  0  0
    3.4305   -3.4963    0.0000 C   0  0  0  0  0  0  0  0  0  0  0  0
    2.7178   -3.0910    0.0000 C   0  0  0  0  0  0  0  0  0  0  0  0
    4.1408   -3.0850    0.0000 C   0  0  0  0  0  0  0  0  0  0  0  0
    4.8923   -3.4120    0.0000 N   0  0  0  0  0  0  0  0  0  0  0  0
    5.4410   -2.7986    0.0000 N   0  0  0  0  0  0  0  0  0  0  0  0
    5.0256   -2.0882    0.0000 N   0  0  0  0  0  0  0  0  0  0  0  0
    4.2228   -2.2654    0.0000 N   0  0  0  0  0  0  0  0  0  0  0  0
    6.2610   -2.7983    0.0000 C   0  0  0  0  0  0  0  0  0  0  0  0
    6.6674   -3.5111    0.0000 C   0  0  0  0  0  0  0  0  0  0  0  0
    7.4866   -3.5112    0.0000 C   0  0  0  0  0  0  0  0  0  0  0  0
    7.8992   -2.7998    0.0000 C   0  0  0  0  0  0  0  0  0  0  0  0
    7.4825   -2.0869    0.0000 C   0  0  0  0  0  0  0  0  0  0  0  0
    6.6646   -2.0903    0.0000 C   0  0  0  0  0  0  0  0  0  0  0  0
    4.1421   -4.7299    0.0000 N   0  0  0  0  0  0  0  0  0  0  0  0
    4.1441   -5.5471    0.0000 C   0  0  0  0  0  0  0  0  0  0  0  0
    4.8528   -5.9539    0.0000 C   0  0  0  0  0  0  0  0  0  0  0  0
    3.4374   -5.9574    0.0000 O   0  0  0  0  0  0  0  0  0  0  0  0
    8.7164   -2.7984    0.0000 O   0  0  0  0  0  0  0  0  0  0  0  0
    9.1262   -3.5054    0.0000 C   0  0  0  0  0  0  0  0  0  0  0  0
    4.8529   -6.7697    0.0000 C   0  0  0  0  0  0  0  0  0  0  0  0
    5.5608   -7.1765    0.0000 N   0  0  0  0  0  0  0  0  0  0  0  0
    5.5553   -5.5416    0.0000 C   0  0  0  0  0  0  0  0  0  0  0  0
    6.2604   -5.9441    0.0000 C   0  0  0  0  0  0  0  0  0  0  0  0
    6.2667   -6.7627    0.0000 C   0  0  0  0  0  0  0  0  0  0  0  0
    6.9776   -7.1648    0.0000 C   0  0  0  0  0  0  0  0  0  0  0  0
    7.6828   -6.7494    0.0000 C   0  0  0  0  0  0  0  0  0  0  0  0
    7.6725   -5.9277    0.0000 C   0  0  0  0  0  0  0  0  0  0  0  0
    6.9610   -5.5293    0.0000 C   0  0  0  0  0  0  0  0  0  0  0  0
  1  2  2  0
  2  3  1  0
  3  4  2  0
  4  5  1  0
  5  6  2  0
  6  1  1  0
  5  7  1  0
  7  8  2  0
  8  9  1  0
  9 10  1  0
 10 11  2  0
 11  7  1  0
  9 12  1  0
 12 13  2  0
 13 14  1  0
 14 15  2  0
 15 16  1  0
 16 17  2  0
 17 12  1  0
  4 18  1  0
 18 19  1  0
 19 20  1  0
 19 21  2  0
 15 22  1  0
 22 23  1  0
 20 24  2  0
 24 25  1  0
 25 28  2  0
 26 20  1  0
 26 27  2  0
 27 28  1  0
 28 29  1  0
 29 30  2  0
 30 31  1  0
 31 32  2  0
 32 27  1  0
M  END
>  <Classification>  (624) 
1

>  <pchembl>  (624) 
6.64

>  <InChI_steorem>  (624) 
InChI=1S/C24H18N6O2/c1-32-19-12-10-18(11-13-19)30-28-23(27-29-30)20-7-3-5-9-22(20)26-24(31)17-14-16-6-2-4-8-21(16)25-15-17/h2-15H,1H3,(H,26,31)

>  <source>  (624) 
ChEMBL26

>  <source_id>  (624) 
26

>  <optional_reference>  (624) 
10.1016/j.ejmech.2018.01.012

>  <optional_origin>  (624) 
None

>  <target>  (624) 
BCRP

$$$$

     RDKit          2D

 32 36  0  0  0  0  0  0  0  0999 V2000
   26.7802  -26.2656    0.0000 C   0  0  0  0  0  0  0  0  0  0  0  0
   26.7790  -27.0893    0.0000 C   0  0  0  0  0  0  0  0  0  0  0  0
   27.4912  -27.5024    0.0000 C   0  0  0  0  0  0  0  0  0  0  0  0
   28.2050  -27.0888    0.0000 C   0  0  0  0  0  0  0  0  0  0  0  0
   28.2022  -26.2620    0.0000 C   0  0  0  0  0  0  0  0  0  0  0  0
   27.4894  -25.8568    0.0000 C   0  0  0  0  0  0  0  0  0  0  0  0
   28.9124  -25.8508    0.0000 C   0  0  0  0  0  0  0  0  0  0  0  0
   29.6640  -26.1778    0.0000 N   0  0  0  0  0  0  0  0  0  0  0  0
   30.2126  -25.5644    0.0000 N   0  0  0  0  0  0  0  0  0  0  0  0
   29.7972  -24.8540    0.0000 N   0  0  0  0  0  0  0  0  0  0  0  0
   28.9944  -25.0312    0.0000 N   0  0  0  0  0  0  0  0  0  0  0  0
   31.0326  -25.5641    0.0000 C   0  0  0  0  0  0  0  0  0  0  0  0
   31.4390  -26.2769    0.0000 C   0  0  0  0  0  0  0  0  0  0  0  0
   32.2582  -26.2770    0.0000 C   0  0  0  0  0  0  0  0  0  0  0  0
   32.6709  -25.5656    0.0000 C   0  0  0  0  0  0  0  0  0  0  0  0
   32.2542  -24.8527    0.0000 C   0  0  0  0  0  0  0  0  0  0  0  0
   31.4363  -24.8561    0.0000 C   0  0  0  0  0  0  0  0  0  0  0  0
   28.9137  -27.4957    0.0000 N   0  0  0  0  0  0  0  0  0  0  0  0
   28.9157  -28.3129    0.0000 C   0  0  0  0  0  0  0  0  0  0  0  0
   29.6244  -28.7197    0.0000 C   0  0  0  0  0  0  0  0  0  0  0  0
   28.2090  -28.7232    0.0000 O   0  0  0  0  0  0  0  0  0  0  0  0
   33.4881  -25.5642    0.0000 O   0  0  0  0  0  0  0  0  0  0  0  0
   33.8979  -26.2712    0.0000 C   0  0  0  0  0  0  0  0  0  0  0  0
   29.6245  -29.5355    0.0000 C   0  0  0  0  0  0  0  0  0  0  0  0
   30.3324  -29.9423    0.0000 C   0  0  0  0  0  0  0  0  0  0  0  0
   31.0401  -29.5319    0.0000 C   0  0  0  0  0  0  0  0  0  0  0  0
   30.3270  -28.3074    0.0000 C   0  0  0  0  0  0  0  0  0  0  0  0
   31.0320  -28.7099    0.0000 C   0  0  0  0  0  0  0  0  0  0  0  0
   31.7310  -28.3007    0.0000 C   0  0  0  0  0  0  0  0  0  0  0  0
   31.7261  -27.4891    0.0000 C   0  0  0  0  0  0  0  0  0  0  0  0
   31.0165  -27.0885    0.0000 C   0  0  0  0  0  0  0  0  0  0  0  0
   30.3204  -27.5000    0.0000 C   0  0  0  0  0  0  0  0  0  0  0  0
  1  2  2  0
  2  3  1  0
  3  4  2  0
  4  5  1  0
  5  6  2  0
  6  1  1  0
  5  7  1  0
  7  8  2  0
  8  9  1  0
  9 10  1  0
 10 11  2  0
 11  7  1  0
  9 12  1  0
 12 13  2  0
 13 14  1  0
 14 15  2  0
 15 16  1  0
 16 17  2  0
 17 12  1  0
  4 18  1  0
 18 19  1  0
 19 20  1  0
 19 21  2  0
 15 22  1  0
 22 23  1  0
 20 24  2  0
 24 25  1  0
 25 26  2  0
 26 28  1  0
 27 20  1  0
 27 28  2  0
 28 29  1  0
 29 30  2  0
 30 31  1  0
 31 32  2  0
 32 27  1  0
M  END
>  <Classification>  (625) 
1

>  <pchembl>  (625) 
6.57

>  <InChI_steorem>  (625) 
InChI=1S/C25H19N5O2/c1-32-19-15-13-18(14-16-19)30-28-24(27-29-30)22-10-4-5-12-23(22)26-25(31)21-11-6-8-17-7-2-3-9-20(17)21/h2-16H,1H3,(H,26,31)

>  <source>  (625) 
ChEMBL26

>  <source_id>  (625) 
26

>  <optional_reference>  (625) 
10.1016/j.ejmech.2018.01.012

>  <optional_origin>  (625) 
None

>  <target>  (625) 
BCRP

$$$$

     RDKit          2D

 33 36  0  0  0  0  0  0  0  0999 V2000
    0.5351  -18.0814    0.0000 C   0  0  0  0  0  0  0  0  0  0  0  0
    0.5340  -18.9050    0.0000 C   0  0  0  0  0  0  0  0  0  0  0  0
    1.2461  -19.3181    0.0000 C   0  0  0  0  0  0  0  0  0  0  0  0
    1.2444  -17.6725    0.0000 C   0  0  0  0  0  0  0  0  0  0  0  0
    1.9571  -18.0778    0.0000 C   0  0  0  0  0  0  0  0  0  0  0  0
    1.9579  -18.9009    0.0000 C   0  0  0  0  0  0  0  0  0  0  0  0
    2.6705  -19.3121    0.0000 N   0  0  0  0  0  0  0  0  0  0  0  0
    3.3788  -18.8971    0.0000 C   0  0  0  0  0  0  0  0  0  0  0  0
    3.3741  -18.0709    0.0000 N   0  0  0  0  0  0  0  0  0  0  0  0
    2.6649  -17.6675    0.0000 C   0  0  0  0  0  0  0  0  0  0  0  0
    4.0887  -19.3030    0.0000 C   0  0  0  0  0  0  0  0  0  0  0  0
    4.0905  -20.1255    0.0000 C   0  0  0  0  0  0  0  0  0  0  0  0
    4.8031  -20.5312    0.0000 C   0  0  0  0  0  0  0  0  0  0  0  0
    5.5143  -20.1198    0.0000 C   0  0  0  0  0  0  0  0  0  0  0  0
    5.5085  -19.2943    0.0000 C   0  0  0  0  0  0  0  0  0  0  0  0
    4.7953  -18.8881    0.0000 C   0  0  0  0  0  0  0  0  0  0  0  0
    2.6606  -16.8462    0.0000 N   0  0  0  0  0  0  0  0  0  0  0  0
    3.3661  -16.4297    0.0000 C   0  0  0  0  0  0  0  0  0  0  0  0
    4.0756  -16.8421    0.0000 C   0  0  0  0  0  0  0  0  0  0  0  0
    4.7847  -16.4263    0.0000 C   0  0  0  0  0  0  0  0  0  0  0  0
    4.7808  -15.6041    0.0000 C   0  0  0  0  0  0  0  0  0  0  0  0
    4.0619  -15.1995    0.0000 C   0  0  0  0  0  0  0  0  0  0  0  0
    3.3556  -15.6135    0.0000 C   0  0  0  0  0  0  0  0  0  0  0  0
    6.2236  -20.5256    0.0000 O   0  0  0  0  0  0  0  0  0  0  0  0
    6.2268  -21.3428    0.0000 C   0  0  0  0  0  0  0  0  0  0  0  0
    6.2135  -18.8811    0.0000 O   0  0  0  0  0  0  0  0  0  0  0  0
    6.9239  -19.2852    0.0000 C   0  0  0  0  0  0  0  0  0  0  0  0
    5.4961  -16.8301    0.0000 N   0  0  0  0  0  0  0  0  0  0  0  0
    6.2015  -16.4174    0.0000 O   0  0  0  0  0  0  0  0  0  0  0  0
    5.5008  -17.6472    0.0000 O   0  0  0  0  0  0  0  0  0  0  0  0
    4.0546  -14.3784    0.0000 N   0  0  0  0  0  0  0  0  0  0  0  0
    3.3434  -13.9761    0.0000 O   0  0  0  0  0  0  0  0  0  0  0  0
    4.7587  -13.9636    0.0000 O   0  0  0  0  0  0  0  0  0  0  0  0
  1  2  2  0
  2  3  1  0
  3  6  2  0
  5  4  2  0
  4  1  1  0
  5  6  1  0
  6  7  1  0
  7  8  2  0
  8  9  1  0
  9 10  2  0
 10  5  1  0
 11 12  2  0
 12 13  1  0
 13 14  2  0
 14 15  1  0
 15 16  2  0
 16 11  1  0
  8 11  1  0
 10 17  1  0
 17 18  1  0
 18 19  2  0
 19 20  1  0
 20 21  2  0
 21 22  1  0
 22 23  2  0
 23 18  1  0
 14 24  1  0
 24 25  1  0
 15 26  1  0
 26 27  1  0
 28 29  2  0
 28 30  1  0
 20 28  1  0
 31 32  2  0
 31 33  1  0
 22 31  1  0
M  CHG  4  28   1  30  -1  31   1  33  -1
M  END
>  <Classification>  (626) 
1

>  <pchembl>  (626) 
6.21

>  <InChI_steorem>  (626) 
InChI=1S/C22H17N5O6/c1-32-19-8-7-13(9-20(19)33-2)21-24-18-6-4-3-5-17(18)22(25-21)23-14-10-15(26(28)29)12-16(11-14)27(30)31/h3-12H,1-2H3,(H,23,24,25)

>  <source>  (626) 
ChEMBL26

>  <source_id>  (626) 
26

>  <optional_reference>  (626) 
10.1016/j.ejmech.2017.08.020

>  <optional_origin>  (626) 
None

>  <target>  (626) 
BCRP

$$$$

     RDKit          2D

 33 36  0  0  0  0  0  0  0  0999 V2000
   14.8401  -19.3732    0.0000 C   0  0  0  0  0  0  0  0  0  0  0  0
   14.8390  -20.1968    0.0000 C   0  0  0  0  0  0  0  0  0  0  0  0
   15.5511  -20.6099    0.0000 C   0  0  0  0  0  0  0  0  0  0  0  0
   16.2649  -20.1964    0.0000 C   0  0  0  0  0  0  0  0  0  0  0  0
   16.2621  -19.3696    0.0000 C   0  0  0  0  0  0  0  0  0  0  0  0
   15.5493  -18.9643    0.0000 C   0  0  0  0  0  0  0  0  0  0  0  0
   16.9724  -18.9583    0.0000 C   0  0  0  0  0  0  0  0  0  0  0  0
   17.7239  -19.2854    0.0000 N   0  0  0  0  0  0  0  0  0  0  0  0
   18.2725  -18.6719    0.0000 N   0  0  0  0  0  0  0  0  0  0  0  0
   17.8571  -17.9615    0.0000 N   0  0  0  0  0  0  0  0  0  0  0  0
   17.0544  -18.1387    0.0000 N   0  0  0  0  0  0  0  0  0  0  0  0
   16.9736  -20.6032    0.0000 N   0  0  0  0  0  0  0  0  0  0  0  0
   16.9757  -21.4204    0.0000 C   0  0  0  0  0  0  0  0  0  0  0  0
   17.6844  -21.8272    0.0000 C   0  0  0  0  0  0  0  0  0  0  0  0
   16.2690  -21.8307    0.0000 O   0  0  0  0  0  0  0  0  0  0  0  0
   17.6844  -22.6431    0.0000 C   0  0  0  0  0  0  0  0  0  0  0  0
   18.3923  -23.0498    0.0000 C   0  0  0  0  0  0  0  0  0  0  0  0
   19.1000  -22.6394    0.0000 C   0  0  0  0  0  0  0  0  0  0  0  0
   19.0953  -21.8180    0.0000 C   0  0  0  0  0  0  0  0  0  0  0  0
   18.3869  -21.4149    0.0000 C   0  0  0  0  0  0  0  0  0  0  0  0
   19.0884  -18.6716    0.0000 C   0  0  0  0  0  0  0  0  0  0  0  0
   19.4948  -19.3803    0.0000 C   0  0  0  0  0  0  0  0  0  0  0  0
   20.3099  -19.3804    0.0000 C   0  0  0  0  0  0  0  0  0  0  0  0
   20.7184  -18.6731    0.0000 C   0  0  0  0  0  0  0  0  0  0  0  0
   20.3058  -17.9643    0.0000 C   0  0  0  0  0  0  0  0  0  0  0  0
   19.4921  -17.9678    0.0000 C   0  0  0  0  0  0  0  0  0  0  0  0
   21.5356  -18.6717    0.0000 O   0  0  0  0  0  0  0  0  0  0  0  0
   21.9454  -19.3787    0.0000 C   0  0  0  0  0  0  0  0  0  0  0  0
   19.8135  -23.0466    0.0000 N   0  0  0  0  0  0  0  0  0  0  0  0
   20.5196  -22.6354    0.0000 O   0  0  0  0  0  0  0  0  0  0  0  0
   19.8166  -23.8638    0.0000 O   0  0  0  0  0  0  0  0  0  0  0  0
   14.1328  -18.9639    0.0000 O   0  0  0  0  0  0  0  0  0  0  0  0
   14.1336  -18.1467    0.0000 C   0  0  0  0  0  0  0  0  0  0  0  0
  1  2  2  0
  2  3  1  0
  3  4  2  0
  4  5  1  0
  5  6  2  0
  6  1  1  0
  5  7  1  0
  7  8  2  0
  8  9  1  0
  9 10  1  0
 10 11  2  0
 11  7  1  0
  4 12  1  0
 12 13  1  0
 13 14  1  0
 13 15  2  0
 14 16  2  0
 16 17  1  0
 17 18  2  0
 18 19  1  0
 19 20  2  0
 20 14  1  0
  9 21  1  0
 21 22  2  0
 22 23  1  0
 23 24  2  0
 24 25  1  0
 25 26  2  0
 26 21  1  0
 24 27  1  0
 27 28  1  0
 29 30  2  0
 29 31  1  0
 18 29  1  0
  1 32  1  0
 32 33  1  0
M  CHG  2  29   1  31  -1
M  END
>  <Classification>  (627) 
1

>  <pchembl>  (627) 
6.89

>  <InChI_steorem>  (627) 
InChI=1S/C22H18N6O5/c1-32-17-9-7-15(8-10-17)27-25-21(24-26-27)19-13-18(33-2)11-12-20(19)23-22(29)14-3-5-16(6-4-14)28(30)31/h3-13H,1-2H3,(H,23,29)

>  <source>  (627) 
ChEMBL26

>  <source_id>  (627) 
26

>  <optional_reference>  (627) 
10.1016/j.ejmech.2018.01.012

>  <optional_origin>  (627) 
None

>  <target>  (627) 
BCRP

$$$$

     RDKit          2D

 33 36  0  0  0  0  0  0  0  0999 V2000
   25.5337  -18.7087    0.0000 C   0  0  0  0  0  0  0  0  0  0  0  0
   25.5326  -19.5324    0.0000 C   0  0  0  0  0  0  0  0  0  0  0  0
   26.2448  -19.9454    0.0000 C   0  0  0  0  0  0  0  0  0  0  0  0
   26.2430  -18.2998    0.0000 C   0  0  0  0  0  0  0  0  0  0  0  0
   26.9557  -18.7051    0.0000 C   0  0  0  0  0  0  0  0  0  0  0  0
   26.9565  -19.5282    0.0000 C   0  0  0  0  0  0  0  0  0  0  0  0
   27.6692  -19.9394    0.0000 N   0  0  0  0  0  0  0  0  0  0  0  0
   28.3774  -19.5245    0.0000 C   0  0  0  0  0  0  0  0  0  0  0  0
   28.3727  -18.6982    0.0000 N   0  0  0  0  0  0  0  0  0  0  0  0
   27.6636  -18.2949    0.0000 C   0  0  0  0  0  0  0  0  0  0  0  0
   29.0873  -19.9304    0.0000 C   0  0  0  0  0  0  0  0  0  0  0  0
   29.0891  -20.7528    0.0000 C   0  0  0  0  0  0  0  0  0  0  0  0
   29.8017  -21.1586    0.0000 C   0  0  0  0  0  0  0  0  0  0  0  0
   30.5129  -20.7472    0.0000 C   0  0  0  0  0  0  0  0  0  0  0  0
   30.5071  -19.9216    0.0000 C   0  0  0  0  0  0  0  0  0  0  0  0
   29.7940  -19.5154    0.0000 C   0  0  0  0  0  0  0  0  0  0  0  0
   27.6592  -17.4735    0.0000 N   0  0  0  0  0  0  0  0  0  0  0  0
   28.3648  -17.0571    0.0000 C   0  0  0  0  0  0  0  0  0  0  0  0
   29.0742  -17.4694    0.0000 C   0  0  0  0  0  0  0  0  0  0  0  0
   29.7834  -17.0536    0.0000 C   0  0  0  0  0  0  0  0  0  0  0  0
   29.7795  -16.2315    0.0000 C   0  0  0  0  0  0  0  0  0  0  0  0
   29.0605  -15.8268    0.0000 C   0  0  0  0  0  0  0  0  0  0  0  0
   28.3542  -16.2408    0.0000 C   0  0  0  0  0  0  0  0  0  0  0  0
   31.2222  -21.1530    0.0000 O   0  0  0  0  0  0  0  0  0  0  0  0
   31.2255  -21.9701    0.0000 C   0  0  0  0  0  0  0  0  0  0  0  0
   31.2122  -19.5085    0.0000 O   0  0  0  0  0  0  0  0  0  0  0  0
   31.9225  -19.9125    0.0000 C   0  0  0  0  0  0  0  0  0  0  0  0
   30.4934  -17.4582    0.0000 C   0  0  0  0  0  0  0  0  0  0  0  0
   30.4981  -18.2754    0.0000 F   0  0  0  0  0  0  0  0  0  0  0  0
   31.1988  -17.0456    0.0000 F   0  0  0  0  0  0  0  0  0  0  0  0
   31.1977  -17.8668    0.0000 F   0  0  0  0  0  0  0  0  0  0  0  0
   30.4839  -15.8173    0.0000 O   0  0  0  0  0  0  0  0  0  0  0  0
   31.1948  -16.2203    0.0000 C   0  0  0  0  0  0  0  0  0  0  0  0
  1  2  2  0
  2  3  1  0
  3  6  2  0
  5  4  2  0
  4  1  1  0
  5  6  1  0
  6  7  1  0
  7  8  2  0
  8  9  1  0
  9 10  2  0
 10  5  1  0
 11 12  2  0
 12 13  1  0
 13 14  2  0
 14 15  1  0
 15 16  2  0
 16 11  1  0
  8 11  1  0
 10 17  1  0
 17 18  1  0
 18 19  2  0
 19 20  1  0
 20 21  2  0
 21 22  1  0
 22 23  2  0
 23 18  1  0
 14 24  1  0
 24 25  1  0
 15 26  1  0
 26 27  1  0
 20 28  1  0
 28 29  1  0
 28 30  1  0
 28 31  1  0
 21 32  1  0
 32 33  1  0
M  END
>  <Classification>  (628) 
1

>  <pchembl>  (628) 
6.1

>  <InChI_steorem>  (628) 
InChI=1S/C24H20F3N3O3/c1-31-19-11-9-15(13-17(19)24(25,26)27)28-23-16-6-4-5-7-18(16)29-22(30-23)14-8-10-20(32-2)21(12-14)33-3/h4-13H,1-3H3,(H,28,29,30)

>  <source>  (628) 
ChEMBL26

>  <source_id>  (628) 
26

>  <optional_reference>  (628) 
10.1016/j.ejmech.2017.08.020

>  <optional_origin>  (628) 
None

>  <target>  (628) 
BCRP

$$$$

     RDKit          2D

 33 36  0  0  0  0  0  0  0  0999 V2000
   30.1893  -25.8694    0.0000 C   0  0  0  0  0  0  0  0  0  0  0  0
   30.1881  -26.6890    0.0000 C   0  0  0  0  0  0  0  0  0  0  0  0
   30.8962  -27.0979    0.0000 C   0  0  0  0  0  0  0  0  0  0  0  0
   30.8944  -25.4606    0.0000 C   0  0  0  0  0  0  0  0  0  0  0  0
   31.6030  -25.8658    0.0000 C   0  0  0  0  0  0  0  0  0  0  0  0
   31.6037  -26.6848    0.0000 C   0  0  0  0  0  0  0  0  0  0  0  0
   32.3123  -27.0919    0.0000 N   0  0  0  0  0  0  0  0  0  0  0  0
   33.0205  -26.6811    0.0000 C   0  0  0  0  0  0  0  0  0  0  0  0
   33.0158  -25.8590    0.0000 N   0  0  0  0  0  0  0  0  0  0  0  0
   32.3067  -25.4556    0.0000 C   0  0  0  0  0  0  0  0  0  0  0  0
   32.3024  -24.6384    0.0000 N   0  0  0  0  0  0  0  0  0  0  0  0
   33.0079  -24.2261    0.0000 C   0  0  0  0  0  0  0  0  0  0  0  0
   33.7132  -24.6343    0.0000 C   0  0  0  0  0  0  0  0  0  0  0  0
   34.4182  -24.2226    0.0000 C   0  0  0  0  0  0  0  0  0  0  0  0
   34.4143  -23.4046    0.0000 C   0  0  0  0  0  0  0  0  0  0  0  0
   33.6995  -22.9999    0.0000 C   0  0  0  0  0  0  0  0  0  0  0  0
   32.9974  -23.4139    0.0000 C   0  0  0  0  0  0  0  0  0  0  0  0
   33.7298  -27.0869    0.0000 C   0  0  0  0  0  0  0  0  0  0  0  0
   33.7281  -27.9011    0.0000 C   0  0  0  0  0  0  0  0  0  0  0  0
   34.4366  -28.3069    0.0000 C   0  0  0  0  0  0  0  0  0  0  0  0
   35.1437  -27.8955    0.0000 C   0  0  0  0  0  0  0  0  0  0  0  0
   35.1379  -27.0741    0.0000 C   0  0  0  0  0  0  0  0  0  0  0  0
   34.4288  -26.6720    0.0000 C   0  0  0  0  0  0  0  0  0  0  0  0
   29.4808  -25.4612    0.0000 N   0  0  0  0  0  0  0  0  0  0  0  0
   28.7731  -25.8700    0.0000 O   0  0  0  0  0  0  0  0  0  0  0  0
   29.4806  -24.6441    0.0000 O   0  0  0  0  0  0  0  0  0  0  0  0
   35.8425  -26.6603    0.0000 C   0  0  0  0  0  0  0  0  0  0  0  0
   36.5532  -27.0636    0.0000 F   0  0  0  0  0  0  0  0  0  0  0  0
   35.8365  -25.8431    0.0000 F   0  0  0  0  0  0  0  0  0  0  0  0
   36.5466  -26.2450    0.0000 F   0  0  0  0  0  0  0  0  0  0  0  0
   33.6923  -22.1789    0.0000 N   0  0  0  0  0  0  0  0  0  0  0  0
   32.9810  -21.7766    0.0000 O   0  0  0  0  0  0  0  0  0  0  0  0
   34.3963  -21.7641    0.0000 O   0  0  0  0  0  0  0  0  0  0  0  0
  1  2  2  0
  2  3  1  0
  3  6  2  0
  5  4  2  0
  4  1  1  0
  5  6  1  0
  6  7  1  0
  7  8  2  0
  8  9  1  0
  9 10  2  0
 10  5  1  0
 10 11  1  0
 11 12  1  0
 12 13  2  0
 13 14  1  0
 14 15  2  0
 15 16  1  0
 16 17  2  0
 17 12  1  0
  8 18  1  0
 18 19  2  0
 19 20  1  0
 20 21  2  0
 21 22  1  0
 22 23  2  0
 23 18  1  0
 24 25  2  0
 24 26  1  0
  1 24  1  0
 22 27  1  0
 27 28  1  0
 27 29  1  0
 27 30  1  0
 31 32  2  0
 31 33  1  0
 16 31  1  0
M  CHG  4  24   1  26  -1  31   1  33  -1
M  END
>  <Classification>  (629) 
1

>  <pchembl>  (629) 
7.18

>  <InChI_steorem>  (629) 
InChI=1S/C21H12F3N5O4/c22-21(23,24)13-4-1-3-12(9-13)19-26-18-8-7-16(29(32)33)11-17(18)20(27-19)25-14-5-2-6-15(10-14)28(30)31/h1-11H,(H,25,26,27)

>  <source>  (629) 
ChEMBL26

>  <source_id>  (629) 
26

>  <optional_reference>  (629) 
10.1021/acs.jmedchem.8b01011

>  <optional_origin>  (629) 
None

>  <target>  (629) 
BCRP

$$$$

     RDKit          2D

 33 36  0  0  0  0  0  0  0  0999 V2000
   39.1742  -25.7786    0.0000 C   0  0  0  0  0  0  0  0  0  0  0  0
   39.1731  -26.6023    0.0000 C   0  0  0  0  0  0  0  0  0  0  0  0
   39.8853  -27.0113    0.0000 C   0  0  0  0  0  0  0  0  0  0  0  0
   39.8835  -25.3656    0.0000 C   0  0  0  0  0  0  0  0  0  0  0  0
   40.5962  -25.7750    0.0000 C   0  0  0  0  0  0  0  0  0  0  0  0
   40.5970  -26.5982    0.0000 C   0  0  0  0  0  0  0  0  0  0  0  0
   41.3096  -27.0052    0.0000 N   0  0  0  0  0  0  0  0  0  0  0  0
   42.0179  -26.5944    0.0000 C   0  0  0  0  0  0  0  0  0  0  0  0
   42.0132  -25.7682    0.0000 N   0  0  0  0  0  0  0  0  0  0  0  0
   41.3041  -25.3607    0.0000 C   0  0  0  0  0  0  0  0  0  0  0  0
   41.2997  -24.5394    0.0000 N   0  0  0  0  0  0  0  0  0  0  0  0
   42.0053  -24.1270    0.0000 C   0  0  0  0  0  0  0  0  0  0  0  0
   42.7147  -24.5352    0.0000 C   0  0  0  0  0  0  0  0  0  0  0  0
   43.4239  -24.1236    0.0000 C   0  0  0  0  0  0  0  0  0  0  0  0
   43.4200  -23.3014    0.0000 C   0  0  0  0  0  0  0  0  0  0  0  0
   42.7010  -22.8926    0.0000 C   0  0  0  0  0  0  0  0  0  0  0  0
   41.9947  -23.3107    0.0000 C   0  0  0  0  0  0  0  0  0  0  0  0
   42.7313  -27.0003    0.0000 C   0  0  0  0  0  0  0  0  0  0  0  0
   42.7296  -27.8186    0.0000 C   0  0  0  0  0  0  0  0  0  0  0  0
   43.4422  -28.2285    0.0000 C   0  0  0  0  0  0  0  0  0  0  0  0
   44.1534  -27.8130    0.0000 C   0  0  0  0  0  0  0  0  0  0  0  0
   44.1476  -26.9874    0.0000 C   0  0  0  0  0  0  0  0  0  0  0  0
   43.4345  -26.5854    0.0000 C   0  0  0  0  0  0  0  0  0  0  0  0
   38.4616  -25.3663    0.0000 N   0  0  0  0  0  0  0  0  0  0  0  0
   37.7499  -25.7792    0.0000 O   0  0  0  0  0  0  0  0  0  0  0  0
   38.4614  -24.5450    0.0000 O   0  0  0  0  0  0  0  0  0  0  0  0
   44.8564  -26.5736    0.0000 C   0  0  0  0  0  0  0  0  0  0  0  0
   45.5712  -26.9769    0.0000 F   0  0  0  0  0  0  0  0  0  0  0  0
   44.8503  -25.7523    0.0000 F   0  0  0  0  0  0  0  0  0  0  0  0
   45.5646  -26.1542    0.0000 F   0  0  0  0  0  0  0  0  0  0  0  0
   44.1320  -22.8831    0.0000 N   0  0  0  0  0  0  0  0  0  0  0  0
   44.1265  -22.0618    0.0000 O   0  0  0  0  0  0  0  0  0  0  0  0
   44.8465  -23.2912    0.0000 O   0  0  0  0  0  0  0  0  0  0  0  0
  1  2  2  0
  2  3  1  0
  3  6  2  0
  5  4  2  0
  4  1  1  0
  5  6  1  0
  6  7  1  0
  7  8  2  0
  8  9  1  0
  9 10  2  0
 10  5  1  0
 10 11  1  0
 11 12  1  0
 12 13  2  0
 13 14  1  0
 14 15  2  0
 15 16  1  0
 16 17  2  0
 17 12  1  0
  8 18  1  0
 18 19  2  0
 19 20  1  0
 20 21  2  0
 21 22  1  0
 22 23  2  0
 23 18  1  0
 24 25  2  0
 24 26  1  0
  1 24  1  0
 22 27  1  0
 27 28  1  0
 27 29  1  0
 27 30  1  0
 31 32  2  0
 31 33  1  0
 15 31  1  0
M  CHG  4  24   1  26  -1  31   1  33  -1
M  END
>  <Classification>  (630) 
1

>  <pchembl>  (630) 
7.21

>  <InChI_steorem>  (630) 
InChI=1S/C21H12F3N5O4/c22-21(23,24)13-3-1-2-12(10-13)19-26-18-9-8-16(29(32)33)11-17(18)20(27-19)25-14-4-6-15(7-5-14)28(30)31/h1-11H,(H,25,26,27)

>  <source>  (630) 
ChEMBL26

>  <source_id>  (630) 
26

>  <optional_reference>  (630) 
10.1021/acs.jmedchem.8b01011

>  <optional_origin>  (630) 
None

>  <target>  (630) 
BCRP

$$$$

     RDKit          2D

 34 37  0  0  0  0  0  0  0  0999 V2000
   11.4805   -5.6212    0.0000 C   0  0  0  0  0  0  0  0  0  0  0  0
   11.4794   -6.4449    0.0000 C   0  0  0  0  0  0  0  0  0  0  0  0
   12.1916   -6.8539    0.0000 C   0  0  0  0  0  0  0  0  0  0  0  0
   12.1898   -5.2083    0.0000 C   0  0  0  0  0  0  0  0  0  0  0  0
   12.9025   -5.6176    0.0000 C   0  0  0  0  0  0  0  0  0  0  0  0
   12.9033   -6.4408    0.0000 C   0  0  0  0  0  0  0  0  0  0  0  0
   13.6159   -6.8479    0.0000 N   0  0  0  0  0  0  0  0  0  0  0  0
   14.3242   -6.4370    0.0000 C   0  0  0  0  0  0  0  0  0  0  0  0
   14.3195   -5.6108    0.0000 N   0  0  0  0  0  0  0  0  0  0  0  0
   13.6104   -5.2033    0.0000 C   0  0  0  0  0  0  0  0  0  0  0  0
   13.6060   -4.3820    0.0000 N   0  0  0  0  0  0  0  0  0  0  0  0
   14.3116   -3.9696    0.0000 C   0  0  0  0  0  0  0  0  0  0  0  0
   15.0210   -4.3779    0.0000 C   0  0  0  0  0  0  0  0  0  0  0  0
   15.7302   -3.9662    0.0000 C   0  0  0  0  0  0  0  0  0  0  0  0
   15.7263   -3.1440    0.0000 C   0  0  0  0  0  0  0  0  0  0  0  0
   15.0073   -2.7352    0.0000 C   0  0  0  0  0  0  0  0  0  0  0  0
   14.3010   -3.1534    0.0000 C   0  0  0  0  0  0  0  0  0  0  0  0
   15.0376   -6.8429    0.0000 C   0  0  0  0  0  0  0  0  0  0  0  0
   15.0359   -7.6612    0.0000 C   0  0  0  0  0  0  0  0  0  0  0  0
   15.7485   -8.0711    0.0000 C   0  0  0  0  0  0  0  0  0  0  0  0
   16.4597   -7.6556    0.0000 C   0  0  0  0  0  0  0  0  0  0  0  0
   16.4539   -6.8301    0.0000 C   0  0  0  0  0  0  0  0  0  0  0  0
   15.7407   -6.4280    0.0000 C   0  0  0  0  0  0  0  0  0  0  0  0
   10.7679   -5.2089    0.0000 N   0  0  0  0  0  0  0  0  0  0  0  0
   10.0562   -5.6218    0.0000 O   0  0  0  0  0  0  0  0  0  0  0  0
   10.7677   -4.3876    0.0000 O   0  0  0  0  0  0  0  0  0  0  0  0
   17.1627   -6.4162    0.0000 C   0  0  0  0  0  0  0  0  0  0  0  0
   17.8775   -6.8196    0.0000 F   0  0  0  0  0  0  0  0  0  0  0  0
   17.1566   -5.5949    0.0000 F   0  0  0  0  0  0  0  0  0  0  0  0
   17.8709   -5.9969    0.0000 F   0  0  0  0  0  0  0  0  0  0  0  0
   15.0001   -1.9140    0.0000 N   0  0  0  0  0  0  0  0  0  0  0  0
   15.7083   -1.4950    0.0000 C   0  0  0  0  0  0  0  0  0  0  0  0
   15.7011   -0.6737    0.0000 O   0  0  0  0  0  0  0  0  0  0  0  0
   16.4237   -1.9015    0.0000 C   0  0  0  0  0  0  0  0  0  0  0  0
  1  2  2  0
  2  3  1  0
  3  6  2  0
  5  4  2  0
  4  1  1  0
  5  6  1  0
  6  7  1  0
  7  8  2  0
  8  9  1  0
  9 10  2  0
 10  5  1  0
 10 11  1  0
 11 12  1  0
 12 13  2  0
 13 14  1  0
 14 15  2  0
 15 16  1  0
 16 17  2  0
 17 12  1  0
  8 18  1  0
 18 19  2  0
 19 20  1  0
 20 21  2  0
 21 22  1  0
 22 23  2  0
 23 18  1  0
 24 25  2  0
 24 26  1  0
  1 24  1  0
 22 27  1  0
 27 28  1  0
 27 29  1  0
 27 30  1  0
 16 31  1  0
 31 32  1  0
 32 33  2  0
 32 34  1  0
M  CHG  2  24   1  26  -1
M  END
>  <Classification>  (631) 
1

>  <pchembl>  (631) 
7.35

>  <InChI_steorem>  (631) 
InChI=1S/C23H16F3N5O3/c1-13(32)27-16-6-3-7-17(11-16)28-22-19-12-18(31(33)34)8-9-20(19)29-21(30-22)14-4-2-5-15(10-14)23(24,25)26/h2-12H,1H3,(H,27,32)(H,28,29,30)

>  <source>  (631) 
ChEMBL26

>  <source_id>  (631) 
26

>  <optional_reference>  (631) 
10.1021/acs.jmedchem.8b01011

>  <optional_origin>  (631) 
None

>  <target>  (631) 
BCRP

$$$$

     RDKit          2D

 34 37  0  0  0  0  0  0  0  0999 V2000
   23.9365  -19.1792    0.0000 C   0  0  0  0  0  0  0  0  0  0  0  0
   23.9354  -20.0029    0.0000 C   0  0  0  0  0  0  0  0  0  0  0  0
   24.6475  -20.4159    0.0000 C   0  0  0  0  0  0  0  0  0  0  0  0
   25.3613  -20.0024    0.0000 C   0  0  0  0  0  0  0  0  0  0  0  0
   25.3585  -19.1756    0.0000 C   0  0  0  0  0  0  0  0  0  0  0  0
   24.6457  -18.7703    0.0000 C   0  0  0  0  0  0  0  0  0  0  0  0
   26.0688  -18.7643    0.0000 C   0  0  0  0  0  0  0  0  0  0  0  0
   26.8203  -19.0914    0.0000 N   0  0  0  0  0  0  0  0  0  0  0  0
   27.3690  -18.4779    0.0000 N   0  0  0  0  0  0  0  0  0  0  0  0
   26.9535  -17.7676    0.0000 N   0  0  0  0  0  0  0  0  0  0  0  0
   26.1508  -17.9447    0.0000 N   0  0  0  0  0  0  0  0  0  0  0  0
   26.0700  -20.4092    0.0000 N   0  0  0  0  0  0  0  0  0  0  0  0
   26.0721  -21.2264    0.0000 C   0  0  0  0  0  0  0  0  0  0  0  0
   26.7808  -21.6333    0.0000 C   0  0  0  0  0  0  0  0  0  0  0  0
   25.3654  -21.6368    0.0000 O   0  0  0  0  0  0  0  0  0  0  0  0
   26.7809  -22.4491    0.0000 C   0  0  0  0  0  0  0  0  0  0  0  0
   27.4887  -22.8558    0.0000 C   0  0  0  0  0  0  0  0  0  0  0  0
   28.1964  -22.4454    0.0000 C   0  0  0  0  0  0  0  0  0  0  0  0
   28.1917  -21.6240    0.0000 C   0  0  0  0  0  0  0  0  0  0  0  0
   27.4833  -21.2210    0.0000 C   0  0  0  0  0  0  0  0  0  0  0  0
   28.1848  -18.4776    0.0000 C   0  0  0  0  0  0  0  0  0  0  0  0
   28.5912  -19.1863    0.0000 C   0  0  0  0  0  0  0  0  0  0  0  0
   29.4063  -19.1864    0.0000 C   0  0  0  0  0  0  0  0  0  0  0  0
   29.8148  -18.4791    0.0000 C   0  0  0  0  0  0  0  0  0  0  0  0
   29.4022  -17.7703    0.0000 C   0  0  0  0  0  0  0  0  0  0  0  0
   28.5885  -17.7738    0.0000 C   0  0  0  0  0  0  0  0  0  0  0  0
   30.6320  -18.4777    0.0000 O   0  0  0  0  0  0  0  0  0  0  0  0
   31.0418  -19.1847    0.0000 C   0  0  0  0  0  0  0  0  0  0  0  0
   28.9057  -22.8513    0.0000 C   0  0  0  0  0  0  0  0  0  0  0  0
   28.9088  -23.6685    0.0000 F   0  0  0  0  0  0  0  0  0  0  0  0
   29.6118  -22.4400    0.0000 F   0  0  0  0  0  0  0  0  0  0  0  0
   29.6087  -23.2569    0.0000 F   0  0  0  0  0  0  0  0  0  0  0  0
   23.2292  -18.7699    0.0000 O   0  0  0  0  0  0  0  0  0  0  0  0
   23.2300  -17.9527    0.0000 C   0  0  0  0  0  0  0  0  0  0  0  0
  1  2  2  0
  2  3  1  0
  3  4  2  0
  4  5  1  0
  5  6  2  0
  6  1  1  0
  5  7  1  0
  7  8  2  0
  8  9  1  0
  9 10  1  0
 10 11  2  0
 11  7  1  0
  4 12  1  0
 12 13  1  0
 13 14  1  0
 13 15  2  0
 14 16  2  0
 16 17  1  0
 17 18  2  0
 18 19  1  0
 19 20  2  0
 20 14  1  0
  9 21  1  0
 21 22  2  0
 22 23  1  0
 23 24  2  0
 24 25  1  0
 25 26  2  0
 26 21  1  0
 24 27  1  0
 27 28  1  0
 18 29  1  0
 29 30  1  0
 29 31  1  0
 29 32  1  0
  1 33  1  0
 33 34  1  0
M  END
>  <Classification>  (632) 
1

>  <pchembl>  (632) 
7.11

>  <InChI_steorem>  (632) 
InChI=1S/C23H18F3N5O3/c1-33-17-9-7-16(8-10-17)31-29-21(28-30-31)19-13-18(34-2)11-12-20(19)27-22(32)14-3-5-15(6-4-14)23(24,25)26/h3-13H,1-2H3,(H,27,32)

>  <source>  (632) 
ChEMBL26

>  <source_id>  (632) 
26

>  <optional_reference>  (632) 
10.1016/j.ejmech.2018.01.012

>  <optional_origin>  (632) 
None

>  <target>  (632) 
BCRP

$$$$

     RDKit          2D

 34 37  0  0  0  0  0  0  0  0999 V2000
    2.4914   -4.9361    0.0000 C   0  0  0  0  0  0  0  0  0  0  0  0
    2.4903   -5.7557    0.0000 C   0  0  0  0  0  0  0  0  0  0  0  0
    3.1983   -6.1646    0.0000 C   0  0  0  0  0  0  0  0  0  0  0  0
    3.1965   -4.5273    0.0000 C   0  0  0  0  0  0  0  0  0  0  0  0
    3.9052   -4.9325    0.0000 C   0  0  0  0  0  0  0  0  0  0  0  0
    3.9059   -5.7515    0.0000 C   0  0  0  0  0  0  0  0  0  0  0  0
    4.6145   -6.1586    0.0000 N   0  0  0  0  0  0  0  0  0  0  0  0
    5.3227   -5.7478    0.0000 C   0  0  0  0  0  0  0  0  0  0  0  0
    5.3180   -4.9257    0.0000 N   0  0  0  0  0  0  0  0  0  0  0  0
    4.6089   -4.5223    0.0000 C   0  0  0  0  0  0  0  0  0  0  0  0
    4.6045   -3.7051    0.0000 N   0  0  0  0  0  0  0  0  0  0  0  0
    5.3101   -3.2928    0.0000 C   0  0  0  0  0  0  0  0  0  0  0  0
    6.0154   -3.7010    0.0000 C   0  0  0  0  0  0  0  0  0  0  0  0
    6.7204   -3.2893    0.0000 C   0  0  0  0  0  0  0  0  0  0  0  0
    6.7165   -2.4713    0.0000 C   0  0  0  0  0  0  0  0  0  0  0  0
    6.0017   -2.0666    0.0000 C   0  0  0  0  0  0  0  0  0  0  0  0
    5.2996   -2.4806    0.0000 C   0  0  0  0  0  0  0  0  0  0  0  0
    6.0320   -6.1536    0.0000 C   0  0  0  0  0  0  0  0  0  0  0  0
    6.0303   -6.9678    0.0000 C   0  0  0  0  0  0  0  0  0  0  0  0
    6.7388   -7.3736    0.0000 C   0  0  0  0  0  0  0  0  0  0  0  0
    7.4458   -6.9622    0.0000 C   0  0  0  0  0  0  0  0  0  0  0  0
    7.4400   -6.1408    0.0000 C   0  0  0  0  0  0  0  0  0  0  0  0
    6.7310   -5.7387    0.0000 C   0  0  0  0  0  0  0  0  0  0  0  0
    1.7829   -4.5279    0.0000 N   0  0  0  0  0  0  0  0  0  0  0  0
    1.0753   -4.9367    0.0000 O   0  0  0  0  0  0  0  0  0  0  0  0
    1.7827   -3.7108    0.0000 O   0  0  0  0  0  0  0  0  0  0  0  0
    8.1447   -5.7270    0.0000 C   0  0  0  0  0  0  0  0  0  0  0  0
    8.8554   -6.1303    0.0000 F   0  0  0  0  0  0  0  0  0  0  0  0
    8.1386   -4.9098    0.0000 F   0  0  0  0  0  0  0  0  0  0  0  0
    8.8488   -5.3117    0.0000 F   0  0  0  0  0  0  0  0  0  0  0  0
    5.9922   -1.2496    0.0000 N   0  0  0  0  0  0  0  0  0  0  0  0
    5.2809   -0.8473    0.0000 O   0  0  0  0  0  0  0  0  0  0  0  0
    6.6963   -0.8348    0.0000 O   0  0  0  0  0  0  0  0  0  0  0  0
    7.4215   -2.0580    0.0000 O   0  0  0  0  0  0  0  0  0  0  0  0
  1  2  2  0
  2  3  1  0
  3  6  2  0
  5  4  2  0
  4  1  1  0
  5  6  1  0
  6  7  1  0
  7  8  2  0
  8  9  1  0
  9 10  2  0
 10  5  1  0
 10 11  1  0
 11 12  1  0
 12 13  2  0
 13 14  1  0
 14 15  2  0
 15 16  1  0
 16 17  2  0
 17 12  1  0
  8 18  1  0
 18 19  2  0
 19 20  1  0
 20 21  2  0
 21 22  1  0
 22 23  2  0
 23 18  1  0
 24 25  2  0
 24 26  1  0
  1 24  1  0
 22 27  1  0
 27 28  1  0
 27 29  1  0
 27 30  1  0
 31 32  2  0
 31 33  1  0
 16 31  1  0
 15 34  1  0
M  CHG  4  24   1  26  -1  31   1  33  -1
M  END
>  <Classification>  (633) 
1

>  <pchembl>  (633) 
7.48

>  <InChI_steorem>  (633) 
InChI=1S/C21H12F3N5O5/c22-21(23,24)12-3-1-2-11(8-12)19-26-16-6-5-14(28(31)32)10-15(16)20(27-19)25-13-4-7-18(30)17(9-13)29(33)34/h1-10,30H,(H,25,26,27)

>  <source>  (633) 
ChEMBL26

>  <source_id>  (633) 
26

>  <optional_reference>  (633) 
10.1021/acs.jmedchem.8b01011

>  <optional_origin>  (633) 
None

>  <target>  (633) 
BCRP

$$$$

     RDKit          2D

 34 37  0  0  0  0  0  0  0  0999 V2000
    2.7060  -26.2326    0.0000 C   0  0  0  0  0  0  0  0  0  0  0  0
    2.7049  -27.0522    0.0000 C   0  0  0  0  0  0  0  0  0  0  0  0
    3.4129  -27.4611    0.0000 C   0  0  0  0  0  0  0  0  0  0  0  0
    3.4112  -25.8238    0.0000 C   0  0  0  0  0  0  0  0  0  0  0  0
    4.1198  -26.2290    0.0000 C   0  0  0  0  0  0  0  0  0  0  0  0
    4.1205  -27.0480    0.0000 C   0  0  0  0  0  0  0  0  0  0  0  0
    4.8291  -27.4551    0.0000 N   0  0  0  0  0  0  0  0  0  0  0  0
    5.5373  -27.0443    0.0000 C   0  0  0  0  0  0  0  0  0  0  0  0
    5.5326  -26.2222    0.0000 N   0  0  0  0  0  0  0  0  0  0  0  0
    4.8235  -25.8188    0.0000 C   0  0  0  0  0  0  0  0  0  0  0  0
    4.8192  -25.0016    0.0000 N   0  0  0  0  0  0  0  0  0  0  0  0
    5.5247  -24.5893    0.0000 C   0  0  0  0  0  0  0  0  0  0  0  0
    6.2300  -24.9975    0.0000 C   0  0  0  0  0  0  0  0  0  0  0  0
    6.9350  -24.5858    0.0000 C   0  0  0  0  0  0  0  0  0  0  0  0
    6.9311  -23.7678    0.0000 C   0  0  0  0  0  0  0  0  0  0  0  0
    6.2163  -23.3631    0.0000 C   0  0  0  0  0  0  0  0  0  0  0  0
    5.5142  -23.7771    0.0000 C   0  0  0  0  0  0  0  0  0  0  0  0
    6.2466  -27.4501    0.0000 C   0  0  0  0  0  0  0  0  0  0  0  0
    6.2449  -28.2643    0.0000 C   0  0  0  0  0  0  0  0  0  0  0  0
    6.9534  -28.6701    0.0000 C   0  0  0  0  0  0  0  0  0  0  0  0
    7.6605  -28.2587    0.0000 C   0  0  0  0  0  0  0  0  0  0  0  0
    7.6546  -27.4373    0.0000 C   0  0  0  0  0  0  0  0  0  0  0  0
    6.9456  -27.0352    0.0000 C   0  0  0  0  0  0  0  0  0  0  0  0
    1.9975  -25.8244    0.0000 N   0  0  0  0  0  0  0  0  0  0  0  0
    1.2899  -26.2332    0.0000 O   0  0  0  0  0  0  0  0  0  0  0  0
    1.9973  -25.0073    0.0000 O   0  0  0  0  0  0  0  0  0  0  0  0
    8.3593  -27.0235    0.0000 C   0  0  0  0  0  0  0  0  0  0  0  0
    9.0700  -27.4309    0.0000 F   0  0  0  0  0  0  0  0  0  0  0  0
    8.3532  -26.2063    0.0000 F   0  0  0  0  0  0  0  0  0  0  0  0
    9.0634  -26.6124    0.0000 F   0  0  0  0  0  0  0  0  0  0  0  0
    6.2091  -22.5460    0.0000 O   0  0  0  0  0  0  0  0  0  0  0  0
    7.6361  -23.3504    0.0000 O   0  0  0  0  0  0  0  0  0  0  0  0
    8.3465  -23.7584    0.0000 C   0  0  0  0  0  0  0  0  0  0  0  0
    6.9131  -22.1311    0.0000 C   0  0  0  0  0  0  0  0  0  0  0  0
  1  2  2  0
  2  3  1  0
  3  6  2  0
  5  4  2  0
  4  1  1  0
  5  6  1  0
  6  7  1  0
  7  8  2  0
  8  9  1  0
  9 10  2  0
 10  5  1  0
 10 11  1  0
 11 12  1  0
 12 13  2  0
 13 14  1  0
 14 15  2  0
 15 16  1  0
 16 17  2  0
 17 12  1  0
  8 18  1  0
 18 19  2  0
 19 20  1  0
 20 21  2  0
 21 22  1  0
 22 23  2  0
 23 18  1  0
 24 25  2  0
 24 26  1  0
  1 24  1  0
 22 27  1  0
 27 28  1  0
 27 29  1  0
 27 30  1  0
 16 31  1  0
 15 32  1  0
 32 33  1  0
 31 34  1  0
M  CHG  2  24   1  26  -1
M  END
>  <Classification>  (634) 
1

>  <pchembl>  (634) 
7.52

>  <InChI_steorem>  (634) 
InChI=1S/C23H17F3N4O4/c1-33-19-9-6-15(11-20(19)34-2)27-22-17-12-16(30(31)32)7-8-18(17)28-21(29-22)13-4-3-5-14(10-13)23(24,25)26/h3-12H,1-2H3,(H,27,28,29)

>  <source>  (634) 
ChEMBL26

>  <source_id>  (634) 
26

>  <optional_reference>  (634) 
10.1021/acs.jmedchem.8b01011

>  <optional_origin>  (634) 
None

>  <target>  (634) 
BCRP

$$$$

     RDKit          2D

 34 37  0  0  0  0  0  0  0  0999 V2000
   40.6889   -5.3777    0.0000 C   0  0  0  0  0  0  0  0  0  0  0  0
   40.6878   -6.2014    0.0000 C   0  0  0  0  0  0  0  0  0  0  0  0
   41.3958   -6.6145    0.0000 C   0  0  0  0  0  0  0  0  0  0  0  0
   41.3940   -4.9689    0.0000 C   0  0  0  0  0  0  0  0  0  0  0  0
   42.1068   -5.3741    0.0000 C   0  0  0  0  0  0  0  0  0  0  0  0
   42.1075   -6.1973    0.0000 C   0  0  0  0  0  0  0  0  0  0  0  0
   42.8202   -6.6085    0.0000 N   0  0  0  0  0  0  0  0  0  0  0  0
   43.5326   -6.1935    0.0000 C   0  0  0  0  0  0  0  0  0  0  0  0
   43.5279   -5.3673    0.0000 N   0  0  0  0  0  0  0  0  0  0  0  0
   42.8146   -4.9639    0.0000 C   0  0  0  0  0  0  0  0  0  0  0  0
   42.8103   -4.1426    0.0000 N   0  0  0  0  0  0  0  0  0  0  0  0
   43.5200   -3.7261    0.0000 C   0  0  0  0  0  0  0  0  0  0  0  0
   44.2294   -4.1385    0.0000 C   0  0  0  0  0  0  0  0  0  0  0  0
   44.9385   -3.7227    0.0000 C   0  0  0  0  0  0  0  0  0  0  0  0
   44.9347   -2.9005    0.0000 C   0  0  0  0  0  0  0  0  0  0  0  0
   44.2157   -2.4959    0.0000 C   0  0  0  0  0  0  0  0  0  0  0  0
   43.5094   -2.9099    0.0000 C   0  0  0  0  0  0  0  0  0  0  0  0
   44.2460   -6.6035    0.0000 C   0  0  0  0  0  0  0  0  0  0  0  0
   44.2443   -7.4218    0.0000 C   0  0  0  0  0  0  0  0  0  0  0  0
   44.9569   -7.8276    0.0000 C   0  0  0  0  0  0  0  0  0  0  0  0
   45.6681   -7.4162    0.0000 C   0  0  0  0  0  0  0  0  0  0  0  0
   45.6623   -6.5907    0.0000 C   0  0  0  0  0  0  0  0  0  0  0  0
   44.9491   -6.1845    0.0000 C   0  0  0  0  0  0  0  0  0  0  0  0
   39.9763   -4.9696    0.0000 N   0  0  0  0  0  0  0  0  0  0  0  0
   39.2646   -5.3783    0.0000 O   0  0  0  0  0  0  0  0  0  0  0  0
   39.9761   -4.1482    0.0000 O   0  0  0  0  0  0  0  0  0  0  0  0
   45.6523   -4.1320    0.0000 C   0  0  0  0  0  0  0  0  0  0  0  0
   45.6563   -4.9533    0.0000 F   0  0  0  0  0  0  0  0  0  0  0  0
   46.3622   -3.7159    0.0000 F   0  0  0  0  0  0  0  0  0  0  0  0
   46.3612   -4.5400    0.0000 F   0  0  0  0  0  0  0  0  0  0  0  0
   44.9597   -8.6489    0.0000 O   0  0  0  0  0  0  0  0  0  0  0  0
   46.3821   -7.8211    0.0000 O   0  0  0  0  0  0  0  0  0  0  0  0
   44.2492   -9.0640    0.0000 C   0  0  0  0  0  0  0  0  0  0  0  0
   47.0876   -7.4088    0.0000 C   0  0  0  0  0  0  0  0  0  0  0  0
  1  2  2  0
  2  3  1  0
  3  6  2  0
  5  4  2  0
  4  1  1  0
  5  6  1  0
  6  7  1  0
  7  8  2  0
  8  9  1  0
  9 10  2  0
 10  5  1  0
 10 11  1  0
 11 12  1  0
 12 13  2  0
 13 14  1  0
 14 15  2  0
 15 16  1  0
 16 17  2  0
 17 12  1  0
  8 18  1  0
 18 19  2  0
 19 20  1  0
 20 21  2  0
 21 22  1  0
 22 23  2  0
 23 18  1  0
 24 25  2  0
 24 26  1  0
  1 24  1  0
 14 27  1  0
 27 28  1  0
 27 29  1  0
 27 30  1  0
 20 31  1  0
 21 32  1  0
 31 33  1  0
 32 34  1  0
M  CHG  2  24   1  26  -1
M  END
>  <Classification>  (635) 
1

>  <pchembl>  (635) 
7.24

>  <InChI_steorem>  (635) 
InChI=1S/C23H17F3N4O4/c1-33-19-9-6-13(10-20(19)34-2)21-28-18-8-7-16(30(31)32)12-17(18)22(29-21)27-15-5-3-4-14(11-15)23(24,25)26/h3-12H,1-2H3,(H,27,28,29)

>  <source>  (635) 
ChEMBL26

>  <source_id>  (635) 
26

>  <optional_reference>  (635) 
10.1021/acs.jmedchem.8b01011

>  <optional_origin>  (635) 
None

>  <target>  (635) 
BCRP

$$$$

     RDKit          2D

 34 38  0  0  0  0  0  0  0  0999 V2000
    1.6330  -17.9782    0.0000 C   0  0  0  0  0  0  0  0  0  0  0  0
    1.6318  -18.8018    0.0000 C   0  0  0  0  0  0  0  0  0  0  0  0
    2.3440  -19.2149    0.0000 C   0  0  0  0  0  0  0  0  0  0  0  0
    3.0578  -18.8014    0.0000 C   0  0  0  0  0  0  0  0  0  0  0  0
    3.0550  -17.9746    0.0000 C   0  0  0  0  0  0  0  0  0  0  0  0
    2.3422  -17.5693    0.0000 C   0  0  0  0  0  0  0  0  0  0  0  0
    3.7652  -17.5633    0.0000 C   0  0  0  0  0  0  0  0  0  0  0  0
    4.5168  -17.8904    0.0000 N   0  0  0  0  0  0  0  0  0  0  0  0
    5.0654  -17.2769    0.0000 N   0  0  0  0  0  0  0  0  0  0  0  0
    4.6500  -16.5665    0.0000 N   0  0  0  0  0  0  0  0  0  0  0  0
    3.8472  -16.7437    0.0000 N   0  0  0  0  0  0  0  0  0  0  0  0
    5.8854  -17.2766    0.0000 C   0  0  0  0  0  0  0  0  0  0  0  0
    6.2918  -17.9894    0.0000 C   0  0  0  0  0  0  0  0  0  0  0  0
    7.1110  -17.9895    0.0000 C   0  0  0  0  0  0  0  0  0  0  0  0
    7.5237  -17.2781    0.0000 C   0  0  0  0  0  0  0  0  0  0  0  0
    7.1070  -16.5652    0.0000 C   0  0  0  0  0  0  0  0  0  0  0  0
    6.2890  -16.5686    0.0000 C   0  0  0  0  0  0  0  0  0  0  0  0
    8.3450  -17.2767    0.0000 O   0  0  0  0  0  0  0  0  0  0  0  0
    8.7548  -17.9878    0.0000 C   0  0  0  0  0  0  0  0  0  0  0  0
    3.7667  -19.2100    0.0000 N   0  0  0  0  0  0  0  0  0  0  0  0
    3.8542  -20.0225    0.0000 N   0  0  0  0  0  0  0  0  0  0  0  0
    4.6540  -20.1904    0.0000 C   0  0  0  0  0  0  0  0  0  0  0  0
    5.0608  -19.4816    0.0000 N   0  0  0  0  0  0  0  0  0  0  0  0
    4.5124  -18.8758    0.0000 N   0  0  0  0  0  0  0  0  0  0  0  0
    4.9882  -20.9361    0.0000 C   0  0  0  0  0  0  0  0  0  0  0  0
    4.5063  -21.5939    0.0000 C   0  0  0  0  0  0  0  0  0  0  0  0
    4.8399  -22.3391    0.0000 C   0  0  0  0  0  0  0  0  0  0  0  0
    5.6536  -22.4230    0.0000 C   0  0  0  0  0  0  0  0  0  0  0  0
    6.1326  -21.7558    0.0000 C   0  0  0  0  0  0  0  0  0  0  0  0
    5.7964  -21.0133    0.0000 C   0  0  0  0  0  0  0  0  0  0  0  0
    5.9888  -23.1683    0.0000 C   0  0  0  0  0  0  0  0  0  0  0  0
    5.5110  -23.8312    0.0000 F   0  0  0  0  0  0  0  0  0  0  0  0
    6.8019  -23.2506    0.0000 F   0  0  0  0  0  0  0  0  0  0  0  0
    6.3931  -23.8719    0.0000 F   0  0  0  0  0  0  0  0  0  0  0  0
  1  2  2  0
  2  3  1  0
  3  4  2  0
  4  5  1  0
  5  6  2  0
  6  1  1  0
  5  7  1  0
  7  8  2  0
  8  9  1  0
  9 10  1  0
 10 11  2  0
 11  7  1  0
  9 12  1  0
 12 13  2  0
 13 14  1  0
 14 15  2  0
 15 16  1  0
 16 17  2  0
 17 12  1  0
 15 18  1  0
 18 19  1  0
 20 21  1  0
 21 22  2  0
 22 23  1  0
 23 24  2  0
 24 20  1  0
  4 20  1  0
 22 25  1  0
 25 26  2  0
 26 27  1  0
 27 28  2  0
 28 29  1  0
 29 30  2  0
 30 25  1  0
 28 31  1  0
 31 32  1  0
 31 33  1  0
 31 34  1  0
M  END
>  <Classification>  (636) 
0

>  <pchembl>  (636) 
4.8

>  <InChI_steorem>  (636) 
InChI=1S/C22H15F3N8O/c1-34-17-12-10-16(11-13-17)32-29-21(27-30-32)18-4-2-3-5-19(18)33-28-20(26-31-33)14-6-8-15(9-7-14)22(23,24)25/h2-13H,1H3

>  <source>  (636) 
ChEMBL26

>  <source_id>  (636) 
26

>  <optional_reference>  (636) 
10.1016/j.ejmech.2018.01.012

>  <optional_origin>  (636) 
None

>  <target>  (636) 
BCRP

$$$$

     RDKit          2D

 34 38  0  0  0  0  0  0  0  0999 V2000
   33.2063  -19.6662    0.0000 C   0  0  0  0  0  0  0  0  0  0  0  0
   33.2051  -20.4899    0.0000 C   0  0  0  0  0  0  0  0  0  0  0  0
   33.9173  -20.9030    0.0000 C   0  0  0  0  0  0  0  0  0  0  0  0
   33.9155  -19.2573    0.0000 C   0  0  0  0  0  0  0  0  0  0  0  0
   34.6283  -19.6626    0.0000 C   0  0  0  0  0  0  0  0  0  0  0  0
   34.6290  -20.4857    0.0000 C   0  0  0  0  0  0  0  0  0  0  0  0
   35.3375  -20.8969    0.0000 N   0  0  0  0  0  0  0  0  0  0  0  0
   36.0499  -20.4820    0.0000 C   0  0  0  0  0  0  0  0  0  0  0  0
   36.0452  -19.6557    0.0000 N   0  0  0  0  0  0  0  0  0  0  0  0
   35.3320  -19.2524    0.0000 C   0  0  0  0  0  0  0  0  0  0  0  0
   35.3276  -18.4311    0.0000 N   0  0  0  0  0  0  0  0  0  0  0  0
   36.0373  -18.0146    0.0000 C   0  0  0  0  0  0  0  0  0  0  0  0
   36.7467  -18.4269    0.0000 C   0  0  0  0  0  0  0  0  0  0  0  0
   37.4559  -18.0112    0.0000 C   0  0  0  0  0  0  0  0  0  0  0  0
   37.4520  -17.1890    0.0000 C   0  0  0  0  0  0  0  0  0  0  0  0
   36.7330  -16.7843    0.0000 C   0  0  0  0  0  0  0  0  0  0  0  0
   36.0268  -17.1983    0.0000 C   0  0  0  0  0  0  0  0  0  0  0  0
   36.7634  -20.8920    0.0000 C   0  0  0  0  0  0  0  0  0  0  0  0
   36.7616  -21.7103    0.0000 C   0  0  0  0  0  0  0  0  0  0  0  0
   37.4742  -22.1161    0.0000 N   0  0  0  0  0  0  0  0  0  0  0  0
   38.1854  -21.7047    0.0000 C   0  0  0  0  0  0  0  0  0  0  0  0
   38.1796  -20.8791    0.0000 C   0  0  0  0  0  0  0  0  0  0  0  0
   37.4665  -20.4730    0.0000 C   0  0  0  0  0  0  0  0  0  0  0  0
   32.4943  -19.2578    0.0000 N   0  0  0  0  0  0  0  0  0  0  0  0
   31.7826  -19.6665    0.0000 C   0  0  0  0  0  0  0  0  0  0  0  0
   31.0707  -19.2581    0.0000 C   0  0  0  0  0  0  0  0  0  0  0  0
   31.7828  -20.4879    0.0000 O   0  0  0  0  0  0  0  0  0  0  0  0
   31.0741  -18.4362    0.0000 C   0  0  0  0  0  0  0  0  0  0  0  0
   30.3630  -18.0237    0.0000 C   0  0  0  0  0  0  0  0  0  0  0  0
   29.6503  -18.4367    0.0000 C   0  0  0  0  0  0  0  0  0  0  0  0
   29.6531  -19.2622    0.0000 N   0  0  0  0  0  0  0  0  0  0  0  0
   30.3648  -19.6669    0.0000 C   0  0  0  0  0  0  0  0  0  0  0  0
   38.1697  -18.4205    0.0000 O   0  0  0  0  0  0  0  0  0  0  0  0
   38.1736  -19.2418    0.0000 C   0  0  0  0  0  0  0  0  0  0  0  0
  1  2  2  0
  2  3  1  0
  3  6  2  0
  5  4  2  0
  4  1  1  0
  5  6  1  0
  6  7  1  0
  7  8  2  0
  8  9  1  0
  9 10  2  0
 10  5  1  0
 10 11  1  0
 11 12  1  0
 12 13  2  0
 13 14  1  0
 14 15  2  0
 15 16  1  0
 16 17  2  0
 17 12  1  0
  8 18  1  0
 18 19  2  0
 19 20  1  0
 20 21  2  0
 21 22  1  0
 22 23  2  0
 23 18  1  0
  1 24  1  0
 24 25  1  0
 25 26  1  0
 25 27  2  0
 26 28  2  0
 28 29  1  0
 29 30  2  0
 30 31  1  0
 31 32  2  0
 32 26  1  0
 14 33  1  0
 33 34  1  0
M  END
>  <Classification>  (637) 
1

>  <pchembl>  (637) 
5.98

>  <InChI_steorem>  (637) 
InChI=1S/C26H20N6O2/c1-34-21-8-2-7-19(13-21)29-25-22-14-20(30-26(33)18-6-4-12-28-16-18)9-10-23(22)31-24(32-25)17-5-3-11-27-15-17/h2-16H,1H3,(H,30,33)(H,29,31,32)

>  <source>  (637) 
ChEMBL26

>  <source_id>  (637) 
26

>  <optional_reference>  (637) 
10.1021/acs.jmedchem.8b01011

>  <optional_origin>  (637) 
None

>  <target>  (637) 
BCRP

$$$$

     RDKit          2D

 36 40  0  0  0  0  0  0  0  0999 V2000
    3.3157  -15.4175    0.0000 C   0  0  0  0  0  0  0  0  0  0  0  0
    4.0279  -15.8306    0.0000 C   0  0  0  0  0  0  0  0  0  0  0  0
    4.7376  -15.4170    0.0000 C   0  0  0  0  0  0  0  0  0  0  0  0
    4.7347  -14.5902    0.0000 C   0  0  0  0  0  0  0  0  0  0  0  0
    3.3169  -14.5938    0.0000 C   0  0  0  0  0  0  0  0  0  0  0  0
    4.0251  -14.1862    0.0000 C   0  0  0  0  0  0  0  0  0  0  0  0
    4.0231  -13.3703    0.0000 N   0  0  0  0  0  0  0  0  0  0  0  0
    3.3136  -12.9612    0.0000 C   0  0  0  0  0  0  0  0  0  0  0  0
    2.6047  -13.3780    0.0000 C   0  0  0  0  0  0  0  0  0  0  0  0
    2.6102  -14.1925    0.0000 C   0  0  0  0  0  0  0  0  0  0  0  0
    3.3101  -12.1399    0.0000 C   0  0  0  0  0  0  0  0  0  0  0  0
    4.0202  -11.7283    0.0000 O   0  0  0  0  0  0  0  0  0  0  0  0
    2.5966  -11.7343    0.0000 N   0  0  0  0  0  0  0  0  0  0  0  0
    2.5931  -10.9130    0.0000 C   0  0  0  0  0  0  0  0  0  0  0  0
    3.3057  -10.5004    0.0000 C   0  0  0  0  0  0  0  0  0  0  0  0
    3.3026   -9.6799    0.0000 C   0  0  0  0  0  0  0  0  0  0  0  0
    2.5885   -9.2735    0.0000 C   0  0  0  0  0  0  0  0  0  0  0  0
    1.8760   -9.6895    0.0000 C   0  0  0  0  0  0  0  0  0  0  0  0
    1.8826  -10.5086    0.0000 C   0  0  0  0  0  0  0  0  0  0  0  0
    4.0087   -9.2687    0.0000 C   0  0  0  0  0  0  0  0  0  0  0  0
    4.7221   -9.6746    0.0000 C   0  0  0  0  0  0  0  0  0  0  0  0
    4.0057   -8.4473    0.0000 O   0  0  0  0  0  0  0  0  0  0  0  0
    5.4324   -9.2634    0.0000 N   0  0  0  0  0  0  0  0  0  0  0  0
    6.1433   -9.6714    0.0000 C   0  0  0  0  0  0  0  0  0  0  0  0
    6.1395   -8.0297    0.0000 C   0  0  0  0  0  0  0  0  0  0  0  0
    5.4251   -8.4432    0.0000 C   0  0  0  0  0  0  0  0  0  0  0  0
    6.8527   -8.4419    0.0000 C   0  0  0  0  0  0  0  0  0  0  0  0
    6.8487   -9.2597    0.0000 C   0  0  0  0  0  0  0  0  0  0  0  0
    7.5543   -9.6682    0.0000 C   0  0  0  0  0  0  0  0  0  0  0  0
    8.2644   -9.2642    0.0000 C   0  0  0  0  0  0  0  0  0  0  0  0
    8.2645   -8.4433    0.0000 C   0  0  0  0  0  0  0  0  0  0  0  0
    7.5583   -8.0344    0.0000 C   0  0  0  0  0  0  0  0  0  0  0  0
    8.9762   -8.0304    0.0000 O   0  0  0  0  0  0  0  0  0  0  0  0
    8.9755   -9.6742    0.0000 O   0  0  0  0  0  0  0  0  0  0  0  0
    8.9739  -10.4955    0.0000 C   0  0  0  0  0  0  0  0  0  0  0  0
    9.6841   -8.4430    0.0000 C   0  0  0  0  0  0  0  0  0  0  0  0
  5  1  2  0
  1  2  1  0
  2  3  2  0
  3  4  1  0
  4  6  2  0
  5  6  1  0
  6  7  1  0
  7  8  2  0
  8  9  1  0
  9 10  2  0
 10  5  1  0
  8 11  1  0
 11 12  2  0
 11 13  1  0
 13 14  1  0
 14 15  2  0
 15 16  1  0
 16 17  2  0
 17 18  1  0
 18 19  2  0
 19 14  1  0
 16 20  1  0
 20 21  1  0
 20 22  2  0
 21 23  1  0
 23 24  1  0
 23 26  1  0
 24 28  1  0
 27 25  1  0
 25 26  1  0
 27 28  2  0
 28 29  1  0
 29 30  2  0
 30 31  1  0
 31 32  2  0
 32 27  1  0
 31 33  1  0
 30 34  1  0
 34 35  1  0
 33 36  1  0
M  END
>  <Classification>  (638) 
1

>  <pchembl>  (638) 
5.17

>  <InChI_steorem>  (638) 
InChI=1S/C29H27N3O4/c1-35-27-15-20-12-13-32(17-22(20)16-28(27)36-2)18-26(33)21-7-5-8-23(14-21)30-29(34)25-11-10-19-6-3-4-9-24(19)31-25/h3-11,14-16H,12-13,17-18H2,1-2H3,(H,30,34)

>  <source>  (638) 
ChEMBL26

>  <source_id>  (638) 
26

>  <optional_reference>  (638) 
10.1021/acsmedchemlett.8b00289

>  <optional_origin>  (638) 
None

>  <target>  (638) 
BCRP

$$$$

     RDKit          2D

 37 41  0  0  0  0  0  0  0  0999 V2000
   14.3572  -18.2506    0.0000 C   0  0  0  0  0  0  0  0  0  0  0  0
   14.3561  -19.0742    0.0000 C   0  0  0  0  0  0  0  0  0  0  0  0
   15.0682  -19.4873    0.0000 C   0  0  0  0  0  0  0  0  0  0  0  0
   15.0664  -17.8417    0.0000 C   0  0  0  0  0  0  0  0  0  0  0  0
   15.7792  -18.2470    0.0000 C   0  0  0  0  0  0  0  0  0  0  0  0
   15.7800  -19.0701    0.0000 C   0  0  0  0  0  0  0  0  0  0  0  0
   16.4885  -19.4813    0.0000 N   0  0  0  0  0  0  0  0  0  0  0  0
   17.2009  -19.0664    0.0000 C   0  0  0  0  0  0  0  0  0  0  0  0
   17.1961  -18.2401    0.0000 N   0  0  0  0  0  0  0  0  0  0  0  0
   16.4829  -17.8367    0.0000 C   0  0  0  0  0  0  0  0  0  0  0  0
   16.4786  -17.0154    0.0000 N   0  0  0  0  0  0  0  0  0  0  0  0
   17.1882  -16.5990    0.0000 C   0  0  0  0  0  0  0  0  0  0  0  0
   17.8977  -17.0113    0.0000 C   0  0  0  0  0  0  0  0  0  0  0  0
   18.6068  -16.5955    0.0000 C   0  0  0  0  0  0  0  0  0  0  0  0
   18.6029  -15.7733    0.0000 C   0  0  0  0  0  0  0  0  0  0  0  0
   17.8840  -15.3687    0.0000 C   0  0  0  0  0  0  0  0  0  0  0  0
   17.1777  -15.7827    0.0000 C   0  0  0  0  0  0  0  0  0  0  0  0
   17.9143  -19.4763    0.0000 C   0  0  0  0  0  0  0  0  0  0  0  0
   17.9126  -20.2947    0.0000 C   0  0  0  0  0  0  0  0  0  0  0  0
   18.6252  -20.7004    0.0000 N   0  0  0  0  0  0  0  0  0  0  0  0
   19.3364  -20.2890    0.0000 C   0  0  0  0  0  0  0  0  0  0  0  0
   19.3306  -19.4635    0.0000 C   0  0  0  0  0  0  0  0  0  0  0  0
   18.6174  -19.0573    0.0000 C   0  0  0  0  0  0  0  0  0  0  0  0
   13.6453  -17.8421    0.0000 N   0  0  0  0  0  0  0  0  0  0  0  0
   12.9335  -18.2509    0.0000 C   0  0  0  0  0  0  0  0  0  0  0  0
   12.2216  -17.8425    0.0000 C   0  0  0  0  0  0  0  0  0  0  0  0
   12.9337  -19.0722    0.0000 O   0  0  0  0  0  0  0  0  0  0  0  0
   12.2250  -17.0206    0.0000 C   0  0  0  0  0  0  0  0  0  0  0  0
   11.5139  -16.6081    0.0000 C   0  0  0  0  0  0  0  0  0  0  0  0
   10.8012  -17.0210    0.0000 C   0  0  0  0  0  0  0  0  0  0  0  0
   10.8041  -17.8466    0.0000 C   0  0  0  0  0  0  0  0  0  0  0  0
   11.5157  -18.2512    0.0000 C   0  0  0  0  0  0  0  0  0  0  0  0
   19.3206  -17.0048    0.0000 O   0  0  0  0  0  0  0  0  0  0  0  0
   19.3246  -17.8261    0.0000 C   0  0  0  0  0  0  0  0  0  0  0  0
   11.5111  -15.7890    0.0000 N   0  0  0  0  0  0  0  0  0  0  0  0
   10.8034  -15.3802    0.0000 O   0  0  0  0  0  0  0  0  0  0  0  0
   12.2189  -15.3806    0.0000 O   0  0  0  0  0  0  0  0  0  0  0  0
  1  2  2  0
  2  3  1  0
  3  6  2  0
  5  4  2  0
  4  1  1  0
  5  6  1  0
  6  7  1  0
  7  8  2  0
  8  9  1  0
  9 10  2  0
 10  5  1  0
 10 11  1  0
 11 12  1  0
 12 13  2  0
 13 14  1  0
 14 15  2  0
 15 16  1  0
 16 17  2  0
 17 12  1  0
  8 18  1  0
 18 19  2  0
 19 20  1  0
 20 21  2  0
 21 22  1  0
 22 23  2  0
 23 18  1  0
  1 24  1  0
 24 25  1  0
 25 26  1  0
 25 27  2  0
 26 28  2  0
 28 29  1  0
 29 30  2  0
 30 31  1  0
 31 32  2  0
 32 26  1  0
 14 33  1  0
 33 34  1  0
 35 36  2  0
 35 37  1  0
 29 35  1  0
M  CHG  2  35   1  37  -1
M  END
>  <Classification>  (639) 
1

>  <pchembl>  (639) 
5.94

>  <InChI_steorem>  (639) 
InChI=1S/C27H20N6O4/c1-37-22-9-3-7-19(14-22)29-26-23-15-20(30-27(34)17-5-2-8-21(13-17)33(35)36)10-11-24(23)31-25(32-26)18-6-4-12-28-16-18/h2-16H,1H3,(H,30,34)(H,29,31,32)

>  <source>  (639) 
ChEMBL26

>  <source_id>  (639) 
26

>  <optional_reference>  (639) 
10.1021/acs.jmedchem.8b01011

>  <optional_origin>  (639) 
None

>  <target>  (639) 
BCRP

$$$$

     RDKit          2D

 37 41  0  0  0  0  0  0  0  0999 V2000
   24.7826  -18.8531    0.0000 C   0  0  0  0  0  0  0  0  0  0  0  0
   24.7814  -19.6768    0.0000 C   0  0  0  0  0  0  0  0  0  0  0  0
   25.4936  -20.0899    0.0000 C   0  0  0  0  0  0  0  0  0  0  0  0
   25.4918  -18.4443    0.0000 C   0  0  0  0  0  0  0  0  0  0  0  0
   26.2046  -18.8495    0.0000 C   0  0  0  0  0  0  0  0  0  0  0  0
   26.2053  -19.6727    0.0000 C   0  0  0  0  0  0  0  0  0  0  0  0
   26.9180  -20.0839    0.0000 N   0  0  0  0  0  0  0  0  0  0  0  0
   27.6304  -19.6689    0.0000 C   0  0  0  0  0  0  0  0  0  0  0  0
   27.6257  -18.8427    0.0000 N   0  0  0  0  0  0  0  0  0  0  0  0
   26.9124  -18.4393    0.0000 C   0  0  0  0  0  0  0  0  0  0  0  0
   26.9081  -17.6180    0.0000 N   0  0  0  0  0  0  0  0  0  0  0  0
   27.6177  -17.2015    0.0000 C   0  0  0  0  0  0  0  0  0  0  0  0
   28.3272  -17.6139    0.0000 C   0  0  0  0  0  0  0  0  0  0  0  0
   29.0363  -17.1981    0.0000 C   0  0  0  0  0  0  0  0  0  0  0  0
   29.0324  -16.3759    0.0000 C   0  0  0  0  0  0  0  0  0  0  0  0
   28.3135  -15.9713    0.0000 C   0  0  0  0  0  0  0  0  0  0  0  0
   27.6072  -16.3853    0.0000 C   0  0  0  0  0  0  0  0  0  0  0  0
   28.3438  -20.0789    0.0000 C   0  0  0  0  0  0  0  0  0  0  0  0
   28.3421  -20.8972    0.0000 C   0  0  0  0  0  0  0  0  0  0  0  0
   29.0547  -21.3030    0.0000 N   0  0  0  0  0  0  0  0  0  0  0  0
   29.7618  -20.8916    0.0000 C   0  0  0  0  0  0  0  0  0  0  0  0
   29.7559  -20.0661    0.0000 C   0  0  0  0  0  0  0  0  0  0  0  0
   29.0469  -19.6599    0.0000 C   0  0  0  0  0  0  0  0  0  0  0  0
   24.0707  -18.4447    0.0000 N   0  0  0  0  0  0  0  0  0  0  0  0
   23.3630  -18.8535    0.0000 C   0  0  0  0  0  0  0  0  0  0  0  0
   22.6511  -18.4451    0.0000 C   0  0  0  0  0  0  0  0  0  0  0  0
   23.3632  -19.6748    0.0000 O   0  0  0  0  0  0  0  0  0  0  0  0
   22.6545  -17.6231    0.0000 C   0  0  0  0  0  0  0  0  0  0  0  0
   21.9434  -17.2107    0.0000 C   0  0  0  0  0  0  0  0  0  0  0  0
   21.2307  -17.6236    0.0000 C   0  0  0  0  0  0  0  0  0  0  0  0
   21.2336  -18.4492    0.0000 C   0  0  0  0  0  0  0  0  0  0  0  0
   21.9452  -18.8538    0.0000 C   0  0  0  0  0  0  0  0  0  0  0  0
   29.7374  -15.9626    0.0000 O   0  0  0  0  0  0  0  0  0  0  0  0
   30.4520  -16.3665    0.0000 C   0  0  0  0  0  0  0  0  0  0  0  0
   21.9406  -16.3916    0.0000 N   0  0  0  0  0  0  0  0  0  0  0  0
   21.2329  -15.9828    0.0000 O   0  0  0  0  0  0  0  0  0  0  0  0
   22.6484  -15.9831    0.0000 O   0  0  0  0  0  0  0  0  0  0  0  0
  1  2  2  0
  2  3  1  0
  3  6  2  0
  5  4  2  0
  4  1  1  0
  5  6  1  0
  6  7  1  0
  7  8  2  0
  8  9  1  0
  9 10  2  0
 10  5  1  0
 10 11  1  0
 11 12  1  0
 12 13  2  0
 13 14  1  0
 14 15  2  0
 15 16  1  0
 16 17  2  0
 17 12  1  0
  8 18  1  0
 18 19  2  0
 19 20  1  0
 20 21  2  0
 21 22  1  0
 22 23  2  0
 23 18  1  0
  1 24  1  0
 24 25  1  0
 25 26  1  0
 25 27  2  0
 26 28  2  0
 28 29  1  0
 29 30  2  0
 30 31  1  0
 31 32  2  0
 32 26  1  0
 15 33  1  0
 33 34  1  0
 35 36  2  0
 35 37  1  0
 29 35  1  0
M  CHG  2  35   1  37  -1
M  END
>  <Classification>  (640) 
1

>  <pchembl>  (640) 
5.79

>  <InChI_steorem>  (640) 
InChI=1S/C27H20N6O4/c1-37-22-10-7-19(8-11-22)29-26-23-15-20(30-27(34)17-4-2-6-21(14-17)33(35)36)9-12-24(23)31-25(32-26)18-5-3-13-28-16-18/h2-16H,1H3,(H,30,34)(H,29,31,32)

>  <source>  (640) 
ChEMBL26

>  <source_id>  (640) 
26

>  <optional_reference>  (640) 
10.1021/acs.jmedchem.8b01011

>  <optional_origin>  (640) 
None

>  <target>  (640) 
BCRP

$$$$

     RDKit          2D

 37 41  0  0  0  0  0  0  0  0999 V2000
   37.4727  -15.2978    0.0000 C   0  0  0  0  0  0  0  0  0  0  0  0
   38.1848  -15.7109    0.0000 C   0  0  0  0  0  0  0  0  0  0  0  0
   38.8986  -15.2973    0.0000 C   0  0  0  0  0  0  0  0  0  0  0  0
   38.8958  -14.4706    0.0000 C   0  0  0  0  0  0  0  0  0  0  0  0
   37.4738  -14.4742    0.0000 C   0  0  0  0  0  0  0  0  0  0  0  0
   38.1820  -14.0665    0.0000 C   0  0  0  0  0  0  0  0  0  0  0  0
   38.1800  -13.2506    0.0000 N   0  0  0  0  0  0  0  0  0  0  0  0
   37.4705  -12.8415    0.0000 C   0  0  0  0  0  0  0  0  0  0  0  0
   36.7658  -13.2583    0.0000 C   0  0  0  0  0  0  0  0  0  0  0  0
   36.7713  -14.0728    0.0000 C   0  0  0  0  0  0  0  0  0  0  0  0
   37.4671  -12.0202    0.0000 C   0  0  0  0  0  0  0  0  0  0  0  0
   38.1772  -11.6086    0.0000 O   0  0  0  0  0  0  0  0  0  0  0  0
   36.7577  -11.6146    0.0000 N   0  0  0  0  0  0  0  0  0  0  0  0
   36.7542  -10.7933    0.0000 C   0  0  0  0  0  0  0  0  0  0  0  0
   37.4626  -10.3808    0.0000 C   0  0  0  0  0  0  0  0  0  0  0  0
   37.4595   -9.5602    0.0000 C   0  0  0  0  0  0  0  0  0  0  0  0
   36.7495   -9.1538    0.0000 C   0  0  0  0  0  0  0  0  0  0  0  0
   36.0371   -9.5698    0.0000 C   0  0  0  0  0  0  0  0  0  0  0  0
   36.0437  -10.3890    0.0000 C   0  0  0  0  0  0  0  0  0  0  0  0
   38.1698   -9.1490    0.0000 C   0  0  0  0  0  0  0  0  0  0  0  0
   38.8832   -9.5549    0.0000 C   0  0  0  0  0  0  0  0  0  0  0  0
   38.1667   -8.3277    0.0000 O   0  0  0  0  0  0  0  0  0  0  0  0
   39.5935   -9.1437    0.0000 N   0  0  0  0  0  0  0  0  0  0  0  0
   40.3044   -9.5517    0.0000 C   0  0  0  0  0  0  0  0  0  0  0  0
   40.3005   -7.9100    0.0000 C   0  0  0  0  0  0  0  0  0  0  0  0
   39.5862   -8.3236    0.0000 C   0  0  0  0  0  0  0  0  0  0  0  0
   41.0137   -8.3222    0.0000 C   0  0  0  0  0  0  0  0  0  0  0  0
   41.0097   -9.1400    0.0000 C   0  0  0  0  0  0  0  0  0  0  0  0
   41.7154   -9.5485    0.0000 C   0  0  0  0  0  0  0  0  0  0  0  0
   42.4214   -9.1445    0.0000 C   0  0  0  0  0  0  0  0  0  0  0  0
   42.4214   -8.3236    0.0000 C   0  0  0  0  0  0  0  0  0  0  0  0
   41.7193   -7.9147    0.0000 C   0  0  0  0  0  0  0  0  0  0  0  0
   43.1332   -7.9107    0.0000 O   0  0  0  0  0  0  0  0  0  0  0  0
   43.1324   -9.5545    0.0000 O   0  0  0  0  0  0  0  0  0  0  0  0
   43.1308  -10.3758    0.0000 C   0  0  0  0  0  0  0  0  0  0  0  0
   43.8451   -8.3233    0.0000 C   0  0  0  0  0  0  0  0  0  0  0  0
   35.3352  -10.8074    0.0000 C   0  0  0  0  0  0  0  0  0  0  0  0
  5  1  2  0
  1  2  1  0
  2  3  2  0
  3  4  1  0
  4  6  2  0
  5  6  1  0
  6  7  1  0
  7  8  2  0
  8  9  1  0
  9 10  2  0
 10  5  1  0
  8 11  1  0
 11 12  2  0
 11 13  1  0
 13 14  1  0
 14 15  2  0
 15 16  1  0
 16 17  2  0
 17 18  1  0
 18 19  2  0
 19 14  1  0
 16 20  1  0
 20 21  1  0
 20 22  2  0
 21 23  1  0
 23 24  1  0
 23 26  1  0
 24 28  1  0
 27 25  1  0
 25 26  1  0
 27 28  2  0
 28 29  1  0
 29 30  2  0
 30 31  1  0
 31 32  2  0
 32 27  1  0
 31 33  1  0
 30 34  1  0
 34 35  1  0
 33 36  1  0
 19 37  1  0
M  END
>  <Classification>  (641) 
1

>  <pchembl>  (641) 
5.06

>  <InChI_steorem>  (641) 
InChI=1S/C30H29N3O4/c1-19-8-9-22(14-26(19)32-30(35)25-11-10-20-6-4-5-7-24(20)31-25)27(34)18-33-13-12-21-15-28(36-2)29(37-3)16-23(21)17-33/h4-11,14-16H,12-13,17-18H2,1-3H3,(H,32,35)

>  <source>  (641) 
ChEMBL26

>  <source_id>  (641) 
26

>  <optional_reference>  (641) 
10.1021/acsmedchemlett.8b00289

>  <optional_origin>  (641) 
None

>  <target>  (641) 
BCRP

$$$$

     RDKit          2D

 39 43  0  0  0  0  0  0  0  0999 V2000
   13.4563  -15.7848    0.0000 C   0  0  0  0  0  0  0  0  0  0  0  0
   14.1685  -16.1979    0.0000 C   0  0  0  0  0  0  0  0  0  0  0  0
   14.8823  -15.7844    0.0000 C   0  0  0  0  0  0  0  0  0  0  0  0
   14.8795  -14.9576    0.0000 C   0  0  0  0  0  0  0  0  0  0  0  0
   13.4575  -14.9612    0.0000 C   0  0  0  0  0  0  0  0  0  0  0  0
   14.1657  -14.5535    0.0000 C   0  0  0  0  0  0  0  0  0  0  0  0
   14.1637  -13.7376    0.0000 N   0  0  0  0  0  0  0  0  0  0  0  0
   13.4542  -13.3285    0.0000 C   0  0  0  0  0  0  0  0  0  0  0  0
   12.7453  -13.7453    0.0000 C   0  0  0  0  0  0  0  0  0  0  0  0
   12.7508  -14.5598    0.0000 C   0  0  0  0  0  0  0  0  0  0  0  0
   13.4507  -12.5072    0.0000 C   0  0  0  0  0  0  0  0  0  0  0  0
   14.1608  -12.0956    0.0000 O   0  0  0  0  0  0  0  0  0  0  0  0
   12.7372  -12.1016    0.0000 N   0  0  0  0  0  0  0  0  0  0  0  0
   12.7337  -11.2803    0.0000 C   0  0  0  0  0  0  0  0  0  0  0  0
   13.4463  -10.8678    0.0000 C   0  0  0  0  0  0  0  0  0  0  0  0
   13.4432  -10.0472    0.0000 C   0  0  0  0  0  0  0  0  0  0  0  0
   12.7291   -9.6408    0.0000 C   0  0  0  0  0  0  0  0  0  0  0  0
   12.0166  -10.0568    0.0000 C   0  0  0  0  0  0  0  0  0  0  0  0
   12.0232  -10.8760    0.0000 C   0  0  0  0  0  0  0  0  0  0  0  0
   14.1535   -9.6360    0.0000 C   0  0  0  0  0  0  0  0  0  0  0  0
   14.8668  -10.0419    0.0000 C   0  0  0  0  0  0  0  0  0  0  0  0
   14.1504   -8.8147    0.0000 O   0  0  0  0  0  0  0  0  0  0  0  0
   15.5771   -9.6307    0.0000 N   0  0  0  0  0  0  0  0  0  0  0  0
   16.2880  -10.0387    0.0000 C   0  0  0  0  0  0  0  0  0  0  0  0
   16.2842   -8.3970    0.0000 C   0  0  0  0  0  0  0  0  0  0  0  0
   15.5698   -8.8106    0.0000 C   0  0  0  0  0  0  0  0  0  0  0  0
   16.9933   -8.8093    0.0000 C   0  0  0  0  0  0  0  0  0  0  0  0
   16.9893   -9.6270    0.0000 C   0  0  0  0  0  0  0  0  0  0  0  0
   17.6949  -10.0355    0.0000 C   0  0  0  0  0  0  0  0  0  0  0  0
   18.4050   -9.6315    0.0000 C   0  0  0  0  0  0  0  0  0  0  0  0
   18.4051   -8.8106    0.0000 C   0  0  0  0  0  0  0  0  0  0  0  0
   17.6989   -8.4017    0.0000 C   0  0  0  0  0  0  0  0  0  0  0  0
   19.1168   -8.3977    0.0000 O   0  0  0  0  0  0  0  0  0  0  0  0
   19.1161  -10.0415    0.0000 O   0  0  0  0  0  0  0  0  0  0  0  0
   19.1145  -10.8628    0.0000 C   0  0  0  0  0  0  0  0  0  0  0  0
   19.8288   -8.8103    0.0000 C   0  0  0  0  0  0  0  0  0  0  0  0
   19.8255  -11.2769    0.0000 C   0  0  0  0  0  0  0  0  0  0  0  0
   19.8239  -12.0982    0.0000 O   0  0  0  0  0  0  0  0  0  0  0  0
   20.6155  -12.3074    0.0000 C   0  0  0  0  0  0  0  0  0  0  0  0
  5  1  2  0
  1  2  1  0
  2  3  2  0
  3  4  1  0
  4  6  2  0
  5  6  1  0
  6  7  1  0
  7  8  2  0
  8  9  1  0
  9 10  2  0
 10  5  1  0
  8 11  1  0
 11 12  2  0
 11 13  1  0
 13 14  1  0
 14 15  2  0
 15 16  1  0
 16 17  2  0
 17 18  1  0
 18 19  2  0
 19 14  1  0
 16 20  1  0
 20 21  1  0
 20 22  2  0
 21 23  1  0
 23 24  1  0
 23 26  1  0
 24 28  1  0
 27 25  1  0
 25 26  1  0
 27 28  2  0
 28 29  1  0
 29 30  2  0
 30 31  1  0
 31 32  2  0
 32 27  1  0
 31 33  1  0
 30 34  1  0
 34 35  1  0
 33 36  1  0
 35 37  1  0
 37 38  1  0
 38 39  1  0
M  END
>  <Classification>  (642) 
0

>  <pchembl>  (642) 
4.84

>  <InChI_steorem>  (642) 
InChI=1S/C31H31N3O5/c1-37-14-15-39-30-18-24-19-34(13-12-22(24)17-29(30)38-2)20-28(35)23-7-5-8-25(16-23)32-31(36)27-11-10-21-6-3-4-9-26(21)33-27/h3-11,16-18H,12-15,19-20H2,1-2H3,(H,32,36)

>  <source>  (642) 
ChEMBL26

>  <source_id>  (642) 
26

>  <optional_reference>  (642) 
10.1021/acsmedchemlett.8b00289

>  <optional_origin>  (642) 
None

>  <target>  (642) 
BCRP

$$$$

     RDKit          2D

 40 44  0  0  0  0  0  0  0  0999 V2000
    4.6818  -25.4962    0.0000 C   0  0  0  0  0  0  0  0  0  0  0  0
    5.3940  -25.9093    0.0000 C   0  0  0  0  0  0  0  0  0  0  0  0
    6.1078  -25.4957    0.0000 C   0  0  0  0  0  0  0  0  0  0  0  0
    6.1050  -24.6689    0.0000 C   0  0  0  0  0  0  0  0  0  0  0  0
    4.6830  -24.6725    0.0000 C   0  0  0  0  0  0  0  0  0  0  0  0
    5.3912  -24.2649    0.0000 C   0  0  0  0  0  0  0  0  0  0  0  0
    5.3892  -23.4490    0.0000 N   0  0  0  0  0  0  0  0  0  0  0  0
    4.6797  -23.0399    0.0000 C   0  0  0  0  0  0  0  0  0  0  0  0
    3.9749  -23.4567    0.0000 C   0  0  0  0  0  0  0  0  0  0  0  0
    3.9804  -24.2711    0.0000 C   0  0  0  0  0  0  0  0  0  0  0  0
    4.6763  -22.2186    0.0000 C   0  0  0  0  0  0  0  0  0  0  0  0
    5.3864  -21.8070    0.0000 O   0  0  0  0  0  0  0  0  0  0  0  0
    3.9668  -21.8130    0.0000 N   0  0  0  0  0  0  0  0  0  0  0  0
    3.9634  -20.9917    0.0000 C   0  0  0  0  0  0  0  0  0  0  0  0
    4.6718  -20.5791    0.0000 C   0  0  0  0  0  0  0  0  0  0  0  0
    4.6687  -19.7586    0.0000 C   0  0  0  0  0  0  0  0  0  0  0  0
    3.9587  -19.3522    0.0000 C   0  0  0  0  0  0  0  0  0  0  0  0
    3.2463  -19.7682    0.0000 C   0  0  0  0  0  0  0  0  0  0  0  0
    3.2529  -20.5873    0.0000 C   0  0  0  0  0  0  0  0  0  0  0  0
    5.3790  -19.3473    0.0000 C   0  0  0  0  0  0  0  0  0  0  0  0
    6.0923  -19.7533    0.0000 C   0  0  0  0  0  0  0  0  0  0  0  0
    5.3759  -18.5260    0.0000 O   0  0  0  0  0  0  0  0  0  0  0  0
    6.8026  -19.3420    0.0000 N   0  0  0  0  0  0  0  0  0  0  0  0
    7.5136  -19.7501    0.0000 C   0  0  0  0  0  0  0  0  0  0  0  0
    7.5097  -18.1084    0.0000 C   0  0  0  0  0  0  0  0  0  0  0  0
    6.7953  -18.5219    0.0000 C   0  0  0  0  0  0  0  0  0  0  0  0
    8.2229  -18.5206    0.0000 C   0  0  0  0  0  0  0  0  0  0  0  0
    8.2189  -19.3384    0.0000 C   0  0  0  0  0  0  0  0  0  0  0  0
    8.9246  -19.7469    0.0000 C   0  0  0  0  0  0  0  0  0  0  0  0
    9.6305  -19.3429    0.0000 C   0  0  0  0  0  0  0  0  0  0  0  0
    9.6306  -18.5220    0.0000 C   0  0  0  0  0  0  0  0  0  0  0  0
    8.9285  -18.1131    0.0000 C   0  0  0  0  0  0  0  0  0  0  0  0
   10.3424  -18.1091    0.0000 O   0  0  0  0  0  0  0  0  0  0  0  0
   10.3416  -19.7529    0.0000 O   0  0  0  0  0  0  0  0  0  0  0  0
   10.3400  -20.5742    0.0000 C   0  0  0  0  0  0  0  0  0  0  0  0
   11.0543  -18.5217    0.0000 C   0  0  0  0  0  0  0  0  0  0  0  0
    2.5444  -21.0058    0.0000 C   0  0  0  0  0  0  0  0  0  0  0  0
    9.6273  -20.9855    0.0000 C   0  0  0  0  0  0  0  0  0  0  0  0
    9.6273  -21.8027    0.0000 O   0  0  0  0  0  0  0  0  0  0  0  0
    8.9195  -22.2112    0.0000 C   0  0  0  0  0  0  0  0  0  0  0  0
  5  1  2  0
  1  2  1  0
  2  3  2  0
  3  4  1  0
  4  6  2  0
  5  6  1  0
  6  7  1  0
  7  8  2  0
  8  9  1  0
  9 10  2  0
 10  5  1  0
  8 11  1  0
 11 12  2  0
 11 13  1  0
 13 14  1  0
 14 15  2  0
 15 16  1  0
 16 17  2  0
 17 18  1  0
 18 19  2  0
 19 14  1  0
 16 20  1  0
 20 21  1  0
 20 22  2  0
 21 23  1  0
 23 24  1  0
 23 26  1  0
 24 28  1  0
 27 25  1  0
 25 26  1  0
 27 28  2  0
 28 29  1  0
 29 30  2  0
 30 31  1  0
 31 32  2  0
 32 27  1  0
 31 33  1  0
 30 34  1  0
 34 35  1  0
 33 36  1  0
 19 37  1  0
 35 38  1  0
 38 39  1  0
 39 40  1  0
M  END
>  <Classification>  (643) 
0

>  <pchembl>  (643) 
4.63

>  <InChI_steorem>  (643) 
InChI=1S/C32H33N3O5/c1-21-8-9-24(16-28(21)34-32(37)27-11-10-22-6-4-5-7-26(22)33-27)29(36)20-35-13-12-23-17-30(39-3)31(18-25(23)19-35)40-15-14-38-2/h4-11,16-18H,12-15,19-20H2,1-3H3,(H,34,37)

>  <source>  (643) 
ChEMBL26

>  <source_id>  (643) 
26

>  <optional_reference>  (643) 
10.1021/acsmedchemlett.8b00289

>  <optional_origin>  (643) 
None

>  <target>  (643) 
BCRP

$$$$

     RDKit          2D

 45 49  0  0  0  0  0  0  0  0999 V2000
   24.1500  -15.1038    0.0000 C   0  0  0  0  0  0  0  0  0  0  0  0
   24.8622  -15.5169    0.0000 C   0  0  0  0  0  0  0  0  0  0  0  0
   25.5759  -15.1034    0.0000 C   0  0  0  0  0  0  0  0  0  0  0  0
   25.5731  -14.2766    0.0000 C   0  0  0  0  0  0  0  0  0  0  0  0
   24.1511  -14.2802    0.0000 C   0  0  0  0  0  0  0  0  0  0  0  0
   24.8593  -13.8725    0.0000 C   0  0  0  0  0  0  0  0  0  0  0  0
   24.8573  -13.0567    0.0000 N   0  0  0  0  0  0  0  0  0  0  0  0
   24.1478  -12.6475    0.0000 C   0  0  0  0  0  0  0  0  0  0  0  0
   23.4390  -13.0643    0.0000 C   0  0  0  0  0  0  0  0  0  0  0  0
   23.4444  -13.8788    0.0000 C   0  0  0  0  0  0  0  0  0  0  0  0
   24.1444  -11.8262    0.0000 C   0  0  0  0  0  0  0  0  0  0  0  0
   24.8545  -11.4146    0.0000 O   0  0  0  0  0  0  0  0  0  0  0  0
   23.4308  -11.4206    0.0000 N   0  0  0  0  0  0  0  0  0  0  0  0
   23.4274  -10.5993    0.0000 C   0  0  0  0  0  0  0  0  0  0  0  0
   24.1399  -10.1868    0.0000 C   0  0  0  0  0  0  0  0  0  0  0  0
   24.1368   -9.3662    0.0000 C   0  0  0  0  0  0  0  0  0  0  0  0
   23.4227   -8.9598    0.0000 C   0  0  0  0  0  0  0  0  0  0  0  0
   22.7103   -9.3758    0.0000 C   0  0  0  0  0  0  0  0  0  0  0  0
   22.7169  -10.1950    0.0000 C   0  0  0  0  0  0  0  0  0  0  0  0
   24.8471   -8.9550    0.0000 C   0  0  0  0  0  0  0  0  0  0  0  0
   25.5605   -9.3609    0.0000 C   0  0  0  0  0  0  0  0  0  0  0  0
   24.8440   -8.1337    0.0000 O   0  0  0  0  0  0  0  0  0  0  0  0
   26.2708   -8.9497    0.0000 N   0  0  0  0  0  0  0  0  0  0  0  0
   26.9776   -9.3577    0.0000 C   0  0  0  0  0  0  0  0  0  0  0  0
   26.9737   -7.7160    0.0000 C   0  0  0  0  0  0  0  0  0  0  0  0
   26.2593   -8.1296    0.0000 C   0  0  0  0  0  0  0  0  0  0  0  0
   27.6869   -8.1283    0.0000 C   0  0  0  0  0  0  0  0  0  0  0  0
   27.6829   -8.9460    0.0000 C   0  0  0  0  0  0  0  0  0  0  0  0
   28.3886   -9.3545    0.0000 C   0  0  0  0  0  0  0  0  0  0  0  0
   29.0987   -8.9505    0.0000 C   0  0  0  0  0  0  0  0  0  0  0  0
   29.0988   -8.1296    0.0000 C   0  0  0  0  0  0  0  0  0  0  0  0
   28.3925   -7.7207    0.0000 C   0  0  0  0  0  0  0  0  0  0  0  0
   29.8105   -7.7168    0.0000 O   0  0  0  0  0  0  0  0  0  0  0  0
   29.8097   -9.3605    0.0000 O   0  0  0  0  0  0  0  0  0  0  0  0
   29.8081  -10.1818    0.0000 C   0  0  0  0  0  0  0  0  0  0  0  0
   30.5224   -8.1293    0.0000 C   0  0  0  0  0  0  0  0  0  0  0  0
   30.5192  -10.5959    0.0000 C   0  0  0  0  0  0  0  0  0  0  0  0
   30.5176  -11.4172    0.0000 O   0  0  0  0  0  0  0  0  0  0  0  0
   31.2286  -11.8272    0.0000 C   0  0  0  0  0  0  0  0  0  0  0  0
   31.2270  -12.6485    0.0000 C   0  0  0  0  0  0  0  0  0  0  0  0
   31.9339  -13.0627    0.0000 O   0  0  0  0  0  0  0  0  0  0  0  0
   31.9323  -13.8840    0.0000 C   0  0  0  0  0  0  0  0  0  0  0  0
   32.6433  -14.2940    0.0000 C   0  0  0  0  0  0  0  0  0  0  0  0
   32.6417  -15.1153    0.0000 O   0  0  0  0  0  0  0  0  0  0  0  0
   33.3528  -15.5294    0.0000 C   0  0  0  0  0  0  0  0  0  0  0  0
  5  1  2  0
  1  2  1  0
  2  3  2  0
  3  4  1  0
  4  6  2  0
  5  6  1  0
  6  7  1  0
  7  8  2  0
  8  9  1  0
  9 10  2  0
 10  5  1  0
  8 11  1  0
 11 12  2  0
 11 13  1  0
 13 14  1  0
 14 15  2  0
 15 16  1  0
 16 17  2  0
 17 18  1  0
 18 19  2  0
 19 14  1  0
 16 20  1  0
 20 21  1  0
 20 22  2  0
 21 23  1  0
 23 24  1  0
 23 26  1  0
 24 28  1  0
 27 25  1  0
 25 26  1  0
 27 28  2  0
 28 29  1  0
 29 30  2  0
 30 31  1  0
 31 32  2  0
 32 27  1  0
 31 33  1  0
 30 34  1  0
 34 35  1  0
 33 36  1  0
 35 37  1  0
 37 38  1  0
 38 39  1  0
 39 40  1  0
 40 41  1  0
 41 42  1  0
 42 43  1  0
 43 44  1  0
 44 45  1  0
M  END
>  <Classification>  (644) 
1

>  <pchembl>  (644) 
5.95

>  <InChI_steorem>  (644) 
InChI=1S/C35H39N3O7/c1-41-14-15-43-16-17-44-18-19-45-34-22-28-23-38(13-12-26(28)21-33(34)42-2)24-32(39)27-7-5-8-29(20-27)36-35(40)31-11-10-25-6-3-4-9-30(25)37-31/h3-11,20-22H,12-19,23-24H2,1-2H3,(H,36,40)

>  <source>  (644) 
ChEMBL26

>  <source_id>  (644) 
26

>  <optional_reference>  (644) 
10.1021/acsmedchemlett.8b00289

>  <optional_origin>  (644) 
None

>  <target>  (644) 
BCRP

$$$$

     RDKit          2D

 46 50  0  0  0  0  0  0  0  0999 V2000
   16.0606  -24.7038    0.0000 C   0  0  0  0  0  0  0  0  0  0  0  0
   16.7728  -25.1169    0.0000 C   0  0  0  0  0  0  0  0  0  0  0  0
   17.4824  -24.7033    0.0000 C   0  0  0  0  0  0  0  0  0  0  0  0
   17.4796  -23.8765    0.0000 C   0  0  0  0  0  0  0  0  0  0  0  0
   16.0618  -23.8801    0.0000 C   0  0  0  0  0  0  0  0  0  0  0  0
   16.7699  -23.4724    0.0000 C   0  0  0  0  0  0  0  0  0  0  0  0
   16.7679  -22.6566    0.0000 N   0  0  0  0  0  0  0  0  0  0  0  0
   16.0585  -22.2475    0.0000 C   0  0  0  0  0  0  0  0  0  0  0  0
   15.3496  -22.6642    0.0000 C   0  0  0  0  0  0  0  0  0  0  0  0
   15.3551  -23.4787    0.0000 C   0  0  0  0  0  0  0  0  0  0  0  0
   16.0550  -21.4261    0.0000 C   0  0  0  0  0  0  0  0  0  0  0  0
   16.7651  -21.0146    0.0000 O   0  0  0  0  0  0  0  0  0  0  0  0
   15.3415  -21.0205    0.0000 N   0  0  0  0  0  0  0  0  0  0  0  0
   15.3380  -20.1992    0.0000 C   0  0  0  0  0  0  0  0  0  0  0  0
   16.0505  -19.7867    0.0000 C   0  0  0  0  0  0  0  0  0  0  0  0
   16.0474  -18.9662    0.0000 C   0  0  0  0  0  0  0  0  0  0  0  0
   15.3333  -18.5597    0.0000 C   0  0  0  0  0  0  0  0  0  0  0  0
   14.6209  -18.9757    0.0000 C   0  0  0  0  0  0  0  0  0  0  0  0
   14.6275  -19.7949    0.0000 C   0  0  0  0  0  0  0  0  0  0  0  0
   16.7577  -18.5549    0.0000 C   0  0  0  0  0  0  0  0  0  0  0  0
   17.4670  -18.9609    0.0000 C   0  0  0  0  0  0  0  0  0  0  0  0
   16.7547  -17.7336    0.0000 O   0  0  0  0  0  0  0  0  0  0  0  0
   18.1773  -18.5496    0.0000 N   0  0  0  0  0  0  0  0  0  0  0  0
   18.8882  -18.9576    0.0000 C   0  0  0  0  0  0  0  0  0  0  0  0
   18.8843  -17.3160    0.0000 C   0  0  0  0  0  0  0  0  0  0  0  0
   18.1700  -17.7295    0.0000 C   0  0  0  0  0  0  0  0  0  0  0  0
   19.5976  -17.7282    0.0000 C   0  0  0  0  0  0  0  0  0  0  0  0
   19.5936  -18.5460    0.0000 C   0  0  0  0  0  0  0  0  0  0  0  0
   20.2992  -18.9545    0.0000 C   0  0  0  0  0  0  0  0  0  0  0  0
   21.0093  -18.5505    0.0000 C   0  0  0  0  0  0  0  0  0  0  0  0
   21.0094  -17.7296    0.0000 C   0  0  0  0  0  0  0  0  0  0  0  0
   20.3032  -17.3206    0.0000 C   0  0  0  0  0  0  0  0  0  0  0  0
   21.7211  -17.3167    0.0000 O   0  0  0  0  0  0  0  0  0  0  0  0
   21.7204  -18.9604    0.0000 O   0  0  0  0  0  0  0  0  0  0  0  0
   21.7187  -19.7818    0.0000 C   0  0  0  0  0  0  0  0  0  0  0  0
   22.4289  -17.7292    0.0000 C   0  0  0  0  0  0  0  0  0  0  0  0
   22.4257  -20.1959    0.0000 C   0  0  0  0  0  0  0  0  0  0  0  0
   22.4241  -21.0172    0.0000 O   0  0  0  0  0  0  0  0  0  0  0  0
   23.1351  -21.4272    0.0000 C   0  0  0  0  0  0  0  0  0  0  0  0
   23.1335  -22.2485    0.0000 C   0  0  0  0  0  0  0  0  0  0  0  0
   23.8445  -22.6626    0.0000 O   0  0  0  0  0  0  0  0  0  0  0  0
   23.8429  -23.4839    0.0000 C   0  0  0  0  0  0  0  0  0  0  0  0
   24.5540  -23.8939    0.0000 C   0  0  0  0  0  0  0  0  0  0  0  0
   24.5524  -24.7152    0.0000 O   0  0  0  0  0  0  0  0  0  0  0  0
   25.2634  -25.1293    0.0000 C   0  0  0  0  0  0  0  0  0  0  0  0
   13.9190  -20.2134    0.0000 C   0  0  0  0  0  0  0  0  0  0  0  0
  5  1  2  0
  1  2  1  0
  2  3  2  0
  3  4  1  0
  4  6  2  0
  5  6  1  0
  6  7  1  0
  7  8  2  0
  8  9  1  0
  9 10  2  0
 10  5  1  0
  8 11  1  0
 11 12  2  0
 11 13  1  0
 13 14  1  0
 14 15  2  0
 15 16  1  0
 16 17  2  0
 17 18  1  0
 18 19  2  0
 19 14  1  0
 16 20  1  0
 20 21  1  0
 20 22  2  0
 21 23  1  0
 23 24  1  0
 23 26  1  0
 24 28  1  0
 27 25  1  0
 25 26  1  0
 27 28  2  0
 28 29  1  0
 29 30  2  0
 30 31  1  0
 31 32  2  0
 32 27  1  0
 31 33  1  0
 30 34  1  0
 34 35  1  0
 33 36  1  0
 35 37  1  0
 37 38  1  0
 38 39  1  0
 39 40  1  0
 40 41  1  0
 41 42  1  0
 42 43  1  0
 43 44  1  0
 44 45  1  0
 19 46  1  0
M  END
>  <Classification>  (645) 
1

>  <pchembl>  (645) 
5.18

>  <InChI_steorem>  (645) 
InChI=1S/C36H41N3O7/c1-25-8-9-28(20-32(25)38-36(41)31-11-10-26-6-4-5-7-30(26)37-31)33(40)24-39-13-12-27-21-34(43-3)35(22-29(27)23-39)46-19-18-45-17-16-44-15-14-42-2/h4-11,20-22H,12-19,23-24H2,1-3H3,(H,38,41)

>  <source>  (645) 
ChEMBL26

>  <source_id>  (645) 
26

>  <optional_reference>  (645) 
10.1021/acsmedchemlett.8b00289

>  <optional_origin>  (645) 
None

>  <target>  (645) 
BCRP

$$$$

     RDKit          2D

 46 51  0  0  0  0  0  0  0  0999 V2000
   14.2735  -14.9181    0.0000 C   0  0  0  0  0  0  0  0  0  0  0  0
   14.9816  -15.3312    0.0000 C   0  0  0  0  0  0  0  0  0  0  0  0
   15.6954  -14.9176    0.0000 C   0  0  0  0  0  0  0  0  0  0  0  0
   15.6925  -14.0908    0.0000 C   0  0  0  0  0  0  0  0  0  0  0  0
   14.2747  -14.0944    0.0000 C   0  0  0  0  0  0  0  0  0  0  0  0
   14.9787  -13.6868    0.0000 C   0  0  0  0  0  0  0  0  0  0  0  0
   14.9767  -12.8709    0.0000 N   0  0  0  0  0  0  0  0  0  0  0  0
   14.2714  -12.4618    0.0000 C   0  0  0  0  0  0  0  0  0  0  0  0
   13.5625  -12.8786    0.0000 C   0  0  0  0  0  0  0  0  0  0  0  0
   13.5680  -13.6931    0.0000 C   0  0  0  0  0  0  0  0  0  0  0  0
   14.2679  -11.6405    0.0000 C   0  0  0  0  0  0  0  0  0  0  0  0
   14.9739  -11.2289    0.0000 O   0  0  0  0  0  0  0  0  0  0  0  0
   13.5544  -11.2349    0.0000 N   0  0  0  0  0  0  0  0  0  0  0  0
   13.5509  -10.4136    0.0000 C   0  0  0  0  0  0  0  0  0  0  0  0
   14.2635  -10.0011    0.0000 C   0  0  0  0  0  0  0  0  0  0  0  0
   14.2603   -9.1805    0.0000 C   0  0  0  0  0  0  0  0  0  0  0  0
   13.5463   -8.7741    0.0000 C   0  0  0  0  0  0  0  0  0  0  0  0
   12.8338   -9.1901    0.0000 C   0  0  0  0  0  0  0  0  0  0  0  0
   12.8404  -10.0093    0.0000 C   0  0  0  0  0  0  0  0  0  0  0  0
   14.9665   -8.7693    0.0000 C   0  0  0  0  0  0  0  0  0  0  0  0
   15.6799   -9.1752    0.0000 C   0  0  0  0  0  0  0  0  0  0  0  0
   14.9635   -7.9438    0.0000 O   0  0  0  0  0  0  0  0  0  0  0  0
   16.3902   -8.7598    0.0000 C   0  0  0  0  0  0  0  0  0  0  0  0
   17.1035   -9.1699    0.0000 C   0  0  0  0  0  0  0  0  0  0  0  0
   17.1035   -9.9890    0.0000 C   0  0  0  0  0  0  0  0  0  0  0  0
   17.8161  -10.3948    0.0000 C   0  0  0  0  0  0  0  0  0  0  0  0
   18.5273   -9.9835    0.0000 C   0  0  0  0  0  0  0  0  0  0  0  0
   18.5216   -9.1580    0.0000 C   0  0  0  0  0  0  0  0  0  0  0  0
   17.8085   -8.7517    0.0000 C   0  0  0  0  0  0  0  0  0  0  0  0
   19.2412  -10.3885    0.0000 O   0  0  0  0  0  0  0  0  0  0  0  0
   19.9510   -9.9764    0.0000 C   0  0  0  0  0  0  0  0  0  0  0  0
   20.6608  -10.3814    0.0000 C   0  0  0  0  0  0  0  0  0  0  0  0
   21.3705   -9.9692    0.0000 N   0  0  0  0  0  0  0  0  0  0  0  0
   22.0804  -10.3790    0.0000 C   0  0  0  0  0  0  0  0  0  0  0  0
   22.0743   -8.7373    0.0000 C   0  0  0  0  0  0  0  0  0  0  0  0
   21.3605   -9.1518    0.0000 C   0  0  0  0  0  0  0  0  0  0  0  0
   22.7881   -9.1486    0.0000 C   0  0  0  0  0  0  0  0  0  0  0  0
   22.7880   -9.9696    0.0000 C   0  0  0  0  0  0  0  0  0  0  0  0
   23.4984  -10.3763    0.0000 C   0  0  0  0  0  0  0  0  0  0  0  0
   24.2093   -9.9673    0.0000 C   0  0  0  0  0  0  0  0  0  0  0  0
   24.2054   -9.1432    0.0000 C   0  0  0  0  0  0  0  0  0  0  0  0
   23.4945   -8.7361    0.0000 C   0  0  0  0  0  0  0  0  0  0  0  0
   24.9152   -8.7269    0.0000 O   0  0  0  0  0  0  0  0  0  0  0  0
   25.6249   -9.1360    0.0000 C   0  0  0  0  0  0  0  0  0  0  0  0
   24.9223  -10.3738    0.0000 O   0  0  0  0  0  0  0  0  0  0  0  0
   24.9246  -11.1952    0.0000 C   0  0  0  0  0  0  0  0  0  0  0  0
  5  1  2  0
  1  2  1  0
  2  3  2  0
  3  4  1  0
  4  6  2  0
  5  6  1  0
  6  7  1  0
  7  8  2  0
  8  9  1  0
  9 10  2  0
 10  5  1  0
  8 11  1  0
 11 12  2  0
 11 13  1  0
 13 14  1  0
 14 15  2  0
 15 16  1  0
 16 17  2  0
 17 18  1  0
 18 19  2  0
 19 14  1  0
 16 20  1  0
 20 21  1  0
 20 22  2  0
 21 23  2  3
 23 24  1  0
 24 25  2  0
 25 26  1  0
 26 27  2  0
 27 28  1  0
 28 29  2  0
 29 24  1  0
 27 30  1  0
 30 31  1  0
 31 32  1  0
 32 33  1  0
 33 34  1  0
 33 36  1  0
 34 38  1  0
 37 35  1  0
 35 36  1  0
 37 38  2  0
 38 39  1  0
 39 40  2  0
 40 41  1  0
 41 42  2  0
 42 37  1  0
 41 43  1  0
 43 44  1  0
 40 45  1  0
 45 46  1  0
M  END
>  <Classification>  (646) 
1

>  <pchembl>  (646) 
5.39

>  <InChI_steorem>  (646) 
InChI=1S/C38H35N3O5/c1-44-36-23-28-18-19-41(25-30(28)24-37(36)45-2)20-21-46-32-14-10-26(11-15-32)12-17-35(42)29-7-5-8-31(22-29)39-38(43)34-16-13-27-6-3-4-9-33(27)40-34/h3-17,22-24H,18-21,25H2,1-2H3,(H,39,43)

>  <source>  (646) 
ChEMBL26

>  <source_id>  (646) 
26

>  <optional_reference>  (646) 
10.1021/acsmedchemlett.8b00289

>  <optional_origin>  (646) 
None

>  <target>  (646) 
BCRP

$$$$

     RDKit          2D

 47 52  0  0  0  0  0  0  0  0999 V2000
   19.4202  -24.1920    0.0000 C   0  0  0  0  0  0  0  0  0  0  0  0
   20.1323  -24.6051    0.0000 C   0  0  0  0  0  0  0  0  0  0  0  0
   20.8461  -24.1915    0.0000 C   0  0  0  0  0  0  0  0  0  0  0  0
   20.8433  -23.3647    0.0000 C   0  0  0  0  0  0  0  0  0  0  0  0
   19.4213  -23.3683    0.0000 C   0  0  0  0  0  0  0  0  0  0  0  0
   20.1295  -22.9607    0.0000 C   0  0  0  0  0  0  0  0  0  0  0  0
   20.1275  -22.1448    0.0000 N   0  0  0  0  0  0  0  0  0  0  0  0
   19.4180  -21.7357    0.0000 C   0  0  0  0  0  0  0  0  0  0  0  0
   18.7092  -22.1525    0.0000 C   0  0  0  0  0  0  0  0  0  0  0  0
   18.7146  -22.9669    0.0000 C   0  0  0  0  0  0  0  0  0  0  0  0
   19.4146  -20.9144    0.0000 C   0  0  0  0  0  0  0  0  0  0  0  0
   20.1247  -20.5028    0.0000 O   0  0  0  0  0  0  0  0  0  0  0  0
   18.7010  -20.5088    0.0000 N   0  0  0  0  0  0  0  0  0  0  0  0
   18.6976  -19.6875    0.0000 C   0  0  0  0  0  0  0  0  0  0  0  0
   19.4101  -19.2749    0.0000 C   0  0  0  0  0  0  0  0  0  0  0  0
   19.4070  -18.4544    0.0000 C   0  0  0  0  0  0  0  0  0  0  0  0
   18.6929  -18.0480    0.0000 C   0  0  0  0  0  0  0  0  0  0  0  0
   17.9846  -18.4640    0.0000 C   0  0  0  0  0  0  0  0  0  0  0  0
   17.9912  -19.2831    0.0000 C   0  0  0  0  0  0  0  0  0  0  0  0
   20.1173  -18.0431    0.0000 C   0  0  0  0  0  0  0  0  0  0  0  0
   20.8307  -18.4491    0.0000 C   0  0  0  0  0  0  0  0  0  0  0  0
   20.1142  -17.2177    0.0000 O   0  0  0  0  0  0  0  0  0  0  0  0
   21.5410  -18.0337    0.0000 C   0  0  0  0  0  0  0  0  0  0  0  0
   22.2543  -18.4438    0.0000 C   0  0  0  0  0  0  0  0  0  0  0  0
   22.2543  -19.2629    0.0000 C   0  0  0  0  0  0  0  0  0  0  0  0
   22.9668  -19.6687    0.0000 C   0  0  0  0  0  0  0  0  0  0  0  0
   23.6781  -19.2574    0.0000 C   0  0  0  0  0  0  0  0  0  0  0  0
   23.6724  -18.4319    0.0000 C   0  0  0  0  0  0  0  0  0  0  0  0
   22.9593  -18.0256    0.0000 C   0  0  0  0  0  0  0  0  0  0  0  0
   24.3879  -19.6624    0.0000 O   0  0  0  0  0  0  0  0  0  0  0  0
   25.0976  -19.2502    0.0000 C   0  0  0  0  0  0  0  0  0  0  0  0
   25.8115  -19.6552    0.0000 C   0  0  0  0  0  0  0  0  0  0  0  0
   26.5213  -19.2431    0.0000 N   0  0  0  0  0  0  0  0  0  0  0  0
   27.2311  -19.6529    0.0000 C   0  0  0  0  0  0  0  0  0  0  0  0
   27.2251  -18.0112    0.0000 C   0  0  0  0  0  0  0  0  0  0  0  0
   26.5113  -18.4257    0.0000 C   0  0  0  0  0  0  0  0  0  0  0  0
   27.9389  -18.4225    0.0000 C   0  0  0  0  0  0  0  0  0  0  0  0
   27.9388  -19.2434    0.0000 C   0  0  0  0  0  0  0  0  0  0  0  0
   28.6491  -19.6502    0.0000 C   0  0  0  0  0  0  0  0  0  0  0  0
   29.3601  -19.2412    0.0000 C   0  0  0  0  0  0  0  0  0  0  0  0
   29.3562  -18.4171    0.0000 C   0  0  0  0  0  0  0  0  0  0  0  0
   28.6452  -18.0099    0.0000 C   0  0  0  0  0  0  0  0  0  0  0  0
   30.0618  -18.0008    0.0000 O   0  0  0  0  0  0  0  0  0  0  0  0
   30.7757  -18.4099    0.0000 C   0  0  0  0  0  0  0  0  0  0  0  0
   30.0689  -19.6477    0.0000 O   0  0  0  0  0  0  0  0  0  0  0  0
   30.0713  -20.4690    0.0000 C   0  0  0  0  0  0  0  0  0  0  0  0
   17.2827  -19.7016    0.0000 C   0  0  0  0  0  0  0  0  0  0  0  0
  5  1  2  0
  1  2  1  0
  2  3  2  0
  3  4  1  0
  4  6  2  0
  5  6  1  0
  6  7  1  0
  7  8  2  0
  8  9  1  0
  9 10  2  0
 10  5  1  0
  8 11  1  0
 11 12  2  0
 11 13  1  0
 13 14  1  0
 14 15  2  0
 15 16  1  0
 16 17  2  0
 17 18  1  0
 18 19  2  0
 19 14  1  0
 16 20  1  0
 20 21  1  0
 20 22  2  0
 21 23  2  3
 23 24  1  0
 24 25  2  0
 25 26  1  0
 26 27  2  0
 27 28  1  0
 28 29  2  0
 29 24  1  0
 27 30  1  0
 30 31  1  0
 31 32  1  0
 32 33  1  0
 33 34  1  0
 33 36  1  0
 34 38  1  0
 37 35  1  0
 35 36  1  0
 37 38  2  0
 38 39  1  0
 39 40  2  0
 40 41  1  0
 41 42  2  0
 42 37  1  0
 41 43  1  0
 43 44  1  0
 40 45  1  0
 45 46  1  0
 19 47  1  0
M  END
>  <Classification>  (647) 
1

>  <pchembl>  (647) 
6.06

>  <InChI_steorem>  (647) 
InChI=1S/C39H37N3O5/c1-26-8-12-30(22-35(26)41-39(44)34-16-13-28-6-4-5-7-33(28)40-34)36(43)17-11-27-9-14-32(15-10-27)47-21-20-42-19-18-29-23-37(45-2)38(46-3)24-31(29)25-42/h4-17,22-24H,18-21,25H2,1-3H3,(H,41,44)

>  <source>  (647) 
ChEMBL26

>  <source_id>  (647) 
26

>  <optional_reference>  (647) 
10.1021/acsmedchemlett.8b00289

>  <optional_origin>  (647) 
None

>  <target>  (647) 
BCRP

$$$$

     RDKit          2D

 49 54  0  0  0  0  0  0  0  0999 V2000
   29.7135  -15.6074    0.0000 C   0  0  0  0  0  0  0  0  0  0  0  0
   30.4257  -16.0205    0.0000 C   0  0  0  0  0  0  0  0  0  0  0  0
   31.1394  -15.6069    0.0000 C   0  0  0  0  0  0  0  0  0  0  0  0
   31.1366  -14.7801    0.0000 C   0  0  0  0  0  0  0  0  0  0  0  0
   29.7146  -14.7837    0.0000 C   0  0  0  0  0  0  0  0  0  0  0  0
   30.4228  -14.3760    0.0000 C   0  0  0  0  0  0  0  0  0  0  0  0
   30.4208  -13.5602    0.0000 N   0  0  0  0  0  0  0  0  0  0  0  0
   29.7113  -13.1510    0.0000 C   0  0  0  0  0  0  0  0  0  0  0  0
   29.0025  -13.5678    0.0000 C   0  0  0  0  0  0  0  0  0  0  0  0
   29.0079  -14.3823    0.0000 C   0  0  0  0  0  0  0  0  0  0  0  0
   29.7079  -12.3297    0.0000 C   0  0  0  0  0  0  0  0  0  0  0  0
   30.4180  -11.9181    0.0000 O   0  0  0  0  0  0  0  0  0  0  0  0
   28.9943  -11.9241    0.0000 N   0  0  0  0  0  0  0  0  0  0  0  0
   28.9909  -11.1028    0.0000 C   0  0  0  0  0  0  0  0  0  0  0  0
   29.7034  -10.6903    0.0000 C   0  0  0  0  0  0  0  0  0  0  0  0
   29.7003   -9.8697    0.0000 C   0  0  0  0  0  0  0  0  0  0  0  0
   28.9862   -9.4633    0.0000 C   0  0  0  0  0  0  0  0  0  0  0  0
   28.2738   -9.8793    0.0000 C   0  0  0  0  0  0  0  0  0  0  0  0
   28.2804  -10.6985    0.0000 C   0  0  0  0  0  0  0  0  0  0  0  0
   30.4106   -9.4585    0.0000 C   0  0  0  0  0  0  0  0  0  0  0  0
   31.1240   -9.8644    0.0000 C   0  0  0  0  0  0  0  0  0  0  0  0
   30.4075   -8.6331    0.0000 O   0  0  0  0  0  0  0  0  0  0  0  0
   31.8343   -9.4491    0.0000 C   0  0  0  0  0  0  0  0  0  0  0  0
   32.5476   -9.8591    0.0000 C   0  0  0  0  0  0  0  0  0  0  0  0
   32.5476  -10.6782    0.0000 C   0  0  0  0  0  0  0  0  0  0  0  0
   33.2560  -11.0841    0.0000 C   0  0  0  0  0  0  0  0  0  0  0  0
   33.9673  -10.6728    0.0000 C   0  0  0  0  0  0  0  0  0  0  0  0
   33.9616   -9.8473    0.0000 C   0  0  0  0  0  0  0  0  0  0  0  0
   33.2485   -9.4410    0.0000 C   0  0  0  0  0  0  0  0  0  0  0  0
   34.6812  -11.0778    0.0000 O   0  0  0  0  0  0  0  0  0  0  0  0
   35.3910  -10.6656    0.0000 C   0  0  0  0  0  0  0  0  0  0  0  0
   36.1049  -11.0706    0.0000 C   0  0  0  0  0  0  0  0  0  0  0  0
   36.8146  -10.6584    0.0000 N   0  0  0  0  0  0  0  0  0  0  0  0
   37.5244  -11.0682    0.0000 C   0  0  0  0  0  0  0  0  0  0  0  0
   37.5184   -9.4265    0.0000 C   0  0  0  0  0  0  0  0  0  0  0  0
   36.8046   -9.8410    0.0000 C   0  0  0  0  0  0  0  0  0  0  0  0
   38.2322   -9.8378    0.0000 C   0  0  0  0  0  0  0  0  0  0  0  0
   38.2321  -10.6588    0.0000 C   0  0  0  0  0  0  0  0  0  0  0  0
   38.9383  -11.0655    0.0000 C   0  0  0  0  0  0  0  0  0  0  0  0
   39.6492  -10.6565    0.0000 C   0  0  0  0  0  0  0  0  0  0  0  0
   39.6454   -9.8324    0.0000 C   0  0  0  0  0  0  0  0  0  0  0  0
   38.9344   -9.4253    0.0000 C   0  0  0  0  0  0  0  0  0  0  0  0
   40.3551   -9.4161    0.0000 O   0  0  0  0  0  0  0  0  0  0  0  0
   41.0690   -9.8253    0.0000 C   0  0  0  0  0  0  0  0  0  0  0  0
   40.3622  -11.0631    0.0000 O   0  0  0  0  0  0  0  0  0  0  0  0
   40.3646  -11.8844    0.0000 C   0  0  0  0  0  0  0  0  0  0  0  0
   41.0776  -12.2951    0.0000 C   0  0  0  0  0  0  0  0  0  0  0  0
   41.0799  -13.1164    0.0000 O   0  0  0  0  0  0  0  0  0  0  0  0
   41.7929  -13.5230    0.0000 C   0  0  0  0  0  0  0  0  0  0  0  0
  5  1  2  0
  1  2  1  0
  2  3  2  0
  3  4  1  0
  4  6  2  0
  5  6  1  0
  6  7  1  0
  7  8  2  0
  8  9  1  0
  9 10  2  0
 10  5  1  0
  8 11  1  0
 11 12  2  0
 11 13  1  0
 13 14  1  0
 14 15  2  0
 15 16  1  0
 16 17  2  0
 17 18  1  0
 18 19  2  0
 19 14  1  0
 16 20  1  0
 20 21  1  0
 20 22  2  0
 21 23  2  3
 23 24  1  0
 24 25  2  0
 25 26  1  0
 26 27  2  0
 27 28  1  0
 28 29  2  0
 29 24  1  0
 27 30  1  0
 30 31  1  0
 31 32  1  0
 32 33  1  0
 33 34  1  0
 33 36  1  0
 34 38  1  0
 37 35  1  0
 35 36  1  0
 37 38  2  0
 38 39  1  0
 39 40  2  0
 40 41  1  0
 41 42  2  0
 42 37  1  0
 41 43  1  0
 43 44  1  0
 40 45  1  0
 45 46  1  0
 46 47  1  0
 47 48  1  0
 48 49  1  0
M  END
>  <Classification>  (648) 
1

>  <pchembl>  (648) 
5.67

>  <InChI_steorem>  (648) 
InChI=1S/C40H39N3O6/c1-46-22-23-49-39-26-32-27-43(19-18-30(32)25-38(39)47-2)20-21-48-34-14-10-28(11-15-34)12-17-37(44)31-7-5-8-33(24-31)41-40(45)36-16-13-29-6-3-4-9-35(29)42-36/h3-17,24-26H,18-23,27H2,1-2H3,(H,41,45)

>  <source>  (648) 
ChEMBL26

>  <source_id>  (648) 
26

>  <optional_reference>  (648) 
10.1021/acsmedchemlett.8b00289

>  <optional_origin>  (648) 
None

>  <target>  (648) 
BCRP

$$$$

     RDKit          2D

 50 55  0  0  0  0  0  0  0  0999 V2000
   35.1284  -23.6101    0.0000 C   0  0  0  0  0  0  0  0  0  0  0  0
   35.8406  -24.0231    0.0000 C   0  0  0  0  0  0  0  0  0  0  0  0
   36.5544  -23.6096    0.0000 C   0  0  0  0  0  0  0  0  0  0  0  0
   36.5515  -22.7828    0.0000 C   0  0  0  0  0  0  0  0  0  0  0  0
   35.1296  -22.7864    0.0000 C   0  0  0  0  0  0  0  0  0  0  0  0
   35.8377  -22.3787    0.0000 C   0  0  0  0  0  0  0  0  0  0  0  0
   35.8357  -21.5629    0.0000 N   0  0  0  0  0  0  0  0  0  0  0  0
   35.1263  -21.1537    0.0000 C   0  0  0  0  0  0  0  0  0  0  0  0
   34.4174  -21.5705    0.0000 C   0  0  0  0  0  0  0  0  0  0  0  0
   34.4229  -22.3850    0.0000 C   0  0  0  0  0  0  0  0  0  0  0  0
   35.1228  -20.3324    0.0000 C   0  0  0  0  0  0  0  0  0  0  0  0
   35.8329  -19.9208    0.0000 O   0  0  0  0  0  0  0  0  0  0  0  0
   34.4093  -19.9268    0.0000 N   0  0  0  0  0  0  0  0  0  0  0  0
   34.4058  -19.1055    0.0000 C   0  0  0  0  0  0  0  0  0  0  0  0
   35.1183  -18.6930    0.0000 C   0  0  0  0  0  0  0  0  0  0  0  0
   35.1152  -17.8724    0.0000 C   0  0  0  0  0  0  0  0  0  0  0  0
   34.4011  -17.4660    0.0000 C   0  0  0  0  0  0  0  0  0  0  0  0
   33.6928  -17.8820    0.0000 C   0  0  0  0  0  0  0  0  0  0  0  0
   33.6994  -18.7012    0.0000 C   0  0  0  0  0  0  0  0  0  0  0  0
   35.8255  -17.4612    0.0000 C   0  0  0  0  0  0  0  0  0  0  0  0
   36.5389  -17.8671    0.0000 C   0  0  0  0  0  0  0  0  0  0  0  0
   35.8225  -16.6358    0.0000 O   0  0  0  0  0  0  0  0  0  0  0  0
   37.2492  -17.4518    0.0000 C   0  0  0  0  0  0  0  0  0  0  0  0
   37.9626  -17.8618    0.0000 C   0  0  0  0  0  0  0  0  0  0  0  0
   37.9625  -18.6809    0.0000 C   0  0  0  0  0  0  0  0  0  0  0  0
   38.6751  -19.0868    0.0000 C   0  0  0  0  0  0  0  0  0  0  0  0
   39.3864  -18.6755    0.0000 C   0  0  0  0  0  0  0  0  0  0  0  0
   39.3806  -17.8499    0.0000 C   0  0  0  0  0  0  0  0  0  0  0  0
   38.6676  -17.4437    0.0000 C   0  0  0  0  0  0  0  0  0  0  0  0
   40.0961  -19.0805    0.0000 O   0  0  0  0  0  0  0  0  0  0  0  0
   40.8059  -18.6683    0.0000 C   0  0  0  0  0  0  0  0  0  0  0  0
   41.5198  -19.0733    0.0000 C   0  0  0  0  0  0  0  0  0  0  0  0
   42.2295  -18.6611    0.0000 N   0  0  0  0  0  0  0  0  0  0  0  0
   42.9394  -19.0709    0.0000 C   0  0  0  0  0  0  0  0  0  0  0  0
   42.9333  -17.4292    0.0000 C   0  0  0  0  0  0  0  0  0  0  0  0
   42.2195  -17.8437    0.0000 C   0  0  0  0  0  0  0  0  0  0  0  0
   43.6471  -17.8405    0.0000 C   0  0  0  0  0  0  0  0  0  0  0  0
   43.6470  -18.6615    0.0000 C   0  0  0  0  0  0  0  0  0  0  0  0
   44.3574  -19.0682    0.0000 C   0  0  0  0  0  0  0  0  0  0  0  0
   45.0683  -18.6592    0.0000 C   0  0  0  0  0  0  0  0  0  0  0  0
   45.0644  -17.8351    0.0000 C   0  0  0  0  0  0  0  0  0  0  0  0
   44.3535  -17.4280    0.0000 C   0  0  0  0  0  0  0  0  0  0  0  0
   45.7700  -17.4188    0.0000 O   0  0  0  0  0  0  0  0  0  0  0  0
   46.4839  -17.8280    0.0000 C   0  0  0  0  0  0  0  0  0  0  0  0
   45.7772  -19.0658    0.0000 O   0  0  0  0  0  0  0  0  0  0  0  0
   45.7795  -19.8871    0.0000 C   0  0  0  0  0  0  0  0  0  0  0  0
   32.9909  -19.1197    0.0000 C   0  0  0  0  0  0  0  0  0  0  0  0
   45.0730  -20.3018    0.0000 C   0  0  0  0  0  0  0  0  0  0  0  0
   45.0753  -21.1232    0.0000 O   0  0  0  0  0  0  0  0  0  0  0  0
   44.3646  -21.5338    0.0000 C   0  0  0  0  0  0  0  0  0  0  0  0
  5  1  2  0
  1  2  1  0
  2  3  2  0
  3  4  1  0
  4  6  2  0
  5  6  1  0
  6  7  1  0
  7  8  2  0
  8  9  1  0
  9 10  2  0
 10  5  1  0
  8 11  1  0
 11 12  2  0
 11 13  1  0
 13 14  1  0
 14 15  2  0
 15 16  1  0
 16 17  2  0
 17 18  1  0
 18 19  2  0
 19 14  1  0
 16 20  1  0
 20 21  1  0
 20 22  2  0
 21 23  2  3
 23 24  1  0
 24 25  2  0
 25 26  1  0
 26 27  2  0
 27 28  1  0
 28 29  2  0
 29 24  1  0
 27 30  1  0
 30 31  1  0
 31 32  1  0
 32 33  1  0
 33 34  1  0
 33 36  1  0
 34 38  1  0
 37 35  1  0
 35 36  1  0
 37 38  2  0
 38 39  1  0
 39 40  2  0
 40 41  1  0
 41 42  2  0
 42 37  1  0
 41 43  1  0
 43 44  1  0
 40 45  1  0
 45 46  1  0
 19 47  1  0
 46 48  1  0
 48 49  1  0
 49 50  1  0
M  END
>  <Classification>  (649) 
1

>  <pchembl>  (649) 
5.81

>  <InChI_steorem>  (649) 
InChI=1S/C41H41N3O6/c1-28-8-12-32(24-37(28)43-41(46)36-16-13-30-6-4-5-7-35(30)42-36)38(45)17-11-29-9-14-34(15-10-29)49-21-20-44-19-18-31-25-39(48-3)40(26-33(31)27-44)50-23-22-47-2/h4-17,24-26H,18-23,27H2,1-3H3,(H,43,46)

>  <source>  (649) 
ChEMBL26

>  <source_id>  (649) 
26

>  <optional_reference>  (649) 
10.1021/acsmedchemlett.8b00289

>  <optional_origin>  (649) 
None

>  <target>  (649) 
BCRP

$$$$

     RDKit          2D

 55 60  0  0  0  0  0  0  0  0999 V2000
    3.7326  -23.7710    0.0000 C   0  0  0  0  0  0  0  0  0  0  0  0
    4.4406  -24.1841    0.0000 C   0  0  0  0  0  0  0  0  0  0  0  0
    5.1544  -23.7705    0.0000 C   0  0  0  0  0  0  0  0  0  0  0  0
    5.1516  -22.9438    0.0000 C   0  0  0  0  0  0  0  0  0  0  0  0
    3.7337  -22.9474    0.0000 C   0  0  0  0  0  0  0  0  0  0  0  0
    4.4378  -22.5397    0.0000 C   0  0  0  0  0  0  0  0  0  0  0  0
    4.4358  -21.7238    0.0000 N   0  0  0  0  0  0  0  0  0  0  0  0
    3.7304  -21.3147    0.0000 C   0  0  0  0  0  0  0  0  0  0  0  0
    3.0216  -21.7315    0.0000 C   0  0  0  0  0  0  0  0  0  0  0  0
    3.0270  -22.5460    0.0000 C   0  0  0  0  0  0  0  0  0  0  0  0
    3.7270  -20.4934    0.0000 C   0  0  0  0  0  0  0  0  0  0  0  0
    4.4330  -20.0818    0.0000 O   0  0  0  0  0  0  0  0  0  0  0  0
    3.0134  -20.0878    0.0000 N   0  0  0  0  0  0  0  0  0  0  0  0
    3.0100  -19.2665    0.0000 C   0  0  0  0  0  0  0  0  0  0  0  0
    3.7225  -18.8540    0.0000 C   0  0  0  0  0  0  0  0  0  0  0  0
    3.7194  -18.0334    0.0000 C   0  0  0  0  0  0  0  0  0  0  0  0
    3.0053  -17.6270    0.0000 C   0  0  0  0  0  0  0  0  0  0  0  0
    2.2929  -18.0430    0.0000 C   0  0  0  0  0  0  0  0  0  0  0  0
    2.2995  -18.8622    0.0000 C   0  0  0  0  0  0  0  0  0  0  0  0
    4.4256  -17.6222    0.0000 C   0  0  0  0  0  0  0  0  0  0  0  0
    5.1389  -18.0281    0.0000 C   0  0  0  0  0  0  0  0  0  0  0  0
    4.4225  -16.7967    0.0000 O   0  0  0  0  0  0  0  0  0  0  0  0
    5.8492  -17.6127    0.0000 C   0  0  0  0  0  0  0  0  0  0  0  0
    6.5626  -18.0228    0.0000 C   0  0  0  0  0  0  0  0  0  0  0  0
    6.5626  -18.8419    0.0000 C   0  0  0  0  0  0  0  0  0  0  0  0
    7.2751  -19.2477    0.0000 C   0  0  0  0  0  0  0  0  0  0  0  0
    7.9864  -18.8364    0.0000 C   0  0  0  0  0  0  0  0  0  0  0  0
    7.9807  -18.0109    0.0000 C   0  0  0  0  0  0  0  0  0  0  0  0
    7.2676  -17.6046    0.0000 C   0  0  0  0  0  0  0  0  0  0  0  0
    8.7003  -19.2414    0.0000 O   0  0  0  0  0  0  0  0  0  0  0  0
    9.4101  -18.8293    0.0000 C   0  0  0  0  0  0  0  0  0  0  0  0
   10.1198  -19.2343    0.0000 C   0  0  0  0  0  0  0  0  0  0  0  0
   10.8296  -18.8221    0.0000 N   0  0  0  0  0  0  0  0  0  0  0  0
   11.5394  -19.2319    0.0000 C   0  0  0  0  0  0  0  0  0  0  0  0
   11.5334  -17.5902    0.0000 C   0  0  0  0  0  0  0  0  0  0  0  0
   10.8196  -18.0047    0.0000 C   0  0  0  0  0  0  0  0  0  0  0  0
   12.2471  -18.0015    0.0000 C   0  0  0  0  0  0  0  0  0  0  0  0
   12.2471  -18.8225    0.0000 C   0  0  0  0  0  0  0  0  0  0  0  0
   12.9574  -19.2292    0.0000 C   0  0  0  0  0  0  0  0  0  0  0  0
   13.6683  -18.8202    0.0000 C   0  0  0  0  0  0  0  0  0  0  0  0
   13.6645  -17.9961    0.0000 C   0  0  0  0  0  0  0  0  0  0  0  0
   12.9535  -17.5890    0.0000 C   0  0  0  0  0  0  0  0  0  0  0  0
   14.3742  -17.5798    0.0000 O   0  0  0  0  0  0  0  0  0  0  0  0
   15.0840  -17.9889    0.0000 C   0  0  0  0  0  0  0  0  0  0  0  0
   14.3813  -19.2267    0.0000 O   0  0  0  0  0  0  0  0  0  0  0  0
   14.3837  -20.0481    0.0000 C   0  0  0  0  0  0  0  0  0  0  0  0
   13.6730  -20.4628    0.0000 C   0  0  0  0  0  0  0  0  0  0  0  0
   12.9600  -20.0521    0.0000 O   0  0  0  0  0  0  0  0  0  0  0  0
   12.2493  -20.4669    0.0000 C   0  0  0  0  0  0  0  0  0  0  0  0
   11.5363  -20.0562    0.0000 C   0  0  0  0  0  0  0  0  0  0  0  0
   10.8257  -20.4709    0.0000 O   0  0  0  0  0  0  0  0  0  0  0  0
   10.1127  -20.0602    0.0000 C   0  0  0  0  0  0  0  0  0  0  0  0
    9.4061  -20.4750    0.0000 C   0  0  0  0  0  0  0  0  0  0  0  0
    8.6931  -20.0643    0.0000 O   0  0  0  0  0  0  0  0  0  0  0  0
    7.9825  -20.4790    0.0000 C   0  0  0  0  0  0  0  0  0  0  0  0
  5  1  2  0
  1  2  1  0
  2  3  2  0
  3  4  1  0
  4  6  2  0
  5  6  1  0
  6  7  1  0
  7  8  2  0
  8  9  1  0
  9 10  2  0
 10  5  1  0
  8 11  1  0
 11 12  2  0
 11 13  1  0
 13 14  1  0
 14 15  2  0
 15 16  1  0
 16 17  2  0
 17 18  1  0
 18 19  2  0
 19 14  1  0
 16 20  1  0
 20 21  1  0
 20 22  2  0
 21 23  2  3
 23 24  1  0
 24 25  2  0
 25 26  1  0
 26 27  2  0
 27 28  1  0
 28 29  2  0
 29 24  1  0
 27 30  1  0
 30 31  1  0
 31 32  1  0
 32 33  1  0
 33 34  1  0
 33 36  1  0
 34 38  1  0
 37 35  1  0
 35 36  1  0
 37 38  2  0
 38 39  1  0
 39 40  2  0
 40 41  1  0
 41 42  2  0
 42 37  1  0
 41 43  1  0
 43 44  1  0
 40 45  1  0
 45 46  1  0
 46 47  1  0
 47 48  1  0
 48 49  1  0
 49 50  1  0
 50 51  1  0
 51 52  1  0
 52 53  1  0
 53 54  1  0
 54 55  1  0
M  END
>  <Classification>  (650) 
1

>  <pchembl>  (650) 
5.55

>  <InChI_steorem>  (650) 
InChI=1S/C44H47N3O8/c1-50-22-23-52-24-25-53-26-27-55-43-30-36-31-47(19-18-34(36)29-42(43)51-2)20-21-54-38-14-10-32(11-15-38)12-17-41(48)35-7-5-8-37(28-35)45-44(49)40-16-13-33-6-3-4-9-39(33)46-40/h3-17,28-30H,18-27,31H2,1-2H3,(H,45,49)

>  <source>  (650) 
ChEMBL26

>  <source_id>  (650) 
26

>  <optional_reference>  (650) 
10.1021/acsmedchemlett.8b00289

>  <optional_origin>  (650) 
None

>  <target>  (650) 
BCRP

$$$$

     RDKit          2D

 56 61  0  0  0  0  0  0  0  0999 V2000
    5.8457  -31.1340    0.0000 C   0  0  0  0  0  0  0  0  0  0  0  0
    6.5579  -31.5471    0.0000 C   0  0  0  0  0  0  0  0  0  0  0  0
    7.2717  -31.1335    0.0000 C   0  0  0  0  0  0  0  0  0  0  0  0
    7.2689  -30.3067    0.0000 C   0  0  0  0  0  0  0  0  0  0  0  0
    5.8469  -30.3103    0.0000 C   0  0  0  0  0  0  0  0  0  0  0  0
    6.5551  -29.9027    0.0000 C   0  0  0  0  0  0  0  0  0  0  0  0
    6.5530  -29.0868    0.0000 N   0  0  0  0  0  0  0  0  0  0  0  0
    5.8436  -28.6777    0.0000 C   0  0  0  0  0  0  0  0  0  0  0  0
    5.1347  -29.0945    0.0000 C   0  0  0  0  0  0  0  0  0  0  0  0
    5.1402  -29.9089    0.0000 C   0  0  0  0  0  0  0  0  0  0  0  0
    5.8401  -27.8564    0.0000 C   0  0  0  0  0  0  0  0  0  0  0  0
    6.5502  -27.4448    0.0000 O   0  0  0  0  0  0  0  0  0  0  0  0
    5.1266  -27.4508    0.0000 N   0  0  0  0  0  0  0  0  0  0  0  0
    5.1231  -26.6295    0.0000 C   0  0  0  0  0  0  0  0  0  0  0  0
    5.8356  -26.2169    0.0000 C   0  0  0  0  0  0  0  0  0  0  0  0
    5.8325  -25.3964    0.0000 C   0  0  0  0  0  0  0  0  0  0  0  0
    5.1184  -24.9900    0.0000 C   0  0  0  0  0  0  0  0  0  0  0  0
    4.4101  -25.4059    0.0000 C   0  0  0  0  0  0  0  0  0  0  0  0
    4.4167  -26.2251    0.0000 C   0  0  0  0  0  0  0  0  0  0  0  0
    6.5428  -24.9851    0.0000 C   0  0  0  0  0  0  0  0  0  0  0  0
    7.2562  -25.3911    0.0000 C   0  0  0  0  0  0  0  0  0  0  0  0
    6.5398  -24.1597    0.0000 O   0  0  0  0  0  0  0  0  0  0  0  0
    7.9665  -24.9757    0.0000 C   0  0  0  0  0  0  0  0  0  0  0  0
    8.6799  -25.3858    0.0000 C   0  0  0  0  0  0  0  0  0  0  0  0
    8.6799  -26.2049    0.0000 C   0  0  0  0  0  0  0  0  0  0  0  0
    9.3924  -26.6107    0.0000 C   0  0  0  0  0  0  0  0  0  0  0  0
   10.1037  -26.1994    0.0000 C   0  0  0  0  0  0  0  0  0  0  0  0
   10.0980  -25.3739    0.0000 C   0  0  0  0  0  0  0  0  0  0  0  0
    9.3849  -24.9676    0.0000 C   0  0  0  0  0  0  0  0  0  0  0  0
   10.8134  -26.6044    0.0000 O   0  0  0  0  0  0  0  0  0  0  0  0
   11.5232  -26.1922    0.0000 C   0  0  0  0  0  0  0  0  0  0  0  0
   12.2371  -26.5972    0.0000 C   0  0  0  0  0  0  0  0  0  0  0  0
   12.9468  -26.1851    0.0000 N   0  0  0  0  0  0  0  0  0  0  0  0
   13.6567  -26.5948    0.0000 C   0  0  0  0  0  0  0  0  0  0  0  0
   13.6507  -24.9532    0.0000 C   0  0  0  0  0  0  0  0  0  0  0  0
   12.9368  -25.3677    0.0000 C   0  0  0  0  0  0  0  0  0  0  0  0
   14.3644  -25.3645    0.0000 C   0  0  0  0  0  0  0  0  0  0  0  0
   14.3643  -26.1854    0.0000 C   0  0  0  0  0  0  0  0  0  0  0  0
   15.0747  -26.5922    0.0000 C   0  0  0  0  0  0  0  0  0  0  0  0
   15.7856  -26.1832    0.0000 C   0  0  0  0  0  0  0  0  0  0  0  0
   15.7817  -25.3591    0.0000 C   0  0  0  0  0  0  0  0  0  0  0  0
   15.0708  -24.9519    0.0000 C   0  0  0  0  0  0  0  0  0  0  0  0
   16.4874  -24.9428    0.0000 O   0  0  0  0  0  0  0  0  0  0  0  0
   17.2013  -25.3519    0.0000 C   0  0  0  0  0  0  0  0  0  0  0  0
   16.4945  -26.5897    0.0000 O   0  0  0  0  0  0  0  0  0  0  0  0
   16.4968  -27.4110    0.0000 C   0  0  0  0  0  0  0  0  0  0  0  0
   15.7903  -27.8258    0.0000 C   0  0  0  0  0  0  0  0  0  0  0  0
   15.0773  -27.4151    0.0000 O   0  0  0  0  0  0  0  0  0  0  0  0
   14.3666  -27.8298    0.0000 C   0  0  0  0  0  0  0  0  0  0  0  0
   13.6536  -27.4191    0.0000 C   0  0  0  0  0  0  0  0  0  0  0  0
   12.9430  -27.8339    0.0000 O   0  0  0  0  0  0  0  0  0  0  0  0
   12.2299  -27.4232    0.0000 C   0  0  0  0  0  0  0  0  0  0  0  0
   11.5193  -27.8379    0.0000 C   0  0  0  0  0  0  0  0  0  0  0  0
   10.8063  -27.4272    0.0000 O   0  0  0  0  0  0  0  0  0  0  0  0
   10.0997  -27.8420    0.0000 C   0  0  0  0  0  0  0  0  0  0  0  0
    3.7082  -26.6436    0.0000 C   0  0  0  0  0  0  0  0  0  0  0  0
  5  1  2  0
  1  2  1  0
  2  3  2  0
  3  4  1  0
  4  6  2  0
  5  6  1  0
  6  7  1  0
  7  8  2  0
  8  9  1  0
  9 10  2  0
 10  5  1  0
  8 11  1  0
 11 12  2  0
 11 13  1  0
 13 14  1  0
 14 15  2  0
 15 16  1  0
 16 17  2  0
 17 18  1  0
 18 19  2  0
 19 14  1  0
 16 20  1  0
 20 21  1  0
 20 22  2  0
 21 23  2  3
 23 24  1  0
 24 25  2  0
 25 26  1  0
 26 27  2  0
 27 28  1  0
 28 29  2  0
 29 24  1  0
 27 30  1  0
 30 31  1  0
 31 32  1  0
 32 33  1  0
 33 34  1  0
 33 36  1  0
 34 38  1  0
 37 35  1  0
 35 36  1  0
 37 38  2  0
 38 39  1  0
 39 40  2  0
 40 41  1  0
 41 42  2  0
 42 37  1  0
 41 43  1  0
 43 44  1  0
 40 45  1  0
 45 46  1  0
 46 47  1  0
 47 48  1  0
 48 49  1  0
 49 50  1  0
 50 51  1  0
 51 52  1  0
 52 53  1  0
 53 54  1  0
 54 55  1  0
 19 56  1  0
M  END
>  <Classification>  (651) 
1

>  <pchembl>  (651) 
5.57

>  <InChI_steorem>  (651) 
InChI=1S/C45H49N3O8/c1-32-8-12-36(28-41(32)47-45(50)40-16-13-34-6-4-5-7-39(34)46-40)42(49)17-11-33-9-14-38(15-10-33)55-21-20-48-19-18-35-29-43(52-3)44(30-37(35)31-48)56-27-26-54-25-24-53-23-22-51-2/h4-17,28-30H,18-27,31H2,1-3H3,(H,47,50)

>  <source>  (651) 
ChEMBL26

>  <source_id>  (651) 
26

>  <optional_reference>  (651) 
10.1021/acsmedchemlett.8b00289

>  <optional_origin>  (651) 
None

>  <target>  (651) 
BCRP

$$$$

     RDKit          2D

 16 17  0  0  0  0  0  0  0  0999 V2000
   10.6427  -13.3887    0.0000 C   0  0  0  0  0  0  0  0  0  0  0  0
   10.6416  -14.2082    0.0000 C   0  0  0  0  0  0  0  0  0  0  0  0
   11.3496  -14.6172    0.0000 C   0  0  0  0  0  0  0  0  0  0  0  0
   12.0593  -14.2078    0.0000 C   0  0  0  0  0  0  0  0  0  0  0  0
   12.0564  -13.3851    0.0000 C   0  0  0  0  0  0  0  0  0  0  0  0
   11.3478  -12.9798    0.0000 C   0  0  0  0  0  0  0  0  0  0  0  0
   12.7626  -12.9738    0.0000 C   0  0  0  0  0  0  0  0  0  0  0  0
   13.4718  -13.3798    0.0000 C   0  0  0  0  0  0  0  0  0  0  0  0
   12.7595  -12.1566    0.0000 O   0  0  0  0  0  0  0  0  0  0  0  0
   14.1780  -12.9685    0.0000 C   0  0  0  0  0  0  0  0  0  0  0  0
   14.8873  -13.3744    0.0000 C   0  0  0  0  0  0  0  0  0  0  0  0
   14.9781  -14.1861    0.0000 S   0  0  0  0  0  0  0  0  0  0  0  0
   15.7781  -14.3530    0.0000 C   0  0  0  0  0  0  0  0  0  0  0  0
   16.1840  -13.6437    0.0000 C   0  0  0  0  0  0  0  0  0  0  0  0
   15.6349  -13.0386    0.0000 C   0  0  0  0  0  0  0  0  0  0  0  0
    9.9335  -14.6163    0.0000 O   0  0  0  0  0  0  0  0  0  0  0  0
  1  2  2  0
  2  3  1  0
  3  4  2  0
  4  5  1  0
  5  6  2  0
  6  1  1  0
  5  7  1  0
  7  8  1  0
  7  9  2  0
  8 10  2  3
 10 11  1  0
 11 12  1  0
 12 13  1  0
 13 14  2  0
 14 15  1  0
 15 11  2  0
  2 16  1  0
M  END
>  <Classification>  (652) 
0

>  <pchembl>  (652) 
4.74

>  <InChI_steorem>  (652) 
InChI=1S/C13H10O2S/c14-11-5-3-10(4-6-11)13(15)8-7-12-2-1-9-16-12/h1-9,14H

>  <source>  (652) 
ChEMBL28

>  <source_id>  (652) 
28

>  <optional_reference>  (652) 
10.1016/j.ejmech.2018.12.019

>  <optional_origin>  (652) 
None

>  <target>  (652) 
BCRP

$$$$

     RDKit          2D

 16 17  0  0  0  0  0  0  0  0999 V2000
   16.1178  -12.6528    0.0000 C   0  0  0  0  0  0  0  0  0  0  0  0
   16.1166  -13.4802    0.0000 C   0  0  0  0  0  0  0  0  0  0  0  0
   16.8314  -13.8930    0.0000 C   0  0  0  0  0  0  0  0  0  0  0  0
   17.5478  -13.4797    0.0000 C   0  0  0  0  0  0  0  0  0  0  0  0
   17.5449  -12.6492    0.0000 C   0  0  0  0  0  0  0  0  0  0  0  0
   16.8296  -12.2402    0.0000 C   0  0  0  0  0  0  0  0  0  0  0  0
   18.2578  -12.2341    0.0000 O   0  0  0  0  0  0  0  0  0  0  0  0
   18.2628  -13.8910    0.0000 C   0  0  0  0  0  0  0  0  0  0  0  0
   18.2641  -14.7159    0.0000 O   0  0  0  0  0  0  0  0  0  0  0  0
   18.9765  -13.4775    0.0000 C   0  0  0  0  0  0  0  0  0  0  0  0
   19.6916  -13.8888    0.0000 C   0  0  0  0  0  0  0  0  0  0  0  0
   20.4054  -13.4752    0.0000 C   0  0  0  0  0  0  0  0  0  0  0  0
   21.1569  -13.8065    0.0000 S   0  0  0  0  0  0  0  0  0  0  0  0
   21.7079  -13.1927    0.0000 C   0  0  0  0  0  0  0  0  0  0  0  0
   21.2943  -12.4789    0.0000 C   0  0  0  0  0  0  0  0  0  0  0  0
   20.4878  -12.6517    0.0000 C   0  0  0  0  0  0  0  0  0  0  0  0
  4  8  1  0
  8  9  2  0
  4  5  2  0
  8 10  1  0
  2  3  2  0
 10 11  2  3
  5  6  1  0
 11 12  1  0
 12 13  1  0
  6  1  2  0
  1  2  1  0
  5  7  1  0
  3  4  1  0
 13 14  1  0
 14 15  2  0
 15 16  1  0
 16 12  2  0
M  END
>  <Classification>  (653) 
0

>  <pchembl>  (653) 
4.98

>  <InChI_steorem>  (653) 
InChI=1S/C13H10O2S/c14-12-6-2-1-5-11(12)13(15)8-7-10-4-3-9-16-10/h1-9,14H

>  <source>  (653) 
ChEMBL28

>  <source_id>  (653) 
28

>  <optional_reference>  (653) 
10.1016/j.ejmech.2018.12.019

>  <optional_origin>  (653) 
None

>  <target>  (653) 
BCRP

$$$$

     RDKit          2D

 16 17  0  0  0  0  0  0  0  0999 V2000
   -5.4601  -10.3946    0.0000 C   0  0  0  0  0  0  0  0  0  0  0  0
   -5.4614  -11.2221    0.0000 C   0  0  0  0  0  0  0  0  0  0  0  0
   -4.7484  -11.6350    0.0000 C   0  0  0  0  0  0  0  0  0  0  0  0
   -4.0291  -11.2216    0.0000 C   0  0  0  0  0  0  0  0  0  0  0  0
   -4.0323  -10.3905    0.0000 C   0  0  0  0  0  0  0  0  0  0  0  0
   -4.7504   -9.9818    0.0000 C   0  0  0  0  0  0  0  0  0  0  0  0
   -3.3143  -11.6335    0.0000 C   0  0  0  0  0  0  0  0  0  0  0  0
   -3.3136  -12.4584    0.0000 O   0  0  0  0  0  0  0  0  0  0  0  0
   -2.6003  -11.2203    0.0000 C   0  0  0  0  0  0  0  0  0  0  0  0
   -1.8854  -11.6321    0.0000 C   0  0  0  0  0  0  0  0  0  0  0  0
   -3.3199   -9.9745    0.0000 O   0  0  0  0  0  0  0  0  0  0  0  0
   -1.1713  -11.2190    0.0000 C   0  0  0  0  0  0  0  0  0  0  0  0
   -0.4134  -11.5512    0.0000 C   0  0  0  0  0  0  0  0  0  0  0  0
    0.1380  -10.9376    0.0000 C   0  0  0  0  0  0  0  0  0  0  0  0
   -0.2751  -10.2235    0.0000 C   0  0  0  0  0  0  0  0  0  0  0  0
   -1.0818  -10.3959    0.0000 O   0  0  0  0  0  0  0  0  0  0  0  0
  7  8  2  0
  7  9  1  0
  4  5  2  0
  9 10  2  3
  2  3  2  0
  5 11  1  0
  5  6  1  0
 10 12  1  0
 12 13  2  0
  6  1  2  0
  1  2  1  0
  4  7  1  0
  3  4  1  0
 13 14  1  0
 14 15  2  0
 15 16  1  0
 16 12  1  0
M  END
>  <Classification>  (654) 
0

>  <pchembl>  (654) 
4.79

>  <InChI_steorem>  (654) 
InChI=1S/C13H10O3/c14-12-6-2-1-5-11(12)13(15)8-7-10-4-3-9-16-10/h1-9,14H

>  <source>  (654) 
ChEMBL28

>  <source_id>  (654) 
28

>  <optional_reference>  (654) 
10.1016/j.ejmech.2018.12.019

>  <optional_origin>  (654) 
None

>  <target>  (654) 
BCRP

$$$$

     RDKit          2D

 16 18  0  0  0  0  0  0  0  0999 V2000
    2.4942   -0.0844    0.0000 O   0  0  0  0  0  0  0  0  0  0  0  0
    5.3276   -0.8394    0.0000 N   0  0  0  0  0  0  0  0  0  0  0  0
    7.3541    0.0871    0.0000 N   0  0  0  0  0  0  0  0  0  0  0  0
    5.7401    0.4302    0.0000 C   0  0  0  0  0  0  0  0  0  0  0  0
    4.9151    0.4302    0.0000 C   0  0  0  0  0  0  0  0  0  0  0  0
    5.9951   -0.3545    0.0000 C   0  0  0  0  0  0  0  0  0  0  0  0
    4.6602   -0.3545    0.0000 C   0  0  0  0  0  0  0  0  0  0  0  0
    6.8021   -0.5260    0.0000 C   0  0  0  0  0  0  0  0  0  0  0  0
    3.8532   -0.5260    0.0000 C   0  0  0  0  0  0  0  0  0  0  0  0
    4.3631    1.0432    0.0000 C   0  0  0  0  0  0  0  0  0  0  0  0
    6.2922    1.0432    0.0000 C   0  0  0  0  0  0  0  0  0  0  0  0
    3.3012    0.0871    0.0000 C   0  0  0  0  0  0  0  0  0  0  0  0
    3.5561    0.8717    0.0000 C   0  0  0  0  0  0  0  0  0  0  0  0
    7.0991    0.8717    0.0000 C   0  0  0  0  0  0  0  0  0  0  0  0
    7.0570   -1.3106    0.0000 C   0  0  0  0  0  0  0  0  0  0  0  0
    2.2393   -0.8691    0.0000 C   0  0  0  0  0  0  0  0  0  0  0  0
  1 12  1  0
  1 16  1  0
  2  6  1  0
  2  7  1  0
  3  8  2  0
  3 14  1  0
  4  5  1  0
  4  6  2  0
  4 11  1  0
  5  7  2  0
  5 10  1  0
  6  8  1  0
  7  9  1  0
  8 15  1  0
  9 12  2  0
 10 13  2  0
 11 14  2  0
 12 13  1  0
M  END
>  <Classification>  (655) 
1

>  <pchembl>  (655) 
5.29

>  <InChI_steorem>  (655) 
InChI=1S/C13H12N2O/c1-8-13-11(5-6-14-8)10-4-3-9(16-2)7-12(10)15-13/h3-7,15H,1-2H3

>  <source>  (655) 
ChEMBL28

>  <source_id>  (655) 
28

>  <optional_reference>  (655) 
10.1021/acs.jmedchem.6b00035

>  <optional_origin>  (655) 
None

>  <target>  (655) 
BCRP

$$$$

     RDKit          2D

 17 19  0  0  0  0  0  0  0  0999 V2000
    4.2648   -0.6794    0.0000 N   0  0  0  0  0  0  0  0  0  0  0  0
    3.5504    0.5581    0.0000 N   0  0  0  0  0  0  0  0  0  0  0  0
    4.2648    1.7956    0.0000 N   0  0  0  0  0  0  0  0  0  0  0  0
    4.9793    0.5581    0.0000 C   0  0  0  0  0  0  0  0  0  0  0  0
    4.2648    0.1456    0.0000 C   0  0  0  0  0  0  0  0  0  0  0  0
    4.9793    1.3831    0.0000 C   0  0  0  0  0  0  0  0  0  0  0  0
    5.6938    0.1456    0.0000 C   0  0  0  0  0  0  0  0  0  0  0  0
    5.6938    1.7956    0.0000 C   0  0  0  0  0  0  0  0  0  0  0  0
    3.5504   -1.0919    0.0000 C   0  0  0  0  0  0  0  0  0  0  0  0
    3.5504    1.3831    0.0000 C   0  0  0  0  0  0  0  0  0  0  0  0
    6.4083    0.5581    0.0000 C   0  0  0  0  0  0  0  0  0  0  0  0
    6.4083    1.3831    0.0000 C   0  0  0  0  0  0  0  0  0  0  0  0
    3.5504   -1.9169    0.0000 C   0  0  0  0  0  0  0  0  0  0  0  0
    2.8359   -0.6794    0.0000 C   0  0  0  0  0  0  0  0  0  0  0  0
    2.8359   -2.3294    0.0000 C   0  0  0  0  0  0  0  0  0  0  0  0
    2.1214   -1.0919    0.0000 C   0  0  0  0  0  0  0  0  0  0  0  0
    2.1214   -1.9169    0.0000 C   0  0  0  0  0  0  0  0  0  0  0  0
  1  5  1  0
  1  9  1  0
  2  5  2  0
  2 10  1  0
  3  6  1  0
  3 10  2  0
  4  5  1  0
  4  6  2  0
  4  7  1  0
  6  8  1  0
  7 11  2  0
  8 12  2  0
  9 13  2  0
  9 14  1  0
 11 12  1  0
 13 15  1  0
 14 16  2  0
 15 17  2  0
 16 17  1  0
M  END
>  <Classification>  (656) 
0

>  <pchembl>  (656) 
4.97

>  <InChI_steorem>  (656) 
InChI=1S/C14H11N3/c1-2-6-11(7-3-1)17-14-12-8-4-5-9-13(12)15-10-16-14/h1-10H,(H,15,16,17)

>  <source>  (656) 
ChEMBL28

>  <source_id>  (656) 
28

>  <optional_reference>  (656) 
10.1016/j.ejmech.2018.10.026

>  <optional_origin>  (656) 
None

>  <target>  (656) 
BCRP

$$$$

     RDKit          2D

 18 20  0  0  0  0  0  0  0  0999 V2000
    2.1214   -2.2000    0.0000 O   0  0  0  0  0  0  0  0  0  0  0  0
    4.9793   -0.5500    0.0000 N   0  0  0  0  0  0  0  0  0  0  0  0
    4.2648    0.6875    0.0000 N   0  0  0  0  0  0  0  0  0  0  0  0
    4.9793    1.9250    0.0000 N   0  0  0  0  0  0  0  0  0  0  0  0
    5.6938    0.6875    0.0000 C   0  0  0  0  0  0  0  0  0  0  0  0
    4.9793    0.2750    0.0000 C   0  0  0  0  0  0  0  0  0  0  0  0
    5.6938    1.5125    0.0000 C   0  0  0  0  0  0  0  0  0  0  0  0
    4.2648   -0.9625    0.0000 C   0  0  0  0  0  0  0  0  0  0  0  0
    6.4083    0.2750    0.0000 C   0  0  0  0  0  0  0  0  0  0  0  0
    6.4083    1.9250    0.0000 C   0  0  0  0  0  0  0  0  0  0  0  0
    4.2648    1.5125    0.0000 C   0  0  0  0  0  0  0  0  0  0  0  0
    7.1227    0.6875    0.0000 C   0  0  0  0  0  0  0  0  0  0  0  0
    4.2648   -1.7875    0.0000 C   0  0  0  0  0  0  0  0  0  0  0  0
    3.5504   -0.5500    0.0000 C   0  0  0  0  0  0  0  0  0  0  0  0
    7.1227    1.5125    0.0000 C   0  0  0  0  0  0  0  0  0  0  0  0
    2.8359   -1.7875    0.0000 C   0  0  0  0  0  0  0  0  0  0  0  0
    3.5504   -2.2000    0.0000 C   0  0  0  0  0  0  0  0  0  0  0  0
    2.8359   -0.9625    0.0000 C   0  0  0  0  0  0  0  0  0  0  0  0
  1 16  1  0
  2  6  1  0
  2  8  1  0
  3  6  2  0
  3 11  1  0
  4  7  1  0
  4 11  2  0
  5  6  1  0
  5  7  2  0
  5  9  1  0
  7 10  1  0
  8 13  2  0
  8 14  1  0
  9 12  2  0
 10 15  2  0
 12 15  1  0
 13 17  1  0
 14 18  2  0
 16 17  2  0
 16 18  1  0
M  END
>  <Classification>  (657) 
1

>  <pchembl>  (657) 
5.58

>  <InChI_steorem>  (657) 
InChI=1S/C14H11N3O/c18-11-7-5-10(6-8-11)17-14-12-3-1-2-4-13(12)15-9-16-14/h1-9,18H,(H,15,16,17)

>  <source>  (657) 
ChEMBL28

>  <source_id>  (657) 
28

>  <optional_reference>  (657) 
10.1016/j.ejmech.2018.10.026

>  <optional_origin>  (657) 
None

>  <target>  (657) 
BCRP

$$$$

     RDKit          2D

 18 20  0  0  0  0  0  0  0  0999 V2000
    6.0667   -4.3792    0.0000 C   0  0  0  0  0  0  0  0  0  0  0  0
    5.3542   -4.7917    0.0000 C   0  0  0  0  0  0  0  0  0  0  0  0
    6.7792   -4.7917    0.0000 N   0  0  0  0  0  0  0  0  0  0  0  0
    6.0667   -3.5542    0.0000 N   0  0  0  0  0  0  0  0  0  0  0  0
    6.0667   -6.0292    0.0000 N   0  0  0  0  0  0  0  0  0  0  0  0
    6.7792   -5.6167    0.0000 C   0  0  0  0  0  0  0  0  0  0  0  0
    5.3542   -5.6167    0.0000 C   0  0  0  0  0  0  0  0  0  0  0  0
    6.7792   -3.1417    0.0000 C   0  0  0  0  0  0  0  0  0  0  0  0
    7.4917   -3.5542    0.0000 C   0  0  0  0  0  0  0  0  0  0  0  0
    8.2042   -3.1417    0.0000 C   0  0  0  0  0  0  0  0  0  0  0  0
    8.9292   -3.5625    0.0000 F   0  0  0  0  0  0  0  0  0  0  0  0
    4.6417   -4.3792    0.0000 C   0  0  0  0  0  0  0  0  0  0  0  0
    7.4917   -1.9000    0.0000 C   0  0  0  0  0  0  0  0  0  0  0  0
    6.7792   -2.3125    0.0000 C   0  0  0  0  0  0  0  0  0  0  0  0
    8.2042   -2.3125    0.0000 C   0  0  0  0  0  0  0  0  0  0  0  0
    4.6417   -6.0292    0.0000 C   0  0  0  0  0  0  0  0  0  0  0  0
    3.9250   -4.7917    0.0000 C   0  0  0  0  0  0  0  0  0  0  0  0
    3.9250   -5.6167    0.0000 C   0  0  0  0  0  0  0  0  0  0  0  0
  2  1  1  0
  3  1  2  0
  4  1  1  0
  5  6  2  0
  6  3  1  0
  7  2  2  0
  8  4  1  0
  9  8  2  0
 10  9  1  0
 11 10  1  0
 12  2  1  0
 13 14  2  0
 14  8  1  0
 15 13  1  0
 16  7  1  0
 17 12  2  0
 18 17  1  0
  7  5  1  0
 16 18  2  0
 10 15  2  0
M  END
>  <Classification>  (658) 
1

>  <pchembl>  (658) 
5.09

>  <InChI_steorem>  (658) 
InChI=1S/C14H10FN3/c15-10-4-3-5-11(8-10)18-14-12-6-1-2-7-13(12)16-9-17-14/h1-9H,(H,16,17,18)

>  <source>  (658) 
ChEMBL28

>  <source_id>  (658) 
28

>  <optional_reference>  (658) 
10.1016/j.ejmech.2018.10.026

>  <optional_origin>  (658) 
None

>  <target>  (658) 
BCRP

$$$$

     RDKit          2D

 19 20  0  0  0  0  0  0  0  0999 V2000
   19.5575   -2.9303    0.0000 C   0  0  0  0  0  0  0  0  0  0  0  0
   19.5564   -3.7498    0.0000 C   0  0  0  0  0  0  0  0  0  0  0  0
   20.2644   -4.1588    0.0000 C   0  0  0  0  0  0  0  0  0  0  0  0
   20.9741   -3.7494    0.0000 C   0  0  0  0  0  0  0  0  0  0  0  0
   20.9713   -2.9267    0.0000 C   0  0  0  0  0  0  0  0  0  0  0  0
   20.2626   -2.5214    0.0000 C   0  0  0  0  0  0  0  0  0  0  0  0
   21.6774   -2.5154    0.0000 C   0  0  0  0  0  0  0  0  0  0  0  0
   22.3867   -2.9214    0.0000 C   0  0  0  0  0  0  0  0  0  0  0  0
   21.6743   -1.6983    0.0000 O   0  0  0  0  0  0  0  0  0  0  0  0
   23.0928   -2.5101    0.0000 C   0  0  0  0  0  0  0  0  0  0  0  0
   23.8021   -2.9160    0.0000 C   0  0  0  0  0  0  0  0  0  0  0  0
   23.8020   -3.7321    0.0000 C   0  0  0  0  0  0  0  0  0  0  0  0
   24.5105   -4.1379    0.0000 C   0  0  0  0  0  0  0  0  0  0  0  0
   25.2176   -3.7266    0.0000 C   0  0  0  0  0  0  0  0  0  0  0  0
   25.2119   -2.9052    0.0000 C   0  0  0  0  0  0  0  0  0  0  0  0
   24.5029   -2.5031    0.0000 C   0  0  0  0  0  0  0  0  0  0  0  0
   18.8483   -4.1579    0.0000 O   0  0  0  0  0  0  0  0  0  0  0  0
   23.0950   -4.1419    0.0000 F   0  0  0  0  0  0  0  0  0  0  0  0
   24.4962   -1.6859    0.0000 F   0  0  0  0  0  0  0  0  0  0  0  0
  1  2  2  0
  2  3  1  0
  3  4  2  0
  4  5  1  0
  5  6  2  0
  6  1  1  0
  5  7  1  0
  7  8  1  0
  7  9  2  0
  8 10  2  3
 10 11  1  0
 11 12  2  0
 12 13  1  0
 13 14  2  0
 14 15  1  0
 15 16  2  0
 16 11  1  0
  2 17  1  0
 12 18  1  0
 16 19  1  0
M  END
>  <Classification>  (659) 
1

>  <pchembl>  (659) 
5.14

>  <InChI_steorem>  (659) 
InChI=1S/C15H10F2O2/c16-13-2-1-3-14(17)12(13)8-9-15(19)10-4-6-11(18)7-5-10/h1-9,18H

>  <source>  (659) 
ChEMBL28

>  <source_id>  (659) 
28

>  <optional_reference>  (659) 
10.1016/j.ejmech.2018.12.019

>  <optional_origin>  (659) 
None

>  <target>  (659) 
BCRP

$$$$

     RDKit          2D

 19 21  0  0  0  0  0  0  0  0999 V2000
   12.7517  -11.3581    0.0000 C   0  0  0  0  0  0  0  0  0  0  0  0
   12.7506  -12.1776    0.0000 C   0  0  0  0  0  0  0  0  0  0  0  0
   13.4586  -12.5866    0.0000 C   0  0  0  0  0  0  0  0  0  0  0  0
   13.4568  -10.9492    0.0000 C   0  0  0  0  0  0  0  0  0  0  0  0
   14.1655  -11.3545    0.0000 C   0  0  0  0  0  0  0  0  0  0  0  0
   14.1662  -12.1735    0.0000 C   0  0  0  0  0  0  0  0  0  0  0  0
   14.8747  -12.5806    0.0000 N   0  0  0  0  0  0  0  0  0  0  0  0
   15.5830  -12.1698    0.0000 C   0  0  0  0  0  0  0  0  0  0  0  0
   15.5783  -11.3476    0.0000 N   0  0  0  0  0  0  0  0  0  0  0  0
   14.8692  -10.9443    0.0000 C   0  0  0  0  0  0  0  0  0  0  0  0
   14.8648  -10.1271    0.0000 N   0  0  0  0  0  0  0  0  0  0  0  0
   15.5704   -9.7147    0.0000 C   0  0  0  0  0  0  0  0  0  0  0  0
   16.2757  -10.1230    0.0000 C   0  0  0  0  0  0  0  0  0  0  0  0
   16.9807   -9.7113    0.0000 C   0  0  0  0  0  0  0  0  0  0  0  0
   16.9768   -8.8932    0.0000 C   0  0  0  0  0  0  0  0  0  0  0  0
   16.2620   -8.4886    0.0000 C   0  0  0  0  0  0  0  0  0  0  0  0
   15.5598   -8.9026    0.0000 C   0  0  0  0  0  0  0  0  0  0  0  0
   17.6796   -8.4779    0.0000 C   0  0  0  0  0  0  0  0  0  0  0  0
   18.3846   -8.0646    0.0000 N   0  0  0  0  0  0  0  0  0  0  0  0
  1  2  2  0
  2  3  1  0
  3  6  2  0
  5  4  2  0
  4  1  1  0
  5  6  1  0
  6  7  1  0
  7  8  2  0
  8  9  1  0
  9 10  2  0
 10  5  1  0
 10 11  1  0
 11 12  1  0
 12 13  2  0
 13 14  1  0
 14 15  2  0
 15 16  1  0
 16 17  2  0
 17 12  1  0
 18 19  3  0
 15 18  1  0
M  END
>  <Classification>  (660) 
1

>  <pchembl>  (660) 
5.9

>  <InChI_steorem>  (660) 
InChI=1S/C15H10N4/c16-9-11-5-7-12(8-6-11)19-15-13-3-1-2-4-14(13)17-10-18-15/h1-8,10H,(H,17,18,19)

>  <source>  (660) 
ChEMBL28

>  <source_id>  (660) 
28

>  <optional_reference>  (660) 
10.1016/j.ejmech.2018.10.026

>  <optional_origin>  (660) 
None

>  <target>  (660) 
BCRP

$$$$

     RDKit          2D

 19 21  0  0  0  0  0  0  0  0999 V2000
   24.0067  -11.2425    0.0000 C   0  0  0  0  0  0  0  0  0  0  0  0
   24.0055  -12.0621    0.0000 C   0  0  0  0  0  0  0  0  0  0  0  0
   24.7136  -12.4710    0.0000 C   0  0  0  0  0  0  0  0  0  0  0  0
   24.7118  -10.8337    0.0000 C   0  0  0  0  0  0  0  0  0  0  0  0
   25.4204  -11.2389    0.0000 C   0  0  0  0  0  0  0  0  0  0  0  0
   25.4212  -12.0579    0.0000 C   0  0  0  0  0  0  0  0  0  0  0  0
   26.1297  -12.4650    0.0000 N   0  0  0  0  0  0  0  0  0  0  0  0
   26.8380  -12.0542    0.0000 C   0  0  0  0  0  0  0  0  0  0  0  0
   26.8332  -11.2321    0.0000 N   0  0  0  0  0  0  0  0  0  0  0  0
   26.1241  -10.8287    0.0000 C   0  0  0  0  0  0  0  0  0  0  0  0
   26.1198  -10.0115    0.0000 N   0  0  0  0  0  0  0  0  0  0  0  0
   26.8253   -9.5992    0.0000 C   0  0  0  0  0  0  0  0  0  0  0  0
   27.5306  -10.0074    0.0000 C   0  0  0  0  0  0  0  0  0  0  0  0
   28.2357   -9.5957    0.0000 C   0  0  0  0  0  0  0  0  0  0  0  0
   28.2318   -8.7777    0.0000 C   0  0  0  0  0  0  0  0  0  0  0  0
   27.5169   -8.3730    0.0000 C   0  0  0  0  0  0  0  0  0  0  0  0
   26.8148   -8.7870    0.0000 C   0  0  0  0  0  0  0  0  0  0  0  0
   27.5097   -7.5559    0.0000 S   0  0  0  0  0  0  0  0  0  0  0  0
   28.2138   -7.1410    0.0000 C   0  0  0  0  0  0  0  0  0  0  0  0
  1  2  2  0
  2  3  1  0
  3  6  2  0
  5  4  2  0
  4  1  1  0
  5  6  1  0
  6  7  1  0
  7  8  2  0
  8  9  1  0
  9 10  2  0
 10  5  1  0
 10 11  1  0
 11 12  1  0
 12 13  2  0
 13 14  1  0
 14 15  2  0
 15 16  1  0
 16 17  2  0
 17 12  1  0
 16 18  1  0
 18 19  1  0
M  END
>  <Classification>  (661) 
1

>  <pchembl>  (661) 
5.87

>  <InChI_steorem>  (661) 
InChI=1S/C15H13N3S/c1-19-12-6-4-5-11(9-12)18-15-13-7-2-3-8-14(13)16-10-17-15/h2-10H,1H3,(H,16,17,18)

>  <source>  (661) 
ChEMBL28

>  <source_id>  (661) 
28

>  <optional_reference>  (661) 
10.1016/j.ejmech.2018.10.026

>  <optional_origin>  (661) 
None

>  <target>  (661) 
BCRP

$$$$

     RDKit          2D

 19 21  0  0  0  0  0  0  0  0999 V2000
    2.8359   -2.8007    0.0000 O   0  0  0  0  0  0  0  0  0  0  0  0
    4.2648   -0.3257    0.0000 N   0  0  0  0  0  0  0  0  0  0  0  0
    3.5504    0.9118    0.0000 N   0  0  0  0  0  0  0  0  0  0  0  0
    4.2648    2.1493    0.0000 N   0  0  0  0  0  0  0  0  0  0  0  0
    4.9793    0.9118    0.0000 C   0  0  0  0  0  0  0  0  0  0  0  0
    4.2648    0.4993    0.0000 C   0  0  0  0  0  0  0  0  0  0  0  0
    4.9793    1.7368    0.0000 C   0  0  0  0  0  0  0  0  0  0  0  0
    3.5504   -0.7382    0.0000 C   0  0  0  0  0  0  0  0  0  0  0  0
    5.6938    0.4993    0.0000 C   0  0  0  0  0  0  0  0  0  0  0  0
    5.6938    2.1493    0.0000 C   0  0  0  0  0  0  0  0  0  0  0  0
    3.5504    1.7368    0.0000 C   0  0  0  0  0  0  0  0  0  0  0  0
    3.5504   -1.5632    0.0000 C   0  0  0  0  0  0  0  0  0  0  0  0
    2.8359   -1.9757    0.0000 C   0  0  0  0  0  0  0  0  0  0  0  0
    2.8359   -0.3257    0.0000 C   0  0  0  0  0  0  0  0  0  0  0  0
    6.4083    0.9118    0.0000 C   0  0  0  0  0  0  0  0  0  0  0  0
    6.4083    1.7368    0.0000 C   0  0  0  0  0  0  0  0  0  0  0  0
    2.1214   -1.5632    0.0000 C   0  0  0  0  0  0  0  0  0  0  0  0
    2.1214   -0.7382    0.0000 C   0  0  0  0  0  0  0  0  0  0  0  0
    3.5504   -3.2132    0.0000 C   0  0  0  0  0  0  0  0  0  0  0  0
  1 13  1  0
  1 19  1  0
  2  6  1  0
  2  8  1  0
  3  6  2  0
  3 11  1  0
  4  7  1  0
  4 11  2  0
  5  6  1  0
  5  7  2  0
  5  9  1  0
  7 10  1  0
  8 12  2  0
  8 14  1  0
  9 15  2  0
 10 16  2  0
 12 13  1  0
 13 17  2  0
 14 18  2  0
 15 16  1  0
 17 18  1  0
M  END
>  <Classification>  (662) 
1

>  <pchembl>  (662) 
6.19

>  <InChI_steorem>  (662) 
InChI=1S/C15H13N3O/c1-19-12-6-4-5-11(9-12)18-15-13-7-2-3-8-14(13)16-10-17-15/h2-10H,1H3,(H,16,17,18)

>  <source>  (662) 
ChEMBL28

>  <source_id>  (662) 
28

>  <optional_reference>  (662) 
10.1016/j.ejmech.2018.10.026

>  <optional_origin>  (662) 
None

>  <target>  (662) 
BCRP

$$$$

     RDKit          2D

 20 21  0  0  0  0  0  0  0  0999 V2000
   37.8576   -2.6166    0.0000 C   0  0  0  0  0  0  0  0  0  0  0  0
   37.8565   -3.4362    0.0000 C   0  0  0  0  0  0  0  0  0  0  0  0
   38.5646   -3.8451    0.0000 C   0  0  0  0  0  0  0  0  0  0  0  0
   39.2742   -3.4357    0.0000 C   0  0  0  0  0  0  0  0  0  0  0  0
   39.2714   -2.6130    0.0000 C   0  0  0  0  0  0  0  0  0  0  0  0
   38.5628   -2.2078    0.0000 C   0  0  0  0  0  0  0  0  0  0  0  0
   39.9775   -2.2018    0.0000 C   0  0  0  0  0  0  0  0  0  0  0  0
   40.6868   -2.6077    0.0000 C   0  0  0  0  0  0  0  0  0  0  0  0
   39.9745   -1.3846    0.0000 O   0  0  0  0  0  0  0  0  0  0  0  0
   41.3930   -2.1964    0.0000 C   0  0  0  0  0  0  0  0  0  0  0  0
   42.1022   -2.6024    0.0000 C   0  0  0  0  0  0  0  0  0  0  0  0
   42.1022   -3.4184    0.0000 C   0  0  0  0  0  0  0  0  0  0  0  0
   42.8106   -3.8243    0.0000 C   0  0  0  0  0  0  0  0  0  0  0  0
   43.5177   -3.4130    0.0000 C   0  0  0  0  0  0  0  0  0  0  0  0
   43.5120   -2.5916    0.0000 C   0  0  0  0  0  0  0  0  0  0  0  0
   42.8030   -2.1894    0.0000 C   0  0  0  0  0  0  0  0  0  0  0  0
   37.1485   -3.8442    0.0000 O   0  0  0  0  0  0  0  0  0  0  0  0
   44.2275   -3.8179    0.0000 O   0  0  0  0  0  0  0  0  0  0  0  0
   44.9331   -3.4057    0.0000 C   0  0  0  0  0  0  0  0  0  0  0  0
   45.6429   -3.8107    0.0000 C   0  0  0  0  0  0  0  0  0  0  0  0
  1  2  2  0
  2  3  1  0
  3  4  2  0
  4  5  1  0
  5  6  2  0
  6  1  1  0
  5  7  1  0
  7  8  1  0
  7  9  2  0
  8 10  2  3
 10 11  1  0
 11 12  2  0
 12 13  1  0
 13 14  2  0
 14 15  1  0
 15 16  2  0
 16 11  1  0
  2 17  1  0
 14 18  1  0
 18 19  1  0
 19 20  1  0
M  END
>  <Classification>  (663) 
1

>  <pchembl>  (663) 
5.19

>  <InChI_steorem>  (663) 
InChI=1S/C17H16O3/c1-2-20-16-10-3-13(4-11-16)5-12-17(19)14-6-8-15(18)9-7-14/h3-12,18H,2H2,1H3

>  <source>  (663) 
ChEMBL28

>  <source_id>  (663) 
28

>  <optional_reference>  (663) 
10.1016/j.ejmech.2018.12.019

>  <optional_origin>  (663) 
None

>  <target>  (663) 
BCRP

$$$$

     RDKit          2D

 21 22  0  0  0  0  0  0  0  0999 V2000
    1.2990   -0.7500    0.0000 C   0  0  0  0  0  0  0  0  0  0  0  0
    1.2990    0.7500    0.0000 C   0  0  0  0  0  0  0  0  0  0  0  0
    0.0000    1.5000    0.0000 C   0  0  0  0  0  0  0  0  0  0  0  0
   -1.2990    0.7500    0.0000 C   0  0  0  0  0  0  0  0  0  0  0  0
   -1.2990   -0.7500    0.0000 C   0  0  0  0  0  0  0  0  0  0  0  0
    0.0000   -1.5000    0.0000 C   0  0  0  0  0  0  0  0  0  0  0  0
    2.6003   -1.4977    0.0000 C   0  0  0  0  0  0  0  0  0  0  0  0
    3.8990   -0.7455    0.0000 C   0  0  0  0  0  0  0  0  0  0  0  0
    5.2003   -1.4932    0.0000 C   0  0  0  0  0  0  0  0  0  0  0  0
    6.4990   -0.7409    0.0000 C   0  0  0  0  0  0  0  0  0  0  0  0
    5.2024   -2.6932    0.0000 O   0  0  0  0  0  0  0  0  0  0  0  0
    7.8007   -1.4864    0.0000 C   0  0  0  0  0  0  0  0  0  0  0  0
    9.0971   -0.7319    0.0000 C   0  0  0  0  0  0  0  0  0  0  0  0
    9.0919    0.7681    0.0000 C   0  0  0  0  0  0  0  0  0  0  0  0
    7.7903    1.5136    0.0000 C   0  0  0  0  0  0  0  0  0  0  0  0
    6.4939    0.7591    0.0000 C   0  0  0  0  0  0  0  0  0  0  0  0
   10.1291    1.3717    0.0000 O   0  0  0  0  0  0  0  0  0  0  0  0
    0.0000   -3.0008    0.0000 C   0  0  0  0  0  0  0  0  0  0  0  0
   -1.0388   -3.6015    0.0000 F   0  0  0  0  0  0  0  0  0  0  0  0
    1.0394   -3.6005    0.0000 F   0  0  0  0  0  0  0  0  0  0  0  0
    0.0006   -4.2008    0.0000 F   0  0  0  0  0  0  0  0  0  0  0  0
  1  2  2  0
  2  3  1  0
  3  4  2  0
  4  5  1  0
  5  6  2  0
  6  1  1  0
  1  7  1  0
  7  8  2  3
  8  9  1  0
  9 10  1  0
  9 11  2  0
 10 12  2  0
 12 13  1  0
 13 14  2  0
 14 15  1  0
 15 16  2  0
 16 10  1  0
 14 17  1  0
 18 19  1  0
 18 20  1  0
 18 21  1  0
  6 18  1  0
M  END
>  <Classification>  (664) 
1

>  <pchembl>  (664) 
5.31

>  <InChI_steorem>  (664) 
InChI=1S/C16H11F3O2/c17-16(18,19)14-4-2-1-3-11(14)7-10-15(21)12-5-8-13(20)9-6-12/h1-10,20H

>  <source>  (664) 
ChEMBL28

>  <source_id>  (664) 
28

>  <optional_reference>  (664) 
10.1016/j.ejmech.2018.12.019

>  <optional_origin>  (664) 
None

>  <target>  (664) 
BCRP

$$$$

     RDKit          2D

 21 22  0  0  0  0  0  0  0  0999 V2000
    2.2149   -7.9985    0.0000 C   0  0  0  0  0  0  0  0  0  0  0  0
    2.2138   -8.8181    0.0000 C   0  0  0  0  0  0  0  0  0  0  0  0
    2.9218   -9.2270    0.0000 C   0  0  0  0  0  0  0  0  0  0  0  0
    3.6315   -8.8176    0.0000 C   0  0  0  0  0  0  0  0  0  0  0  0
    3.6286   -7.9949    0.0000 C   0  0  0  0  0  0  0  0  0  0  0  0
    2.9200   -7.5897    0.0000 C   0  0  0  0  0  0  0  0  0  0  0  0
    4.3348   -7.5837    0.0000 C   0  0  0  0  0  0  0  0  0  0  0  0
    5.0440   -7.9896    0.0000 C   0  0  0  0  0  0  0  0  0  0  0  0
    4.3317   -6.7665    0.0000 O   0  0  0  0  0  0  0  0  0  0  0  0
    5.7502   -7.5783    0.0000 C   0  0  0  0  0  0  0  0  0  0  0  0
    6.4594   -7.9843    0.0000 C   0  0  0  0  0  0  0  0  0  0  0  0
    6.4594   -8.8003    0.0000 C   0  0  0  0  0  0  0  0  0  0  0  0
    7.1678   -9.2062    0.0000 C   0  0  0  0  0  0  0  0  0  0  0  0
    7.8750   -8.7949    0.0000 C   0  0  0  0  0  0  0  0  0  0  0  0
    7.8693   -7.9735    0.0000 C   0  0  0  0  0  0  0  0  0  0  0  0
    7.1603   -7.5713    0.0000 C   0  0  0  0  0  0  0  0  0  0  0  0
    1.5057   -9.2261    0.0000 O   0  0  0  0  0  0  0  0  0  0  0  0
    8.5848   -9.1998    0.0000 O   0  0  0  0  0  0  0  0  0  0  0  0
    8.5889  -10.0170    0.0000 C   0  0  0  0  0  0  0  0  0  0  0  0
    9.2987  -10.4220    0.0000 C   0  0  0  0  0  0  0  0  0  0  0  0
    9.3029  -11.2392    0.0000 C   0  0  0  0  0  0  0  0  0  0  0  0
  1  2  2  0
  2  3  1  0
  3  4  2  0
  4  5  1  0
  5  6  2  0
  6  1  1  0
  5  7  1  0
  7  8  1  0
  7  9  2  0
  8 10  2  3
 10 11  1  0
 11 12  2  0
 12 13  1  0
 13 14  2  0
 14 15  1  0
 15 16  2  0
 16 11  1  0
  2 17  1  0
 14 18  1  0
 18 19  1  0
 19 20  1  0
 20 21  1  0
M  END
>  <Classification>  (665) 
1

>  <pchembl>  (665) 
5.32

>  <InChI_steorem>  (665) 
InChI=1S/C18H18O3/c1-2-13-21-17-10-3-14(4-11-17)5-12-18(20)15-6-8-16(19)9-7-15/h3-12,19H,2,13H2,1H3

>  <source>  (665) 
ChEMBL28

>  <source_id>  (665) 
28

>  <optional_reference>  (665) 
10.1016/j.ejmech.2018.12.019

>  <optional_origin>  (665) 
None

>  <target>  (665) 
BCRP

$$$$

     RDKit          2D

 21 23  0  0  0  0  0  0  0  0999 V2000
    2.0622  -10.9743    0.0000 C   0  0  0  0  0  0  0  0  0  0  0  0
    2.0611  -11.7938    0.0000 C   0  0  0  0  0  0  0  0  0  0  0  0
    2.7691  -12.2028    0.0000 C   0  0  0  0  0  0  0  0  0  0  0  0
    2.7673  -10.5654    0.0000 C   0  0  0  0  0  0  0  0  0  0  0  0
    3.4759  -10.9707    0.0000 C   0  0  0  0  0  0  0  0  0  0  0  0
    3.4767  -11.7897    0.0000 C   0  0  0  0  0  0  0  0  0  0  0  0
    4.1852  -12.1967    0.0000 N   0  0  0  0  0  0  0  0  0  0  0  0
    4.8935  -11.7859    0.0000 C   0  0  0  0  0  0  0  0  0  0  0  0
    4.8888  -10.9638    0.0000 N   0  0  0  0  0  0  0  0  0  0  0  0
    4.1796  -10.5604    0.0000 C   0  0  0  0  0  0  0  0  0  0  0  0
    4.1753   -9.7433    0.0000 N   0  0  0  0  0  0  0  0  0  0  0  0
    4.8808   -9.3309    0.0000 C   0  0  0  0  0  0  0  0  0  0  0  0
    5.5861   -9.7391    0.0000 C   0  0  0  0  0  0  0  0  0  0  0  0
    6.2912   -9.3275    0.0000 C   0  0  0  0  0  0  0  0  0  0  0  0
    6.2873   -8.5094    0.0000 C   0  0  0  0  0  0  0  0  0  0  0  0
    5.5724   -8.1048    0.0000 C   0  0  0  0  0  0  0  0  0  0  0  0
    4.8703   -8.5188    0.0000 C   0  0  0  0  0  0  0  0  0  0  0  0
    5.5652   -7.2838    0.0000 N   0  0  0  0  0  0  0  0  0  0  0  0
    4.8539   -6.8814    0.0000 O   0  0  0  0  0  0  0  0  0  0  0  0
    6.2693   -6.8689    0.0000 O   0  0  0  0  0  0  0  0  0  0  0  0
    6.9923   -8.0961    0.0000 O   0  0  0  0  0  0  0  0  0  0  0  0
  1  2  2  0
  2  3  1  0
  3  6  2  0
  5  4  2  0
  4  1  1  0
  5  6  1  0
  6  7  1  0
  7  8  2  0
  8  9  1  0
  9 10  2  0
 10  5  1  0
 10 11  1  0
 11 12  1  0
 12 13  2  0
 13 14  1  0
 14 15  2  0
 15 16  1  0
 16 17  2  0
 17 12  1  0
 18 19  2  0
 18 20  1  0
 16 18  1  0
 15 21  1  0
M  CHG  2  18   1  20  -1
M  END
>  <Classification>  (666) 
1

>  <pchembl>  (666) 
5.54

>  <InChI_steorem>  (666) 
InChI=1S/C14H10N4O3/c19-13-6-5-9(7-12(13)18(20)21)17-14-10-3-1-2-4-11(10)15-8-16-14/h1-8,19H,(H,15,16,17)

>  <source>  (666) 
ChEMBL28

>  <source_id>  (666) 
28

>  <optional_reference>  (666) 
10.1016/j.ejmech.2018.10.026

>  <optional_origin>  (666) 
None

>  <target>  (666) 
BCRP

$$$$

     RDKit          2D

 21 23  0  0  0  0  0  0  0  0999 V2000
   35.5423  -11.0197    0.0000 C   0  0  0  0  0  0  0  0  0  0  0  0
   35.5411  -11.8392    0.0000 C   0  0  0  0  0  0  0  0  0  0  0  0
   36.2492  -12.2482    0.0000 C   0  0  0  0  0  0  0  0  0  0  0  0
   36.2474  -10.6108    0.0000 C   0  0  0  0  0  0  0  0  0  0  0  0
   36.9560  -11.0161    0.0000 C   0  0  0  0  0  0  0  0  0  0  0  0
   36.9568  -11.8351    0.0000 C   0  0  0  0  0  0  0  0  0  0  0  0
   37.6653  -12.2421    0.0000 N   0  0  0  0  0  0  0  0  0  0  0  0
   38.3736  -11.8313    0.0000 C   0  0  0  0  0  0  0  0  0  0  0  0
   38.3688  -11.0092    0.0000 N   0  0  0  0  0  0  0  0  0  0  0  0
   37.6597  -10.6058    0.0000 C   0  0  0  0  0  0  0  0  0  0  0  0
   37.6554   -9.7886    0.0000 N   0  0  0  0  0  0  0  0  0  0  0  0
   38.3609   -9.3763    0.0000 C   0  0  0  0  0  0  0  0  0  0  0  0
   39.0662   -9.7845    0.0000 C   0  0  0  0  0  0  0  0  0  0  0  0
   39.7713   -9.3729    0.0000 C   0  0  0  0  0  0  0  0  0  0  0  0
   39.7674   -8.5548    0.0000 C   0  0  0  0  0  0  0  0  0  0  0  0
   39.0525   -8.1502    0.0000 C   0  0  0  0  0  0  0  0  0  0  0  0
   38.3504   -8.5642    0.0000 C   0  0  0  0  0  0  0  0  0  0  0  0
   39.0453   -7.3330    0.0000 N   0  0  0  0  0  0  0  0  0  0  0  0
   39.7494   -6.9182    0.0000 C   0  0  0  0  0  0  0  0  0  0  0  0
   39.7422   -6.1010    0.0000 O   0  0  0  0  0  0  0  0  0  0  0  0
   40.4607   -7.3205    0.0000 C   0  0  0  0  0  0  0  0  0  0  0  0
  1  2  2  0
  2  3  1  0
  3  6  2  0
  5  4  2  0
  4  1  1  0
  5  6  1  0
  6  7  1  0
  7  8  2  0
  8  9  1  0
  9 10  2  0
 10  5  1  0
 10 11  1  0
 11 12  1  0
 12 13  2  0
 13 14  1  0
 14 15  2  0
 15 16  1  0
 16 17  2  0
 17 12  1  0
 16 18  1  0
 18 19  1  0
 19 20  2  0
 19 21  1  0
M  END
>  <Classification>  (667) 
0

>  <pchembl>  (667) 
4.54

>  <InChI_steorem>  (667) 
InChI=1S/C16H14N4O/c1-11(21)19-12-5-4-6-13(9-12)20-16-14-7-2-3-8-15(14)17-10-18-16/h2-10H,1H3,(H,19,21)(H,17,18,20)

>  <source>  (667) 
ChEMBL28

>  <source_id>  (667) 
28

>  <optional_reference>  (667) 
10.1016/j.ejmech.2018.10.026

>  <optional_origin>  (667) 
None

>  <target>  (667) 
BCRP

$$$$

     RDKit          2D

 22 23  0  0  0  0  0  0  0  0999 V2000
   10.6510   -7.3794    0.0000 C   0  0  0  0  0  0  0  0  0  0  0  0
   10.6498   -8.1990    0.0000 C   0  0  0  0  0  0  0  0  0  0  0  0
   11.3579   -8.6079    0.0000 C   0  0  0  0  0  0  0  0  0  0  0  0
   12.0675   -8.1985    0.0000 C   0  0  0  0  0  0  0  0  0  0  0  0
   12.0647   -7.3758    0.0000 C   0  0  0  0  0  0  0  0  0  0  0  0
   11.3561   -6.9706    0.0000 C   0  0  0  0  0  0  0  0  0  0  0  0
   12.7709   -6.9646    0.0000 C   0  0  0  0  0  0  0  0  0  0  0  0
   13.4801   -7.3705    0.0000 C   0  0  0  0  0  0  0  0  0  0  0  0
   12.7678   -6.1474    0.0000 O   0  0  0  0  0  0  0  0  0  0  0  0
   14.1863   -6.9593    0.0000 C   0  0  0  0  0  0  0  0  0  0  0  0
   14.8955   -7.3652    0.0000 C   0  0  0  0  0  0  0  0  0  0  0  0
   14.8955   -8.1812    0.0000 C   0  0  0  0  0  0  0  0  0  0  0  0
   15.6039   -8.5871    0.0000 C   0  0  0  0  0  0  0  0  0  0  0  0
   16.3110   -8.1758    0.0000 C   0  0  0  0  0  0  0  0  0  0  0  0
   16.3053   -7.3544    0.0000 C   0  0  0  0  0  0  0  0  0  0  0  0
   15.5963   -6.9522    0.0000 C   0  0  0  0  0  0  0  0  0  0  0  0
    9.9418   -8.6070    0.0000 O   0  0  0  0  0  0  0  0  0  0  0  0
   17.0208   -8.5808    0.0000 O   0  0  0  0  0  0  0  0  0  0  0  0
   17.0250   -9.3979    0.0000 C   0  0  0  0  0  0  0  0  0  0  0  0
   17.7348   -9.8029    0.0000 C   0  0  0  0  0  0  0  0  0  0  0  0
   17.7389  -10.6201    0.0000 C   0  0  0  0  0  0  0  0  0  0  0  0
   18.4487  -11.0251    0.0000 C   0  0  0  0  0  0  0  0  0  0  0  0
  1  2  2  0
  2  3  1  0
  3  4  2  0
  4  5  1  0
  5  6  2  0
  6  1  1  0
  5  7  1  0
  7  8  1  0
  7  9  2  0
  8 10  2  3
 10 11  1  0
 11 12  2  0
 12 13  1  0
 13 14  2  0
 14 15  1  0
 15 16  2  0
 16 11  1  0
  2 17  1  0
 14 18  1  0
 18 19  1  0
 19 20  1  0
 20 21  1  0
 21 22  1  0
M  END
>  <Classification>  (668) 
1

>  <pchembl>  (668) 
5.14

>  <InChI_steorem>  (668) 
InChI=1S/C19H20O3/c1-2-3-14-22-18-11-4-15(5-12-18)6-13-19(21)16-7-9-17(20)10-8-16/h4-13,20H,2-3,14H2,1H3

>  <source>  (668) 
ChEMBL28

>  <source_id>  (668) 
28

>  <optional_reference>  (668) 
10.1016/j.ejmech.2018.12.019

>  <optional_origin>  (668) 
None

>  <target>  (668) 
BCRP

$$$$

     RDKit          2D

 23 24  0  0  0  0  0  0  0  0999 V2000
    1.8723   -3.0747    0.0000 C   0  0  0  0  0  0  0  0  0  0  0  0
    1.8712   -3.8943    0.0000 C   0  0  0  0  0  0  0  0  0  0  0  0
    2.5792   -4.3032    0.0000 C   0  0  0  0  0  0  0  0  0  0  0  0
    3.2889   -3.8938    0.0000 C   0  0  0  0  0  0  0  0  0  0  0  0
    3.2861   -3.0711    0.0000 C   0  0  0  0  0  0  0  0  0  0  0  0
    2.5775   -2.6659    0.0000 C   0  0  0  0  0  0  0  0  0  0  0  0
    3.9922   -2.6599    0.0000 C   0  0  0  0  0  0  0  0  0  0  0  0
    4.7015   -3.0658    0.0000 C   0  0  0  0  0  0  0  0  0  0  0  0
    3.9892   -1.8427    0.0000 O   0  0  0  0  0  0  0  0  0  0  0  0
    5.4076   -2.6546    0.0000 C   0  0  0  0  0  0  0  0  0  0  0  0
    6.1169   -3.0605    0.0000 C   0  0  0  0  0  0  0  0  0  0  0  0
    6.1169   -3.8765    0.0000 C   0  0  0  0  0  0  0  0  0  0  0  0
    6.8253   -4.2824    0.0000 C   0  0  0  0  0  0  0  0  0  0  0  0
    7.5324   -3.8711    0.0000 C   0  0  0  0  0  0  0  0  0  0  0  0
    7.5267   -3.0497    0.0000 C   0  0  0  0  0  0  0  0  0  0  0  0
    6.8177   -2.6475    0.0000 C   0  0  0  0  0  0  0  0  0  0  0  0
    1.1645   -2.6663    0.0000 O   0  0  0  0  0  0  0  0  0  0  0  0
    8.2314   -2.6359    0.0000 O   0  0  0  0  0  0  0  0  0  0  0  0
    8.2422   -4.2761    0.0000 O   0  0  0  0  0  0  0  0  0  0  0  0
    6.8280   -5.0996    0.0000 O   0  0  0  0  0  0  0  0  0  0  0  0
    6.1216   -5.5105    0.0000 C   0  0  0  0  0  0  0  0  0  0  0  0
    8.2464   -5.0932    0.0000 C   0  0  0  0  0  0  0  0  0  0  0  0
    8.9421   -3.0393    0.0000 C   0  0  0  0  0  0  0  0  0  0  0  0
  1  2  2  0
  2  3  1  0
  3  4  2  0
  4  5  1  0
  5  6  2  0
  6  1  1  0
  5  7  1  0
  7  8  1  0
  7  9  2  0
  8 10  2  3
 10 11  1  0
 11 12  2  0
 12 13  1  0
 13 14  2  0
 14 15  1  0
 15 16  2  0
 16 11  1  0
  1 17  1  0
 15 18  1  0
 14 19  1  0
 13 20  1  0
 20 21  1  0
 19 22  1  0
 18 23  1  0
M  END
>  <Classification>  (669) 
1

>  <pchembl>  (669) 
5.37

>  <InChI_steorem>  (669) 
InChI=1S/C18H18O5/c1-21-16-9-12(10-17(22-2)18(16)23-3)7-8-15(20)13-5-4-6-14(19)11-13/h4-11,19H,1-3H3

>  <source>  (669) 
ChEMBL28

>  <source_id>  (669) 
28

>  <optional_reference>  (669) 
10.1016/j.ejmech.2018.12.019

>  <optional_origin>  (669) 
None

>  <target>  (669) 
BCRP

$$$$

     RDKit          2D

 23 26  0  0  0  0  0  0  0  0999 V2000
    1.7073  -25.8116    0.0000 C   0  0  0  0  0  0  0  0  0  0  0  0
    1.7061  -26.6312    0.0000 C   0  0  0  0  0  0  0  0  0  0  0  0
    2.4142  -27.0402    0.0000 C   0  0  0  0  0  0  0  0  0  0  0  0
    2.4124  -25.4028    0.0000 C   0  0  0  0  0  0  0  0  0  0  0  0
    3.1210  -25.8081    0.0000 C   0  0  0  0  0  0  0  0  0  0  0  0
    3.1217  -26.6271    0.0000 C   0  0  0  0  0  0  0  0  0  0  0  0
    3.8303  -27.0341    0.0000 N   0  0  0  0  0  0  0  0  0  0  0  0
    4.5385  -26.6233    0.0000 C   0  0  0  0  0  0  0  0  0  0  0  0
    4.5338  -25.8012    0.0000 N   0  0  0  0  0  0  0  0  0  0  0  0
    3.8247  -25.3978    0.0000 C   0  0  0  0  0  0  0  0  0  0  0  0
    5.2520  -27.0263    0.0000 C   0  0  0  0  0  0  0  0  0  0  0  0
    3.8204  -24.5806    0.0000 S   0  0  0  0  0  0  0  0  0  0  0  0
    4.5259  -24.1683    0.0000 C   0  0  0  0  0  0  0  0  0  0  0  0
    5.2312  -24.5765    0.0000 C   0  0  0  0  0  0  0  0  0  0  0  0
    5.9362  -24.1649    0.0000 C   0  0  0  0  0  0  0  0  0  0  0  0
    5.9323  -23.3468    0.0000 C   0  0  0  0  0  0  0  0  0  0  0  0
    5.2175  -22.9422    0.0000 C   0  0  0  0  0  0  0  0  0  0  0  0
    4.5154  -23.3561    0.0000 C   0  0  0  0  0  0  0  0  0  0  0  0
    5.2548  -27.8456    0.0000 C   0  0  0  0  0  0  0  0  0  0  0  0
    5.9674  -28.2485    0.0000 C   0  0  0  0  0  0  0  0  0  0  0  0
    6.6741  -27.8321    0.0000 C   0  0  0  0  0  0  0  0  0  0  0  0
    6.6637  -27.0085    0.0000 C   0  0  0  0  0  0  0  0  0  0  0  0
    5.9506  -26.6093    0.0000 C   0  0  0  0  0  0  0  0  0  0  0  0
  1  2  2  0
  2  3  1  0
  3  6  2  0
  5  4  2  0
  4  1  1  0
  5  6  1  0
  6  7  1  0
  7  8  2  0
  8  9  1  0
  9 10  2  0
 10  5  1  0
  8 11  1  0
 10 12  1  0
 12 13  1  0
 13 14  2  0
 14 15  1  0
 15 16  2  0
 16 17  1  0
 17 18  2  0
 18 13  1  0
 11 19  2  0
 19 20  1  0
 20 21  2  0
 21 22  1  0
 22 23  2  0
 23 11  1  0
M  END
>  <Classification>  (670) 
1

>  <pchembl>  (670) 
5.0

>  <InChI_steorem>  (670) 
InChI=1S/C20H14N2S/c1-3-9-15(10-4-1)19-21-18-14-8-7-13-17(18)20(22-19)23-16-11-5-2-6-12-16/h1-14H

>  <source>  (670) 
ChEMBL28

>  <source_id>  (670) 
28

>  <optional_reference>  (670) 
10.1016/j.ejmech.2018.10.026

>  <optional_origin>  (670) 
None

>  <target>  (670) 
BCRP

$$$$

     RDKit          2D

 23 26  0  0  0  0  0  0  0  0999 V2000
    1.8435  -19.3897    0.0000 C   0  0  0  0  0  0  0  0  0  0  0  0
    1.8423  -20.2092    0.0000 C   0  0  0  0  0  0  0  0  0  0  0  0
    2.5504  -20.6182    0.0000 C   0  0  0  0  0  0  0  0  0  0  0  0
    2.5486  -18.9808    0.0000 C   0  0  0  0  0  0  0  0  0  0  0  0
    3.2572  -19.3861    0.0000 C   0  0  0  0  0  0  0  0  0  0  0  0
    3.2579  -20.2051    0.0000 C   0  0  0  0  0  0  0  0  0  0  0  0
    3.9665  -20.6122    0.0000 N   0  0  0  0  0  0  0  0  0  0  0  0
    4.6747  -20.2013    0.0000 C   0  0  0  0  0  0  0  0  0  0  0  0
    4.6700  -19.3792    0.0000 N   0  0  0  0  0  0  0  0  0  0  0  0
    3.9609  -18.9758    0.0000 C   0  0  0  0  0  0  0  0  0  0  0  0
    5.3882  -20.6043    0.0000 C   0  0  0  0  0  0  0  0  0  0  0  0
    3.9566  -18.1587    0.0000 O   0  0  0  0  0  0  0  0  0  0  0  0
    4.6621  -17.7463    0.0000 C   0  0  0  0  0  0  0  0  0  0  0  0
    5.3674  -18.1545    0.0000 C   0  0  0  0  0  0  0  0  0  0  0  0
    6.0724  -17.7429    0.0000 C   0  0  0  0  0  0  0  0  0  0  0  0
    6.0685  -16.9248    0.0000 C   0  0  0  0  0  0  0  0  0  0  0  0
    5.3537  -16.5202    0.0000 C   0  0  0  0  0  0  0  0  0  0  0  0
    4.6516  -16.9342    0.0000 C   0  0  0  0  0  0  0  0  0  0  0  0
    5.3910  -21.4236    0.0000 C   0  0  0  0  0  0  0  0  0  0  0  0
    6.1036  -21.8265    0.0000 C   0  0  0  0  0  0  0  0  0  0  0  0
    6.8103  -21.4101    0.0000 C   0  0  0  0  0  0  0  0  0  0  0  0
    6.7999  -20.5865    0.0000 C   0  0  0  0  0  0  0  0  0  0  0  0
    6.0868  -20.1873    0.0000 C   0  0  0  0  0  0  0  0  0  0  0  0
  1  2  2  0
  2  3  1  0
  3  6  2  0
  5  4  2  0
  4  1  1  0
  5  6  1  0
  6  7  1  0
  7  8  2  0
  8  9  1  0
  9 10  2  0
 10  5  1  0
  8 11  1  0
 10 12  1  0
 12 13  1  0
 13 14  2  0
 14 15  1  0
 15 16  2  0
 16 17  1  0
 17 18  2  0
 18 13  1  0
 11 19  2  0
 19 20  1  0
 20 21  2  0
 21 22  1  0
 22 23  2  0
 23 11  1  0
M  END
>  <Classification>  (671) 
0

>  <pchembl>  (671) 
4.84

>  <InChI_steorem>  (671) 
InChI=1S/C20H14N2O/c1-3-9-15(10-4-1)19-21-18-14-8-7-13-17(18)20(22-19)23-16-11-5-2-6-12-16/h1-14H

>  <source>  (671) 
ChEMBL28

>  <source_id>  (671) 
28

>  <optional_reference>  (671) 
10.1016/j.ejmech.2018.10.026

>  <optional_origin>  (671) 
None

>  <target>  (671) 
BCRP

$$$$

     RDKit          2D

 23 26  0  0  0  0  0  0  0  0999 V2000
   35.3731   -3.7434    0.0000 C   0  0  0  0  0  0  0  0  0  0  0  0
   35.3719   -4.5629    0.0000 C   0  0  0  0  0  0  0  0  0  0  0  0
   36.0800   -4.9719    0.0000 C   0  0  0  0  0  0  0  0  0  0  0  0
   36.0782   -3.3345    0.0000 C   0  0  0  0  0  0  0  0  0  0  0  0
   36.7868   -3.7398    0.0000 C   0  0  0  0  0  0  0  0  0  0  0  0
   36.7875   -4.5588    0.0000 C   0  0  0  0  0  0  0  0  0  0  0  0
   37.4961   -4.9658    0.0000 N   0  0  0  0  0  0  0  0  0  0  0  0
   38.2043   -4.5550    0.0000 C   0  0  0  0  0  0  0  0  0  0  0  0
   38.1996   -3.7329    0.0000 N   0  0  0  0  0  0  0  0  0  0  0  0
   37.4905   -3.3295    0.0000 C   0  0  0  0  0  0  0  0  0  0  0  0
   38.9178   -4.9580    0.0000 C   0  0  0  0  0  0  0  0  0  0  0  0
   39.0064   -5.7704    0.0000 C   0  0  0  0  0  0  0  0  0  0  0  0
   39.8064   -5.9372    0.0000 C   0  0  0  0  0  0  0  0  0  0  0  0
   40.2123   -5.2278    0.0000 C   0  0  0  0  0  0  0  0  0  0  0  0
   39.6630   -4.6228    0.0000 S   0  0  0  0  0  0  0  0  0  0  0  0
   37.4862   -2.5123    0.0000 N   0  0  0  0  0  0  0  0  0  0  0  0
   38.1917   -2.1000    0.0000 C   0  0  0  0  0  0  0  0  0  0  0  0
   38.8970   -2.5082    0.0000 C   0  0  0  0  0  0  0  0  0  0  0  0
   39.6020   -2.0966    0.0000 C   0  0  0  0  0  0  0  0  0  0  0  0
   39.5981   -1.2785    0.0000 C   0  0  0  0  0  0  0  0  0  0  0  0
   38.8833   -0.8739    0.0000 C   0  0  0  0  0  0  0  0  0  0  0  0
   38.1812   -1.2879    0.0000 C   0  0  0  0  0  0  0  0  0  0  0  0
   40.3117   -2.5017    0.0000 F   0  0  0  0  0  0  0  0  0  0  0  0
  1  2  2  0
  2  3  1  0
  3  6  2  0
  5  4  2  0
  4  1  1  0
  5  6  1  0
  6  7  1  0
  7  8  2  0
  8  9  1  0
  9 10  2  0
 10  5  1  0
 11 12  2  0
 12 13  1  0
 13 14  2  0
 14 15  1  0
 15 11  1  0
  8 11  1  0
 10 16  1  0
 16 17  1  0
 17 18  2  0
 18 19  1  0
 19 20  2  0
 20 21  1  0
 21 22  2  0
 22 17  1  0
 19 23  1  0
M  END
>  <Classification>  (672) 
1

>  <pchembl>  (672) 
6.02

>  <InChI_steorem>  (672) 
InChI=1S/C18H12FN3S/c19-12-5-3-6-13(11-12)20-17-14-7-1-2-8-15(14)21-18(22-17)16-9-4-10-23-16/h1-11H,(H,20,21,22)

>  <source>  (672) 
ChEMBL28

>  <source_id>  (672) 
28

>  <optional_reference>  (672) 
10.1016/j.ejmech.2018.10.026

>  <optional_origin>  (672) 
None

>  <target>  (672) 
BCRP

$$$$

     RDKit          2D

 24 27  0  0  0  0  0  0  0  0999 V2000
    0.1931    0.5119    0.0000 N   0  0  0  0  0  0  0  0  0  0  0  0
    0.9076    1.7494    0.0000 N   0  0  0  0  0  0  0  0  0  0  0  0
    0.9076   -0.7256    0.0000 N   0  0  0  0  0  0  0  0  0  0  0  0
    1.6221    0.5119    0.0000 C   0  0  0  0  0  0  0  0  0  0  0  0
    0.9076    0.0994    0.0000 C   0  0  0  0  0  0  0  0  0  0  0  0
    1.6221    1.3369    0.0000 C   0  0  0  0  0  0  0  0  0  0  0  0
    0.1931    1.3369    0.0000 C   0  0  0  0  0  0  0  0  0  0  0  0
   -0.5214    1.7494    0.0000 C   0  0  0  0  0  0  0  0  0  0  0  0
    2.3365    0.0994    0.0000 C   0  0  0  0  0  0  0  0  0  0  0  0
    2.3365    1.7494    0.0000 C   0  0  0  0  0  0  0  0  0  0  0  0
    1.6221   -1.1381    0.0000 C   0  0  0  0  0  0  0  0  0  0  0  0
    3.0510    0.5119    0.0000 C   0  0  0  0  0  0  0  0  0  0  0  0
    3.0510    1.3369    0.0000 C   0  0  0  0  0  0  0  0  0  0  0  0
   -1.2358    1.3369    0.0000 C   0  0  0  0  0  0  0  0  0  0  0  0
   -0.5214    2.5744    0.0000 C   0  0  0  0  0  0  0  0  0  0  0  0
    2.3365   -0.7256    0.0000 C   0  0  0  0  0  0  0  0  0  0  0  0
    1.6221   -1.9631    0.0000 C   0  0  0  0  0  0  0  0  0  0  0  0
    3.0510   -1.1381    0.0000 C   0  0  0  0  0  0  0  0  0  0  0  0
   -1.9503    1.7494    0.0000 C   0  0  0  0  0  0  0  0  0  0  0  0
   -1.2358    2.9869    0.0000 C   0  0  0  0  0  0  0  0  0  0  0  0
    2.3365   -2.3756    0.0000 C   0  0  0  0  0  0  0  0  0  0  0  0
    3.0510   -1.9631    0.0000 C   0  0  0  0  0  0  0  0  0  0  0  0
   -1.9503    2.5744    0.0000 C   0  0  0  0  0  0  0  0  0  0  0  0
    3.7655   -0.7256    0.0000 C   0  0  0  0  0  0  0  0  0  0  0  0
  1  5  2  0
  1  7  1  0
  2  6  1  0
  2  7  2  0
  3  5  1  0
  3 11  1  0
  4  5  1  0
  4  6  2  0
  4  9  1  0
  6 10  1  0
  7  8  1  0
  8 14  2  0
  8 15  1  0
  9 12  2  0
 10 13  2  0
 11 16  2  0
 11 17  1  0
 12 13  1  0
 14 19  1  0
 15 20  2  0
 16 18  1  0
 17 21  2  0
 18 22  2  0
 18 24  1  0
 19 23  2  0
 20 23  1  0
 21 22  1  0
M  END
>  <Classification>  (673) 
1

>  <pchembl>  (673) 
5.94

>  <InChI_steorem>  (673) 
InChI=1S/C21H17N3/c1-15-8-7-11-17(14-15)22-21-18-12-5-6-13-19(18)23-20(24-21)16-9-3-2-4-10-16/h2-14H,1H3,(H,22,23,24)

>  <source>  (673) 
ChEMBL28

>  <source_id>  (673) 
28

>  <optional_reference>  (673) 
10.1021/acs.jmedchem.6b00330

>  <optional_origin>  (673) 
None

>  <target>  (673) 
BCRP

$$$$

     RDKit          2D

 24 27  0  0  0  0  0  0  0  0999 V2000
   -0.5500   -2.1292    0.0000 C   0  0  0  0  0  0  0  0  0  0  0  0
   -0.0333   -2.4292    0.0000 N   0  0  0  0  0  0  0  0  0  0  0  0
   -0.0333   -3.0375    0.0000 C   0  0  0  0  0  0  0  0  0  0  0  0
   -0.5500   -3.3375    0.0000 N   0  0  0  0  0  0  0  0  0  0  0  0
   -1.0708   -2.4375    0.0000 C   0  0  0  0  0  0  0  0  0  0  0  0
   -1.0708   -3.0375    0.0000 C   0  0  0  0  0  0  0  0  0  0  0  0
   -0.5583   -1.5292    0.0000 N   0  0  0  0  0  0  0  0  0  0  0  0
    0.4917   -3.3375    0.0000 C   0  0  0  0  0  0  0  0  0  0  0  0
   -0.0333   -1.2292    0.0000 C   0  0  0  0  0  0  0  0  0  0  0  0
    1.0000   -0.6292    0.0000 C   0  0  0  0  0  0  0  0  0  0  0  0
    1.5167   -0.3250    0.0000 Cl  0  0  0  0  0  0  0  0  0  0  0  0
   -0.0458   -0.6375    0.0000 C   0  0  0  0  0  0  0  0  0  0  0  0
    0.4792   -1.5292    0.0000 C   0  0  0  0  0  0  0  0  0  0  0  0
    1.0042   -1.2292    0.0000 C   0  0  0  0  0  0  0  0  0  0  0  0
    0.4750   -0.3292    0.0000 C   0  0  0  0  0  0  0  0  0  0  0  0
   -1.5833   -2.1375    0.0000 C   0  0  0  0  0  0  0  0  0  0  0  0
   -1.5833   -3.3375    0.0000 C   0  0  0  0  0  0  0  0  0  0  0  0
    0.4917   -3.9375    0.0000 C   0  0  0  0  0  0  0  0  0  0  0  0
    1.0042   -3.0292    0.0000 C   0  0  0  0  0  0  0  0  0  0  0  0
   -2.1083   -2.4292    0.0000 C   0  0  0  0  0  0  0  0  0  0  0  0
   -2.1083   -3.0375    0.0000 C   0  0  0  0  0  0  0  0  0  0  0  0
    1.5292   -3.3292    0.0000 C   0  0  0  0  0  0  0  0  0  0  0  0
    1.0125   -4.2292    0.0000 C   0  0  0  0  0  0  0  0  0  0  0  0
    1.5292   -3.9292    0.0000 C   0  0  0  0  0  0  0  0  0  0  0  0
  2  1  2  0
  3  2  1  0
  4  6  1  0
  5  1  1  0
  6  5  2  0
  7  1  1  0
  8  3  1  0
  9  7  1  0
 10 14  2  0
 11 10  1  0
 12  9  1  0
 13  9  2  0
 14 13  1  0
 15 12  2  0
 16  5  1  0
 17  6  1  0
 18  8  2  0
 19  8  1  0
 20 16  2  0
 21 20  1  0
 22 19  2  0
 23 18  1  0
 24 22  1  0
  4  3  2  0
 15 10  1  0
 21 17  2  0
 23 24  2  0
M  END
>  <Classification>  (674) 
1

>  <pchembl>  (674) 
6.08

>  <InChI_steorem>  (674) 
InChI=1S/C20H14ClN3/c21-15-10-12-16(13-11-15)22-20-17-8-4-5-9-18(17)23-19(24-20)14-6-2-1-3-7-14/h1-13H,(H,22,23,24)

>  <source>  (674) 
ChEMBL28

>  <source_id>  (674) 
28

>  <optional_reference>  (674) 
10.1021/acs.jmedchem.6b00330

>  <optional_origin>  (674) 
None

>  <target>  (674) 
BCRP

$$$$

     RDKit          2D

 24 27  0  0  0  0  0  0  0  0999 V2000
   10.0938   -3.4999    0.0000 C   0  0  0  0  0  0  0  0  0  0  0  0
   10.0926   -4.3194    0.0000 C   0  0  0  0  0  0  0  0  0  0  0  0
   10.8007   -4.7284    0.0000 C   0  0  0  0  0  0  0  0  0  0  0  0
   10.7989   -3.0910    0.0000 C   0  0  0  0  0  0  0  0  0  0  0  0
   11.5075   -3.4963    0.0000 C   0  0  0  0  0  0  0  0  0  0  0  0
   11.5083   -4.3153    0.0000 C   0  0  0  0  0  0  0  0  0  0  0  0
   12.2168   -4.7223    0.0000 N   0  0  0  0  0  0  0  0  0  0  0  0
   12.9251   -4.3115    0.0000 C   0  0  0  0  0  0  0  0  0  0  0  0
   12.9203   -3.4894    0.0000 N   0  0  0  0  0  0  0  0  0  0  0  0
   12.2112   -3.0860    0.0000 C   0  0  0  0  0  0  0  0  0  0  0  0
   12.2069   -2.2688    0.0000 N   0  0  0  0  0  0  0  0  0  0  0  0
   12.9124   -1.8565    0.0000 C   0  0  0  0  0  0  0  0  0  0  0  0
   13.6177   -2.2647    0.0000 C   0  0  0  0  0  0  0  0  0  0  0  0
   14.3228   -1.8531    0.0000 C   0  0  0  0  0  0  0  0  0  0  0  0
   14.3189   -1.0350    0.0000 C   0  0  0  0  0  0  0  0  0  0  0  0
   13.6040   -0.6304    0.0000 C   0  0  0  0  0  0  0  0  0  0  0  0
   12.9019   -1.0443    0.0000 C   0  0  0  0  0  0  0  0  0  0  0  0
   13.6308   -4.7133    0.0000 C   0  0  0  0  0  0  0  0  0  0  0  0
   13.6327   -5.5316    0.0000 C   0  0  0  0  0  0  0  0  0  0  0  0
   14.3411   -5.9373    0.0000 C   0  0  0  0  0  0  0  0  0  0  0  0
   15.0482   -5.5259    0.0000 C   0  0  0  0  0  0  0  0  0  0  0  0
   15.0424   -4.7045    0.0000 C   0  0  0  0  0  0  0  0  0  0  0  0
   14.3334   -4.3025    0.0000 C   0  0  0  0  0  0  0  0  0  0  0  0
   15.0239   -0.6217    0.0000 I   0  0  0  0  0  0  0  0  0  0  0  0
  1  2  2  0
  2  3  1  0
  3  6  2  0
  5  4  2  0
  4  1  1  0
  5  6  1  0
  6  7  1  0
  7  8  2  0
  8  9  1  0
  9 10  2  0
 10  5  1  0
 10 11  1  0
 11 12  1  0
 12 13  2  0
 13 14  1  0
 14 15  2  0
 15 16  1  0
 16 17  2  0
 17 12  1  0
 18 19  2  0
 19 20  1  0
 20 21  2  0
 21 22  1  0
 22 23  2  0
 23 18  1  0
  8 18  1  0
 15 24  1  0
M  END
>  <Classification>  (675) 
1

>  <pchembl>  (675) 
6.21

>  <InChI_steorem>  (675) 
InChI=1S/C20H14IN3/c21-15-10-12-16(13-11-15)22-20-17-8-4-5-9-18(17)23-19(24-20)14-6-2-1-3-7-14/h1-13H,(H,22,23,24)

>  <source>  (675) 
ChEMBL28

>  <source_id>  (675) 
28

>  <optional_reference>  (675) 
10.1021/acs.jmedchem.6b00330

>  <optional_origin>  (675) 
None

>  <target>  (675) 
BCRP

$$$$

     RDKit          2D

 24 27  0  0  0  0  0  0  0  0999 V2000
    1.2610    0.2999    0.0000 N   0  0  0  0  0  0  0  0  0  0  0  0
    1.9755    1.5374    0.0000 N   0  0  0  0  0  0  0  0  0  0  0  0
    1.9755   -0.9376    0.0000 N   0  0  0  0  0  0  0  0  0  0  0  0
    2.6899    0.2999    0.0000 C   0  0  0  0  0  0  0  0  0  0  0  0
    1.9755   -0.1126    0.0000 C   0  0  0  0  0  0  0  0  0  0  0  0
    2.6899    1.1249    0.0000 C   0  0  0  0  0  0  0  0  0  0  0  0
    1.2610    1.1249    0.0000 C   0  0  0  0  0  0  0  0  0  0  0  0
    0.5465    1.5374    0.0000 C   0  0  0  0  0  0  0  0  0  0  0  0
    3.4044   -0.1126    0.0000 C   0  0  0  0  0  0  0  0  0  0  0  0
    3.4044    1.5374    0.0000 C   0  0  0  0  0  0  0  0  0  0  0  0
    1.2610   -1.3501    0.0000 C   0  0  0  0  0  0  0  0  0  0  0  0
    4.1189    0.2999    0.0000 C   0  0  0  0  0  0  0  0  0  0  0  0
    4.1189    1.1249    0.0000 C   0  0  0  0  0  0  0  0  0  0  0  0
   -0.1680    1.1249    0.0000 C   0  0  0  0  0  0  0  0  0  0  0  0
    0.5465    2.3624    0.0000 C   0  0  0  0  0  0  0  0  0  0  0  0
    1.2610   -2.1751    0.0000 C   0  0  0  0  0  0  0  0  0  0  0  0
    0.5465   -0.9376    0.0000 C   0  0  0  0  0  0  0  0  0  0  0  0
   -0.8824    1.5374    0.0000 C   0  0  0  0  0  0  0  0  0  0  0  0
   -0.1680    2.7749    0.0000 C   0  0  0  0  0  0  0  0  0  0  0  0
   -0.1680   -2.1751    0.0000 C   0  0  0  0  0  0  0  0  0  0  0  0
    0.5465   -2.5876    0.0000 C   0  0  0  0  0  0  0  0  0  0  0  0
   -0.1680   -1.3501    0.0000 C   0  0  0  0  0  0  0  0  0  0  0  0
   -0.8824    2.3624    0.0000 C   0  0  0  0  0  0  0  0  0  0  0  0
   -0.8824   -2.5876    0.0000 C   0  0  0  0  0  0  0  0  0  0  0  0
  1  5  2  0
  1  7  1  0
  2  6  1  0
  2  7  2  0
  3  5  1  0
  3 11  1  0
  4  5  1  0
  4  6  2  0
  4  9  1  0
  6 10  1  0
  7  8  1  0
  8 14  2  0
  8 15  1  0
  9 12  2  0
 10 13  2  0
 11 16  2  0
 11 17  1  0
 12 13  1  0
 14 18  1  0
 15 19  2  0
 16 21  1  0
 17 22  2  0
 18 23  2  0
 19 23  1  0
 20 21  2  0
 20 22  1  0
 20 24  1  0
M  END
>  <Classification>  (676) 
1

>  <pchembl>  (676) 
5.83

>  <InChI_steorem>  (676) 
InChI=1S/C21H17N3/c1-15-11-13-17(14-12-15)22-21-18-9-5-6-10-19(18)23-20(24-21)16-7-3-2-4-8-16/h2-14H,1H3,(H,22,23,24)

>  <source>  (676) 
ChEMBL28

>  <source_id>  (676) 
28

>  <optional_reference>  (676) 
10.1021/acs.jmedchem.6b00330

>  <optional_origin>  (676) 
None

>  <target>  (676) 
BCRP

$$$$

     RDKit          2D

 24 27  0  0  0  0  0  0  0  0999 V2000
    1.3482  -19.4929    0.0000 C   0  0  0  0  0  0  0  0  0  0  0  0
    1.3470  -20.3124    0.0000 C   0  0  0  0  0  0  0  0  0  0  0  0
    2.0551  -20.7214    0.0000 C   0  0  0  0  0  0  0  0  0  0  0  0
    2.0533  -19.0840    0.0000 C   0  0  0  0  0  0  0  0  0  0  0  0
    2.7619  -19.4893    0.0000 C   0  0  0  0  0  0  0  0  0  0  0  0
    2.7627  -20.3083    0.0000 C   0  0  0  0  0  0  0  0  0  0  0  0
    3.4712  -20.7153    0.0000 N   0  0  0  0  0  0  0  0  0  0  0  0
    4.1795  -20.3045    0.0000 C   0  0  0  0  0  0  0  0  0  0  0  0
    4.1747  -19.4824    0.0000 N   0  0  0  0  0  0  0  0  0  0  0  0
    3.4656  -19.0790    0.0000 C   0  0  0  0  0  0  0  0  0  0  0  0
    3.4613  -18.2618    0.0000 N   0  0  0  0  0  0  0  0  0  0  0  0
    4.1668  -17.8495    0.0000 C   0  0  0  0  0  0  0  0  0  0  0  0
    4.8721  -18.2577    0.0000 C   0  0  0  0  0  0  0  0  0  0  0  0
    5.5772  -17.8461    0.0000 C   0  0  0  0  0  0  0  0  0  0  0  0
    5.5733  -17.0280    0.0000 C   0  0  0  0  0  0  0  0  0  0  0  0
    4.8584  -16.6234    0.0000 C   0  0  0  0  0  0  0  0  0  0  0  0
    4.1563  -17.0374    0.0000 C   0  0  0  0  0  0  0  0  0  0  0  0
    4.8852  -20.7063    0.0000 C   0  0  0  0  0  0  0  0  0  0  0  0
    4.8871  -21.5246    0.0000 C   0  0  0  0  0  0  0  0  0  0  0  0
    5.5955  -21.9303    0.0000 C   0  0  0  0  0  0  0  0  0  0  0  0
    6.3026  -21.5189    0.0000 C   0  0  0  0  0  0  0  0  0  0  0  0
    6.2968  -20.6975    0.0000 C   0  0  0  0  0  0  0  0  0  0  0  0
    5.5878  -20.2955    0.0000 C   0  0  0  0  0  0  0  0  0  0  0  0
    6.2868  -18.2512    0.0000 I   0  0  0  0  0  0  0  0  0  0  0  0
  1  2  2  0
  2  3  1  0
  3  6  2  0
  5  4  2  0
  4  1  1  0
  5  6  1  0
  6  7  1  0
  7  8  2  0
  8  9  1  0
  9 10  2  0
 10  5  1  0
 10 11  1  0
 11 12  1  0
 12 13  2  0
 13 14  1  0
 14 15  2  0
 15 16  1  0
 16 17  2  0
 17 12  1  0
 18 19  2  0
 19 20  1  0
 20 21  2  0
 21 22  1  0
 22 23  2  0
 23 18  1  0
  8 18  1  0
 14 24  1  0
M  END
>  <Classification>  (677) 
1

>  <pchembl>  (677) 
6.1

>  <InChI_steorem>  (677) 
InChI=1S/C20H14IN3/c21-15-9-6-10-16(13-15)22-20-17-11-4-5-12-18(17)23-19(24-20)14-7-2-1-3-8-14/h1-13H,(H,22,23,24)

>  <source>  (677) 
ChEMBL28

>  <source_id>  (677) 
28

>  <optional_reference>  (677) 
10.1021/acs.jmedchem.6b00330

>  <optional_origin>  (677) 
None

>  <target>  (677) 
BCRP

$$$$

     RDKit          2D

 24 27  0  0  0  0  0  0  0  0999 V2000
    1.4390   -4.4244    0.0000 C   0  0  0  0  0  0  0  0  0  0  0  0
    1.4378   -5.2439    0.0000 C   0  0  0  0  0  0  0  0  0  0  0  0
    2.1459   -5.6529    0.0000 C   0  0  0  0  0  0  0  0  0  0  0  0
    2.1441   -4.0155    0.0000 C   0  0  0  0  0  0  0  0  0  0  0  0
    2.8527   -4.4208    0.0000 C   0  0  0  0  0  0  0  0  0  0  0  0
    2.8535   -5.2398    0.0000 C   0  0  0  0  0  0  0  0  0  0  0  0
    3.5620   -5.6468    0.0000 N   0  0  0  0  0  0  0  0  0  0  0  0
    4.2703   -5.2360    0.0000 C   0  0  0  0  0  0  0  0  0  0  0  0
    4.2655   -4.4139    0.0000 N   0  0  0  0  0  0  0  0  0  0  0  0
    3.5564   -4.0105    0.0000 C   0  0  0  0  0  0  0  0  0  0  0  0
    3.5521   -3.1933    0.0000 N   0  0  0  0  0  0  0  0  0  0  0  0
    4.2576   -2.7810    0.0000 C   0  0  0  0  0  0  0  0  0  0  0  0
    4.9629   -3.1892    0.0000 C   0  0  0  0  0  0  0  0  0  0  0  0
    5.6680   -2.7776    0.0000 C   0  0  0  0  0  0  0  0  0  0  0  0
    5.6641   -1.9595    0.0000 C   0  0  0  0  0  0  0  0  0  0  0  0
    4.9492   -1.5549    0.0000 C   0  0  0  0  0  0  0  0  0  0  0  0
    4.2471   -1.9688    0.0000 C   0  0  0  0  0  0  0  0  0  0  0  0
    4.9760   -5.6378    0.0000 C   0  0  0  0  0  0  0  0  0  0  0  0
    4.9779   -6.4561    0.0000 C   0  0  0  0  0  0  0  0  0  0  0  0
    5.6863   -6.8618    0.0000 C   0  0  0  0  0  0  0  0  0  0  0  0
    6.3934   -6.4504    0.0000 C   0  0  0  0  0  0  0  0  0  0  0  0
    6.3876   -5.6290    0.0000 C   0  0  0  0  0  0  0  0  0  0  0  0
    5.6786   -5.2270    0.0000 C   0  0  0  0  0  0  0  0  0  0  0  0
    6.3691   -1.5462    0.0000 F   0  0  0  0  0  0  0  0  0  0  0  0
  1  2  2  0
  2  3  1  0
  3  6  2  0
  5  4  2  0
  4  1  1  0
  5  6  1  0
  6  7  1  0
  7  8  2  0
  8  9  1  0
  9 10  2  0
 10  5  1  0
 10 11  1  0
 11 12  1  0
 12 13  2  0
 13 14  1  0
 14 15  2  0
 15 16  1  0
 16 17  2  0
 17 12  1  0
 18 19  2  0
 19 20  1  0
 20 21  2  0
 21 22  1  0
 22 23  2  0
 23 18  1  0
  8 18  1  0
 15 24  1  0
M  END
>  <Classification>  (678) 
1

>  <pchembl>  (678) 
5.97

>  <InChI_steorem>  (678) 
InChI=1S/C20H14FN3/c21-15-10-12-16(13-11-15)22-20-17-8-4-5-9-18(17)23-19(24-20)14-6-2-1-3-7-14/h1-13H,(H,22,23,24)

>  <source>  (678) 
ChEMBL28

>  <source_id>  (678) 
28

>  <optional_reference>  (678) 
10.1021/acs.jmedchem.6b00330

>  <optional_origin>  (678) 
None

>  <target>  (678) 
BCRP

$$$$

     RDKit          2D

 24 27  0  0  0  0  0  0  0  0999 V2000
    1.5752  -11.3540    0.0000 C   0  0  0  0  0  0  0  0  0  0  0  0
    1.5740  -12.1776    0.0000 C   0  0  0  0  0  0  0  0  0  0  0  0
    2.2862  -12.5907    0.0000 C   0  0  0  0  0  0  0  0  0  0  0  0
    2.2844  -10.9451    0.0000 C   0  0  0  0  0  0  0  0  0  0  0  0
    2.9972  -11.3504    0.0000 C   0  0  0  0  0  0  0  0  0  0  0  0
    2.9979  -12.1735    0.0000 C   0  0  0  0  0  0  0  0  0  0  0  0
    3.7106  -12.5847    0.0000 N   0  0  0  0  0  0  0  0  0  0  0  0
    4.4189  -12.1698    0.0000 C   0  0  0  0  0  0  0  0  0  0  0  0
    4.4141  -11.3435    0.0000 C   0  0  0  0  0  0  0  0  0  0  0  0
    3.7050  -10.9401    0.0000 C   0  0  0  0  0  0  0  0  0  0  0  0
    3.7007  -10.1188    0.0000 N   0  0  0  0  0  0  0  0  0  0  0  0
    4.4062   -9.7024    0.0000 C   0  0  0  0  0  0  0  0  0  0  0  0
    5.1156  -10.1147    0.0000 C   0  0  0  0  0  0  0  0  0  0  0  0
    5.8248   -9.6989    0.0000 C   0  0  0  0  0  0  0  0  0  0  0  0
    5.8209   -8.8767    0.0000 C   0  0  0  0  0  0  0  0  0  0  0  0
    5.1019   -8.4721    0.0000 C   0  0  0  0  0  0  0  0  0  0  0  0
    4.3957   -8.8861    0.0000 C   0  0  0  0  0  0  0  0  0  0  0  0
    5.1287  -12.5756    0.0000 C   0  0  0  0  0  0  0  0  0  0  0  0
    5.1306  -13.3981    0.0000 C   0  0  0  0  0  0  0  0  0  0  0  0
    5.8431  -13.8038    0.0000 C   0  0  0  0  0  0  0  0  0  0  0  0
    6.5544  -13.3924    0.0000 C   0  0  0  0  0  0  0  0  0  0  0  0
    6.5485  -12.5669    0.0000 C   0  0  0  0  0  0  0  0  0  0  0  0
    5.8354  -12.1607    0.0000 C   0  0  0  0  0  0  0  0  0  0  0  0
    6.5386  -10.1082    0.0000 F   0  0  0  0  0  0  0  0  0  0  0  0
  1  2  2  0
  2  3  1  0
  3  6  2  0
  5  4  2  0
  4  1  1  0
  5  6  1  0
  6  7  1  0
  7  8  2  0
  8  9  1  0
  9 10  2  0
 10  5  1  0
 10 11  1  0
 11 12  1  0
 12 13  2  0
 13 14  1  0
 14 15  2  0
 15 16  1  0
 16 17  2  0
 17 12  1  0
 18 19  2  0
 19 20  1  0
 20 21  2  0
 21 22  1  0
 22 23  2  0
 23 18  1  0
  8 18  1  0
 14 24  1  0
M  END
>  <Classification>  (679) 
1

>  <pchembl>  (679) 
5.67

>  <InChI_steorem>  (679) 
InChI=1S/C21H15FN2/c22-16-9-6-10-17(13-16)23-21-14-20(15-7-2-1-3-8-15)24-19-12-5-4-11-18(19)21/h1-14H,(H,23,24)

>  <source>  (679) 
ChEMBL28

>  <source_id>  (679) 
28

>  <optional_reference>  (679) 
10.1021/acs.jmedchem.6b00330

>  <optional_origin>  (679) 
None

>  <target>  (679) 
BCRP

$$$$

     RDKit          2D

 24 27  0  0  0  0  0  0  0  0999 V2000
   18.0139  -12.3404    0.0000 C   0  0  0  0  0  0  0  0  0  0  0  0
   18.0128  -13.1599    0.0000 C   0  0  0  0  0  0  0  0  0  0  0  0
   18.7208  -13.5689    0.0000 C   0  0  0  0  0  0  0  0  0  0  0  0
   18.7190  -11.9315    0.0000 C   0  0  0  0  0  0  0  0  0  0  0  0
   19.4277  -12.3368    0.0000 C   0  0  0  0  0  0  0  0  0  0  0  0
   19.4284  -13.1558    0.0000 C   0  0  0  0  0  0  0  0  0  0  0  0
   20.1370  -13.5629    0.0000 N   0  0  0  0  0  0  0  0  0  0  0  0
   20.8452  -13.1520    0.0000 C   0  0  0  0  0  0  0  0  0  0  0  0
   20.8405  -12.3299    0.0000 N   0  0  0  0  0  0  0  0  0  0  0  0
   20.1314  -11.9265    0.0000 C   0  0  0  0  0  0  0  0  0  0  0  0
   21.5587  -13.5550    0.0000 C   0  0  0  0  0  0  0  0  0  0  0  0
   21.6473  -14.3674    0.0000 C   0  0  0  0  0  0  0  0  0  0  0  0
   22.4473  -14.5342    0.0000 C   0  0  0  0  0  0  0  0  0  0  0  0
   22.8531  -13.8248    0.0000 C   0  0  0  0  0  0  0  0  0  0  0  0
   22.3039  -13.2198    0.0000 N   0  0  0  0  0  0  0  0  0  0  0  0
   20.1270  -11.1094    0.0000 N   0  0  0  0  0  0  0  0  0  0  0  0
   20.8326  -10.6970    0.0000 C   0  0  0  0  0  0  0  0  0  0  0  0
   21.5379  -11.1052    0.0000 C   0  0  0  0  0  0  0  0  0  0  0  0
   22.2429  -10.6936    0.0000 C   0  0  0  0  0  0  0  0  0  0  0  0
   22.2390   -9.8755    0.0000 C   0  0  0  0  0  0  0  0  0  0  0  0
   21.5242   -9.4709    0.0000 C   0  0  0  0  0  0  0  0  0  0  0  0
   20.8221   -9.8849    0.0000 C   0  0  0  0  0  0  0  0  0  0  0  0
   22.9440   -9.4622    0.0000 O   0  0  0  0  0  0  0  0  0  0  0  0
   23.6544   -9.8661    0.0000 C   0  0  0  0  0  0  0  0  0  0  0  0
  1  2  2  0
  2  3  1  0
  3  6  2  0
  5  4  2  0
  4  1  1  0
  5  6  1  0
  6  7  1  0
  7  8  2  0
  8  9  1  0
  9 10  2  0
 10  5  1  0
 11 12  2  0
 12 13  1  0
 13 14  2  0
 14 15  1  0
 15 11  1  0
  8 11  1  0
 10 16  1  0
 16 17  1  0
 17 18  2  0
 18 19  1  0
 19 20  2  0
 20 21  1  0
 21 22  2  0
 22 17  1  0
 20 23  1  0
 23 24  1  0
M  END
>  <Classification>  (680) 
1

>  <pchembl>  (680) 
5.59

>  <InChI_steorem>  (680) 
InChI=1S/C19H16N4O/c1-24-14-10-8-13(9-11-14)21-18-15-5-2-3-6-16(15)22-19(23-18)17-7-4-12-20-17/h2-12,20H,1H3,(H,21,22,23)

>  <source>  (680) 
ChEMBL28

>  <source_id>  (680) 
28

>  <optional_reference>  (680) 
10.1016/j.ejmech.2018.10.026

>  <optional_origin>  (680) 
None

>  <target>  (680) 
BCRP

$$$$

     RDKit          2D

 24 27  0  0  0  0  0  0  0  0999 V2000
   18.3647   -5.2209    0.0000 C   0  0  0  0  0  0  0  0  0  0  0  0
   18.3636   -6.0404    0.0000 C   0  0  0  0  0  0  0  0  0  0  0  0
   19.0716   -6.4494    0.0000 C   0  0  0  0  0  0  0  0  0  0  0  0
   19.0699   -4.8120    0.0000 C   0  0  0  0  0  0  0  0  0  0  0  0
   19.7785   -5.2173    0.0000 C   0  0  0  0  0  0  0  0  0  0  0  0
   19.7792   -6.0363    0.0000 C   0  0  0  0  0  0  0  0  0  0  0  0
   20.4878   -6.4434    0.0000 N   0  0  0  0  0  0  0  0  0  0  0  0
   21.1960   -6.0326    0.0000 C   0  0  0  0  0  0  0  0  0  0  0  0
   21.1913   -5.2104    0.0000 N   0  0  0  0  0  0  0  0  0  0  0  0
   20.4822   -4.8071    0.0000 C   0  0  0  0  0  0  0  0  0  0  0  0
   21.9095   -6.4356    0.0000 C   0  0  0  0  0  0  0  0  0  0  0  0
   21.9981   -7.2479    0.0000 C   0  0  0  0  0  0  0  0  0  0  0  0
   22.7981   -7.4147    0.0000 C   0  0  0  0  0  0  0  0  0  0  0  0
   23.2039   -6.7054    0.0000 C   0  0  0  0  0  0  0  0  0  0  0  0
   22.6547   -6.1003    0.0000 S   0  0  0  0  0  0  0  0  0  0  0  0
   20.4779   -3.9899    0.0000 N   0  0  0  0  0  0  0  0  0  0  0  0
   21.1834   -3.5776    0.0000 C   0  0  0  0  0  0  0  0  0  0  0  0
   21.8887   -3.9858    0.0000 C   0  0  0  0  0  0  0  0  0  0  0  0
   22.5937   -3.5741    0.0000 C   0  0  0  0  0  0  0  0  0  0  0  0
   22.5898   -2.7561    0.0000 C   0  0  0  0  0  0  0  0  0  0  0  0
   21.8750   -2.3514    0.0000 C   0  0  0  0  0  0  0  0  0  0  0  0
   21.1729   -2.7654    0.0000 C   0  0  0  0  0  0  0  0  0  0  0  0
   23.3027   -3.9781    0.0000 C   0  0  0  0  0  0  0  0  0  0  0  0
   24.0124   -4.3833    0.0000 N   0  0  0  0  0  0  0  0  0  0  0  0
  1  2  2  0
  2  3  1  0
  3  6  2  0
  5  4  2  0
  4  1  1  0
  5  6  1  0
  6  7  1  0
  7  8  2  0
  8  9  1  0
  9 10  2  0
 10  5  1  0
 11 12  2  0
 12 13  1  0
 13 14  2  0
 14 15  1  0
 15 11  1  0
  8 11  1  0
 10 16  1  0
 16 17  1  0
 17 18  2  0
 18 19  1  0
 19 20  2  0
 20 21  1  0
 21 22  2  0
 22 17  1  0
 23 24  3  0
 19 23  1  0
M  END
>  <Classification>  (681) 
1

>  <pchembl>  (681) 
6.75

>  <InChI_steorem>  (681) 
InChI=1S/C19H12N4S/c20-12-13-5-3-6-14(11-13)21-18-15-7-1-2-8-16(15)22-19(23-18)17-9-4-10-24-17/h1-11H,(H,21,22,23)

>  <source>  (681) 
ChEMBL28

>  <source_id>  (681) 
28

>  <optional_reference>  (681) 
10.1016/j.ejmech.2018.10.026

>  <optional_origin>  (681) 
None

>  <target>  (681) 
BCRP

$$$$

     RDKit          2D

 24 27  0  0  0  0  0  0  0  0999 V2000
   22.7396  -19.3979    0.0000 C   0  0  0  0  0  0  0  0  0  0  0  0
   22.7385  -20.2175    0.0000 C   0  0  0  0  0  0  0  0  0  0  0  0
   23.4465  -20.6264    0.0000 C   0  0  0  0  0  0  0  0  0  0  0  0
   23.4447  -18.9891    0.0000 C   0  0  0  0  0  0  0  0  0  0  0  0
   24.1533  -19.3943    0.0000 C   0  0  0  0  0  0  0  0  0  0  0  0
   24.1541  -20.2134    0.0000 C   0  0  0  0  0  0  0  0  0  0  0  0
   24.8626  -20.6204    0.0000 N   0  0  0  0  0  0  0  0  0  0  0  0
   25.5709  -20.2096    0.0000 C   0  0  0  0  0  0  0  0  0  0  0  0
   25.5662  -19.3875    0.0000 N   0  0  0  0  0  0  0  0  0  0  0  0
   24.8571  -18.9841    0.0000 C   0  0  0  0  0  0  0  0  0  0  0  0
   26.2843  -20.6126    0.0000 C   0  0  0  0  0  0  0  0  0  0  0  0
   24.8527  -18.1669    0.0000 O   0  0  0  0  0  0  0  0  0  0  0  0
   25.5583  -17.7546    0.0000 C   0  0  0  0  0  0  0  0  0  0  0  0
   26.2635  -18.1628    0.0000 C   0  0  0  0  0  0  0  0  0  0  0  0
   26.9686  -17.7511    0.0000 C   0  0  0  0  0  0  0  0  0  0  0  0
   26.9647  -16.9331    0.0000 C   0  0  0  0  0  0  0  0  0  0  0  0
   26.2499  -16.5284    0.0000 C   0  0  0  0  0  0  0  0  0  0  0  0
   25.5477  -16.9424    0.0000 C   0  0  0  0  0  0  0  0  0  0  0  0
   26.2871  -21.4318    0.0000 C   0  0  0  0  0  0  0  0  0  0  0  0
   26.9997  -21.8348    0.0000 C   0  0  0  0  0  0  0  0  0  0  0  0
   27.7064  -21.4184    0.0000 C   0  0  0  0  0  0  0  0  0  0  0  0
   27.6961  -20.5948    0.0000 C   0  0  0  0  0  0  0  0  0  0  0  0
   26.9829  -20.1956    0.0000 C   0  0  0  0  0  0  0  0  0  0  0  0
   27.6783  -18.1563    0.0000 Br  0  0  0  0  0  0  0  0  0  0  0  0
  1  2  2  0
  2  3  1  0
  3  6  2  0
  5  4  2  0
  4  1  1  0
  5  6  1  0
  6  7  1  0
  7  8  2  0
  8  9  1  0
  9 10  2  0
 10  5  1  0
  8 11  1  0
 10 12  1  0
 12 13  1  0
 13 14  2  0
 14 15  1  0
 15 16  2  0
 16 17  1  0
 17 18  2  0
 18 13  1  0
 11 19  2  0
 19 20  1  0
 20 21  2  0
 21 22  1  0
 22 23  2  0
 23 11  1  0
 15 24  1  0
M  END
>  <Classification>  (682) 
1

>  <pchembl>  (682) 
5.41

>  <InChI_steorem>  (682) 
InChI=1S/C20H13BrN2O/c21-15-9-6-10-16(13-15)24-20-17-11-4-5-12-18(17)22-19(23-20)14-7-2-1-3-8-14/h1-13H

>  <source>  (682) 
ChEMBL28

>  <source_id>  (682) 
28

>  <optional_reference>  (682) 
10.1016/j.ejmech.2018.10.026

>  <optional_origin>  (682) 
None

>  <target>  (682) 
BCRP

$$$$

     RDKit          2D

 24 27  0  0  0  0  0  0  0  0999 V2000
   29.1286  -19.1874    0.0000 C   0  0  0  0  0  0  0  0  0  0  0  0
   29.1274  -20.0070    0.0000 C   0  0  0  0  0  0  0  0  0  0  0  0
   29.8355  -20.4159    0.0000 C   0  0  0  0  0  0  0  0  0  0  0  0
   29.8337  -18.7786    0.0000 C   0  0  0  0  0  0  0  0  0  0  0  0
   30.5423  -19.1838    0.0000 C   0  0  0  0  0  0  0  0  0  0  0  0
   30.5430  -20.0029    0.0000 C   0  0  0  0  0  0  0  0  0  0  0  0
   31.2516  -20.4099    0.0000 N   0  0  0  0  0  0  0  0  0  0  0  0
   31.9598  -19.9991    0.0000 C   0  0  0  0  0  0  0  0  0  0  0  0
   31.9551  -19.1770    0.0000 N   0  0  0  0  0  0  0  0  0  0  0  0
   31.2460  -18.7736    0.0000 C   0  0  0  0  0  0  0  0  0  0  0  0
   32.6733  -20.4021    0.0000 C   0  0  0  0  0  0  0  0  0  0  0  0
   31.2417  -17.9564    0.0000 O   0  0  0  0  0  0  0  0  0  0  0  0
   31.9472  -17.5441    0.0000 C   0  0  0  0  0  0  0  0  0  0  0  0
   32.6525  -17.9523    0.0000 C   0  0  0  0  0  0  0  0  0  0  0  0
   33.3575  -17.5407    0.0000 C   0  0  0  0  0  0  0  0  0  0  0  0
   33.3536  -16.7226    0.0000 C   0  0  0  0  0  0  0  0  0  0  0  0
   32.6388  -16.3179    0.0000 C   0  0  0  0  0  0  0  0  0  0  0  0
   31.9367  -16.7319    0.0000 C   0  0  0  0  0  0  0  0  0  0  0  0
   32.6761  -21.2214    0.0000 C   0  0  0  0  0  0  0  0  0  0  0  0
   33.3887  -21.6243    0.0000 C   0  0  0  0  0  0  0  0  0  0  0  0
   34.0954  -21.2079    0.0000 C   0  0  0  0  0  0  0  0  0  0  0  0
   34.0850  -20.3843    0.0000 C   0  0  0  0  0  0  0  0  0  0  0  0
   33.3719  -19.9851    0.0000 C   0  0  0  0  0  0  0  0  0  0  0  0
   34.0586  -16.3093    0.0000 Br  0  0  0  0  0  0  0  0  0  0  0  0
  1  2  2  0
  2  3  1  0
  3  6  2  0
  5  4  2  0
  4  1  1  0
  5  6  1  0
  6  7  1  0
  7  8  2  0
  8  9  1  0
  9 10  2  0
 10  5  1  0
  8 11  1  0
 10 12  1  0
 12 13  1  0
 13 14  2  0
 14 15  1  0
 15 16  2  0
 16 17  1  0
 17 18  2  0
 18 13  1  0
 11 19  2  0
 19 20  1  0
 20 21  2  0
 21 22  1  0
 22 23  2  0
 23 11  1  0
 16 24  1  0
M  END
>  <Classification>  (683) 
1

>  <pchembl>  (683) 
5.14

>  <InChI_steorem>  (683) 
InChI=1S/C20H13BrN2O/c21-15-10-12-16(13-11-15)24-20-17-8-4-5-9-18(17)22-19(23-20)14-6-2-1-3-7-14/h1-13H

>  <source>  (683) 
ChEMBL28

>  <source_id>  (683) 
28

>  <optional_reference>  (683) 
10.1016/j.ejmech.2018.10.026

>  <optional_origin>  (683) 
None

>  <target>  (683) 
BCRP

$$$$

     RDKit          2D

 24 27  0  0  0  0  0  0  0  0999 V2000
    9.2601  -12.6169    0.0000 C   0  0  0  0  0  0  0  0  0  0  0  0
    9.2589  -13.4364    0.0000 C   0  0  0  0  0  0  0  0  0  0  0  0
    9.9670  -13.8454    0.0000 C   0  0  0  0  0  0  0  0  0  0  0  0
    9.9652  -12.2080    0.0000 C   0  0  0  0  0  0  0  0  0  0  0  0
   10.6738  -12.6133    0.0000 C   0  0  0  0  0  0  0  0  0  0  0  0
   10.6746  -13.4323    0.0000 C   0  0  0  0  0  0  0  0  0  0  0  0
   11.3831  -13.8394    0.0000 N   0  0  0  0  0  0  0  0  0  0  0  0
   12.0914  -13.4286    0.0000 C   0  0  0  0  0  0  0  0  0  0  0  0
   12.0866  -12.6064    0.0000 N   0  0  0  0  0  0  0  0  0  0  0  0
   11.3775  -12.2031    0.0000 C   0  0  0  0  0  0  0  0  0  0  0  0
   12.8048  -13.8316    0.0000 C   0  0  0  0  0  0  0  0  0  0  0  0
   12.8934  -14.6439    0.0000 C   0  0  0  0  0  0  0  0  0  0  0  0
   13.6934  -14.8107    0.0000 C   0  0  0  0  0  0  0  0  0  0  0  0
   14.0993  -14.1014    0.0000 C   0  0  0  0  0  0  0  0  0  0  0  0
   13.5500  -13.4963    0.0000 N   0  0  0  0  0  0  0  0  0  0  0  0
   11.3732  -11.3859    0.0000 N   0  0  0  0  0  0  0  0  0  0  0  0
   12.0787  -10.9735    0.0000 C   0  0  0  0  0  0  0  0  0  0  0  0
   12.7840  -11.3818    0.0000 C   0  0  0  0  0  0  0  0  0  0  0  0
   13.4891  -10.9701    0.0000 C   0  0  0  0  0  0  0  0  0  0  0  0
   13.4852  -10.1520    0.0000 C   0  0  0  0  0  0  0  0  0  0  0  0
   12.7703   -9.7474    0.0000 C   0  0  0  0  0  0  0  0  0  0  0  0
   12.0682  -10.1614    0.0000 C   0  0  0  0  0  0  0  0  0  0  0  0
   14.1981  -11.3741    0.0000 C   0  0  0  0  0  0  0  0  0  0  0  0
   14.9077  -11.7793    0.0000 N   0  0  0  0  0  0  0  0  0  0  0  0
  1  2  2  0
  2  3  1  0
  3  6  2  0
  5  4  2  0
  4  1  1  0
  5  6  1  0
  6  7  1  0
  7  8  2  0
  8  9  1  0
  9 10  2  0
 10  5  1  0
 11 12  2  0
 12 13  1  0
 13 14  2  0
 14 15  1  0
 15 11  1  0
  8 11  1  0
 10 16  1  0
 16 17  1  0
 17 18  2  0
 18 19  1  0
 19 20  2  0
 20 21  1  0
 21 22  2  0
 22 17  1  0
 23 24  3  0
 19 23  1  0
M  END
>  <Classification>  (684) 
1

>  <pchembl>  (684) 
6.81

>  <InChI_steorem>  (684) 
InChI=1S/C19H13N5/c20-12-13-5-3-6-14(11-13)22-18-15-7-1-2-8-16(15)23-19(24-18)17-9-4-10-21-17/h1-11,21H,(H,22,23,24)

>  <source>  (684) 
ChEMBL28

>  <source_id>  (684) 
28

>  <optional_reference>  (684) 
10.1016/j.ejmech.2018.10.026

>  <optional_origin>  (684) 
None

>  <target>  (684) 
BCRP

$$$$

     RDKit          2D

 25 26  0  0  0  0  0  0  0  0999 V2000
    7.7206  -10.7819    0.0000 C   0  0  0  0  0  0  0  0  0  0  0  0
    8.4370  -10.3685    0.0000 C   0  0  0  0  0  0  0  0  0  0  0  0
    8.4341   -9.5380    0.0000 C   0  0  0  0  0  0  0  0  0  0  0  0
    7.7188   -9.1289    0.0000 C   0  0  0  0  0  0  0  0  0  0  0  0
    9.1471   -9.1228    0.0000 C   0  0  0  0  0  0  0  0  0  0  0  0
    9.8631   -9.5326    0.0000 C   0  0  0  0  0  0  0  0  0  0  0  0
    9.1439   -8.2978    0.0000 O   0  0  0  0  0  0  0  0  0  0  0  0
   10.5760   -9.1174    0.0000 C   0  0  0  0  0  0  0  0  0  0  0  0
   11.2920   -9.5272    0.0000 C   0  0  0  0  0  0  0  0  0  0  0  0
   11.2920  -10.3511    0.0000 C   0  0  0  0  0  0  0  0  0  0  0  0
   12.0072  -10.7608    0.0000 C   0  0  0  0  0  0  0  0  0  0  0  0
   11.9995   -9.1103    0.0000 C   0  0  0  0  0  0  0  0  0  0  0  0
   12.7195   -9.5132    0.0000 C   0  0  0  0  0  0  0  0  0  0  0  0
   12.7208  -10.3413    0.0000 C   0  0  0  0  0  0  0  0  0  0  0  0
   13.4333  -10.7522    0.0000 O   0  0  0  0  0  0  0  0  0  0  0  0
   13.4337  -11.5772    0.0000 C   0  0  0  0  0  0  0  0  0  0  0  0
    7.0032  -10.3662    0.0000 C   0  0  0  0  0  0  0  0  0  0  0  0
    7.0070   -9.5447    0.0000 C   0  0  0  0  0  0  0  0  0  0  0  0
   13.4308   -9.0953    0.0000 O   0  0  0  0  0  0  0  0  0  0  0  0
   14.1484   -9.5025    0.0000 C   0  0  0  0  0  0  0  0  0  0  0  0
   12.0118  -11.5858    0.0000 O   0  0  0  0  0  0  0  0  0  0  0  0
   11.2996  -12.0023    0.0000 C   0  0  0  0  0  0  0  0  0  0  0  0
    6.2924   -9.1324    0.0000 O   0  0  0  0  0  0  0  0  0  0  0  0
    6.2922   -8.3074    0.0000 C   0  0  0  0  0  0  0  0  0  0  0  0
    6.2875  -10.7765    0.0000 O   0  0  0  0  0  0  0  0  0  0  0  0
  3  5  1  0
 13 12  2  0
 12  9  1  0
 13 14  1  0
 17  1  2  0
  5  6  1  0
  2  3  2  0
 14 15  1  0
  5  7  2  0
 15 16  1  0
 17 18  1  0
  6  8  2  3
  3  4  1  0
 13 19  1  0
  8  9  1  0
 19 20  1  0
  4 18  2  0
 11 21  1  0
  9 10  2  0
 21 22  1  0
  1  2  1  0
 18 23  1  0
 10 11  1  0
 23 24  1  0
 11 14  2  0
 17 25  1  0
M  END
>  <Classification>  (685) 
1

>  <pchembl>  (685) 
5.71

>  <InChI_steorem>  (685) 
InChI=1S/C19H20O6/c1-22-16-11-13(6-8-15(16)21)14(20)7-5-12-9-17(23-2)19(25-4)18(10-12)24-3/h5-11,21H,1-4H3

>  <source>  (685) 
ChEMBL28

>  <source_id>  (685) 
28

>  <optional_reference>  (685) 
10.1016/j.ejmech.2018.12.019

>  <optional_origin>  (685) 
None

>  <target>  (685) 
BCRP

$$$$

     RDKit          2D

 25 27  0  0  0  0  0  0  0  0999 V2000
   19.7020   -7.1566    0.0000 C   0  0  0  0  0  0  0  0  0  0  0  0
   19.7008   -7.9761    0.0000 C   0  0  0  0  0  0  0  0  0  0  0  0
   20.4089   -8.3851    0.0000 C   0  0  0  0  0  0  0  0  0  0  0  0
   21.1185   -7.9756    0.0000 C   0  0  0  0  0  0  0  0  0  0  0  0
   21.1157   -7.1530    0.0000 C   0  0  0  0  0  0  0  0  0  0  0  0
   20.4071   -6.7477    0.0000 C   0  0  0  0  0  0  0  0  0  0  0  0
   21.8219   -6.7417    0.0000 C   0  0  0  0  0  0  0  0  0  0  0  0
   22.5311   -7.1476    0.0000 C   0  0  0  0  0  0  0  0  0  0  0  0
   21.8188   -5.9245    0.0000 O   0  0  0  0  0  0  0  0  0  0  0  0
   23.2373   -6.7364    0.0000 C   0  0  0  0  0  0  0  0  0  0  0  0
   23.9465   -7.1423    0.0000 C   0  0  0  0  0  0  0  0  0  0  0  0
   23.9465   -7.9584    0.0000 C   0  0  0  0  0  0  0  0  0  0  0  0
   24.6549   -8.3642    0.0000 C   0  0  0  0  0  0  0  0  0  0  0  0
   25.3621   -7.9529    0.0000 C   0  0  0  0  0  0  0  0  0  0  0  0
   25.3563   -7.1315    0.0000 C   0  0  0  0  0  0  0  0  0  0  0  0
   24.6474   -6.7294    0.0000 C   0  0  0  0  0  0  0  0  0  0  0  0
   18.9928   -8.3841    0.0000 O   0  0  0  0  0  0  0  0  0  0  0  0
   26.0718   -8.3579    0.0000 O   0  0  0  0  0  0  0  0  0  0  0  0
   26.0760   -9.1751    0.0000 C   0  0  0  0  0  0  0  0  0  0  0  0
   26.7858   -9.5801    0.0000 C   0  0  0  0  0  0  0  0  0  0  0  0
   26.7871  -10.3976    0.0000 C   0  0  0  0  0  0  0  0  0  0  0  0
   27.4961  -10.8025    0.0000 C   0  0  0  0  0  0  0  0  0  0  0  0
   28.2027  -10.3902    0.0000 C   0  0  0  0  0  0  0  0  0  0  0  0
   28.1959   -9.5688    0.0000 C   0  0  0  0  0  0  0  0  0  0  0  0
   27.4863   -9.1676    0.0000 C   0  0  0  0  0  0  0  0  0  0  0  0
  1  2  2  0
  2  3  1  0
  3  4  2  0
  4  5  1  0
  5  6  2  0
  6  1  1  0
  5  7  1  0
  7  8  1  0
  7  9  2  0
  8 10  2  3
 10 11  1  0
 11 12  2  0
 12 13  1  0
 13 14  2  0
 14 15  1  0
 15 16  2  0
 16 11  1  0
  2 17  1  0
 14 18  1  0
 18 19  1  0
 19 20  1  0
 20 21  2  0
 21 22  1  0
 22 23  2  0
 23 24  1  0
 24 25  2  0
 25 20  1  0
M  END
>  <Classification>  (686) 
1

>  <pchembl>  (686) 
5.04

>  <InChI_steorem>  (686) 
InChI=1S/C22H18O3/c23-20-11-9-19(10-12-20)22(24)15-8-17-6-13-21(14-7-17)25-16-18-4-2-1-3-5-18/h1-15,23H,16H2

>  <source>  (686) 
ChEMBL28

>  <source_id>  (686) 
28

>  <optional_reference>  (686) 
10.1016/j.ejmech.2018.12.019

>  <optional_origin>  (686) 
None

>  <target>  (686) 
BCRP

$$$$

     RDKit          2D

 25 28  0  0  0  0  0  0  0  0999 V2000
    0.9272   -3.6361    0.0000 C   0  0  0  0  0  0  0  0  0  0  0  0
    0.9261   -4.4597    0.0000 C   0  0  0  0  0  0  0  0  0  0  0  0
    1.6341   -4.8687    0.0000 C   0  0  0  0  0  0  0  0  0  0  0  0
    1.6323   -3.2231    0.0000 C   0  0  0  0  0  0  0  0  0  0  0  0
    2.3451   -3.6325    0.0000 C   0  0  0  0  0  0  0  0  0  0  0  0
    2.3458   -4.4556    0.0000 C   0  0  0  0  0  0  0  0  0  0  0  0
    3.0585   -4.8627    0.0000 N   0  0  0  0  0  0  0  0  0  0  0  0
    3.7709   -4.4518    0.0000 C   0  0  0  0  0  0  0  0  0  0  0  0
    3.7661   -3.6256    0.0000 C   0  0  0  0  0  0  0  0  0  0  0  0
    3.0529   -3.2181    0.0000 C   0  0  0  0  0  0  0  0  0  0  0  0
    3.0486   -2.3968    0.0000 N   0  0  0  0  0  0  0  0  0  0  0  0
    3.7582   -1.9844    0.0000 C   0  0  0  0  0  0  0  0  0  0  0  0
    4.4676   -2.3927    0.0000 C   0  0  0  0  0  0  0  0  0  0  0  0
    5.1768   -1.9810    0.0000 C   0  0  0  0  0  0  0  0  0  0  0  0
    5.1729   -1.1588    0.0000 C   0  0  0  0  0  0  0  0  0  0  0  0
    4.4540   -0.7500    0.0000 C   0  0  0  0  0  0  0  0  0  0  0  0
    3.7477   -1.1682    0.0000 C   0  0  0  0  0  0  0  0  0  0  0  0
    4.4807   -4.8536    0.0000 C   0  0  0  0  0  0  0  0  0  0  0  0
    4.4826   -5.6760    0.0000 C   0  0  0  0  0  0  0  0  0  0  0  0
    5.1952   -6.0859    0.0000 C   0  0  0  0  0  0  0  0  0  0  0  0
    5.9064   -5.6704    0.0000 C   0  0  0  0  0  0  0  0  0  0  0  0
    5.9006   -4.8449    0.0000 C   0  0  0  0  0  0  0  0  0  0  0  0
    5.1874   -4.4428    0.0000 C   0  0  0  0  0  0  0  0  0  0  0  0
    5.8822   -0.7432    0.0000 C   0  0  0  0  0  0  0  0  0  0  0  0
    6.5872   -0.3258    0.0000 N   0  0  0  0  0  0  0  0  0  0  0  0
  1  2  2  0
  2  3  1  0
  3  6  2  0
  5  4  2  0
  4  1  1  0
  5  6  1  0
  6  7  1  0
  7  8  2  0
  8  9  1  0
  9 10  2  0
 10  5  1  0
 10 11  1  0
 11 12  1  0
 12 13  2  0
 13 14  1  0
 14 15  2  0
 15 16  1  0
 16 17  2  0
 17 12  1  0
 18 19  2  0
 19 20  1  0
 20 21  2  0
 21 22  1  0
 22 23  2  0
 23 18  1  0
  8 18  1  0
 24 25  3  0
 15 24  1  0
M  END
>  <Classification>  (687) 
1

>  <pchembl>  (687) 
6.07

>  <InChI_steorem>  (687) 
InChI=1S/C22H15N3/c23-15-16-10-12-18(13-11-16)24-22-14-21(17-6-2-1-3-7-17)25-20-9-5-4-8-19(20)22/h1-14H,(H,24,25)

>  <source>  (687) 
ChEMBL28

>  <source_id>  (687) 
28

>  <optional_reference>  (687) 
10.1021/acs.jmedchem.6b00330

>  <optional_origin>  (687) 
None

>  <target>  (687) 
BCRP

$$$$

     RDKit          2D

 25 28  0  0  0  0  0  0  0  0999 V2000
   10.2382   -5.0104    0.0000 C   0  0  0  0  0  0  0  0  0  0  0  0
   10.2371   -5.8300    0.0000 C   0  0  0  0  0  0  0  0  0  0  0  0
   10.9451   -6.2389    0.0000 C   0  0  0  0  0  0  0  0  0  0  0  0
   10.9433   -4.6016    0.0000 C   0  0  0  0  0  0  0  0  0  0  0  0
   11.6520   -5.0068    0.0000 C   0  0  0  0  0  0  0  0  0  0  0  0
   11.6527   -5.8258    0.0000 C   0  0  0  0  0  0  0  0  0  0  0  0
   12.3613   -6.2329    0.0000 N   0  0  0  0  0  0  0  0  0  0  0  0
   13.0695   -5.8221    0.0000 C   0  0  0  0  0  0  0  0  0  0  0  0
   13.0648   -4.9999    0.0000 N   0  0  0  0  0  0  0  0  0  0  0  0
   12.3557   -4.5966    0.0000 C   0  0  0  0  0  0  0  0  0  0  0  0
   13.7830   -6.2251    0.0000 C   0  0  0  0  0  0  0  0  0  0  0  0
   13.8716   -7.0374    0.0000 C   0  0  0  0  0  0  0  0  0  0  0  0
   14.6716   -7.2042    0.0000 C   0  0  0  0  0  0  0  0  0  0  0  0
   15.0774   -6.4949    0.0000 C   0  0  0  0  0  0  0  0  0  0  0  0
   14.5282   -5.8898    0.0000 S   0  0  0  0  0  0  0  0  0  0  0  0
   12.3513   -3.7794    0.0000 N   0  0  0  0  0  0  0  0  0  0  0  0
   13.0569   -3.3671    0.0000 C   0  0  0  0  0  0  0  0  0  0  0  0
   13.7622   -3.7753    0.0000 C   0  0  0  0  0  0  0  0  0  0  0  0
   14.4672   -3.3636    0.0000 C   0  0  0  0  0  0  0  0  0  0  0  0
   14.4633   -2.5456    0.0000 C   0  0  0  0  0  0  0  0  0  0  0  0
   13.7485   -2.1409    0.0000 C   0  0  0  0  0  0  0  0  0  0  0  0
   13.0464   -2.5549    0.0000 C   0  0  0  0  0  0  0  0  0  0  0  0
   15.1712   -2.1314    0.0000 N   0  0  0  0  0  0  0  0  0  0  0  0
   15.1658   -1.3143    0.0000 O   0  0  0  0  0  0  0  0  0  0  0  0
   15.8816   -2.5353    0.0000 O   0  0  0  0  0  0  0  0  0  0  0  0
  1  2  2  0
  2  3  1  0
  3  6  2  0
  5  4  2  0
  4  1  1  0
  5  6  1  0
  6  7  1  0
  7  8  2  0
  8  9  1  0
  9 10  2  0
 10  5  1  0
 11 12  2  0
 12 13  1  0
 13 14  2  0
 14 15  1  0
 15 11  1  0
  8 11  1  0
 10 16  1  0
 16 17  1  0
 17 18  2  0
 18 19  1  0
 19 20  2  0
 20 21  1  0
 21 22  2  0
 22 17  1  0
 23 24  2  0
 23 25  1  0
 20 23  1  0
M  CHG  2  23   1  25  -1
M  END
>  <Classification>  (688) 
1

>  <pchembl>  (688) 
6.47

>  <InChI_steorem>  (688) 
InChI=1S/C18H12N4O2S/c23-22(24)13-9-7-12(8-10-13)19-17-14-4-1-2-5-15(14)20-18(21-17)16-6-3-11-25-16/h1-11H,(H,19,20,21)

>  <source>  (688) 
ChEMBL28

>  <source_id>  (688) 
28

>  <optional_reference>  (688) 
10.1016/j.ejmech.2018.10.026

>  <optional_origin>  (688) 
None

>  <target>  (688) 
BCRP

$$$$

     RDKit          2D

 25 28  0  0  0  0  0  0  0  0999 V2000
   17.9603  -11.2343    0.0000 C   0  0  0  0  0  0  0  0  0  0  0  0
   17.9591  -12.0538    0.0000 C   0  0  0  0  0  0  0  0  0  0  0  0
   18.6672  -12.4628    0.0000 C   0  0  0  0  0  0  0  0  0  0  0  0
   18.6654  -10.8254    0.0000 C   0  0  0  0  0  0  0  0  0  0  0  0
   19.3740  -11.2307    0.0000 C   0  0  0  0  0  0  0  0  0  0  0  0
   19.3748  -12.0497    0.0000 C   0  0  0  0  0  0  0  0  0  0  0  0
   20.0833  -12.4568    0.0000 N   0  0  0  0  0  0  0  0  0  0  0  0
   20.7916  -12.0459    0.0000 C   0  0  0  0  0  0  0  0  0  0  0  0
   20.7868  -11.2238    0.0000 N   0  0  0  0  0  0  0  0  0  0  0  0
   20.0777  -10.8204    0.0000 C   0  0  0  0  0  0  0  0  0  0  0  0
   20.0734  -10.0033    0.0000 N   0  0  0  0  0  0  0  0  0  0  0  0
   20.7789   -9.5909    0.0000 C   0  0  0  0  0  0  0  0  0  0  0  0
   21.4842   -9.9991    0.0000 C   0  0  0  0  0  0  0  0  0  0  0  0
   22.1893   -9.5875    0.0000 C   0  0  0  0  0  0  0  0  0  0  0  0
   22.1854   -8.7694    0.0000 C   0  0  0  0  0  0  0  0  0  0  0  0
   21.4705   -8.3648    0.0000 C   0  0  0  0  0  0  0  0  0  0  0  0
   20.7684   -8.7788    0.0000 C   0  0  0  0  0  0  0  0  0  0  0  0
   21.4973  -12.4477    0.0000 C   0  0  0  0  0  0  0  0  0  0  0  0
   21.4991  -13.2660    0.0000 C   0  0  0  0  0  0  0  0  0  0  0  0
   22.2076  -13.6718    0.0000 C   0  0  0  0  0  0  0  0  0  0  0  0
   22.9147  -13.2604    0.0000 C   0  0  0  0  0  0  0  0  0  0  0  0
   22.9089  -12.4390    0.0000 C   0  0  0  0  0  0  0  0  0  0  0  0
   22.1999  -12.0369    0.0000 C   0  0  0  0  0  0  0  0  0  0  0  0
   22.8989   -9.9927    0.0000 S   0  0  0  0  0  0  0  0  0  0  0  0
   22.9029  -10.8098    0.0000 C   0  0  0  0  0  0  0  0  0  0  0  0
  1  2  2  0
  2  3  1  0
  3  6  2  0
  5  4  2  0
  4  1  1  0
  5  6  1  0
  6  7  1  0
  7  8  2  0
  8  9  1  0
  9 10  2  0
 10  5  1  0
 10 11  1  0
 11 12  1  0
 12 13  2  0
 13 14  1  0
 14 15  2  0
 15 16  1  0
 16 17  2  0
 17 12  1  0
 18 19  2  0
 19 20  1  0
 20 21  2  0
 21 22  1  0
 22 23  2  0
 23 18  1  0
  8 18  1  0
 14 24  1  0
 24 25  1  0
M  END
>  <Classification>  (689) 
1

>  <pchembl>  (689) 
5.92

>  <InChI_steorem>  (689) 
InChI=1S/C21H17N3S/c1-25-17-11-7-10-16(14-17)22-21-18-12-5-6-13-19(18)23-20(24-21)15-8-3-2-4-9-15/h2-14H,1H3,(H,22,23,24)

>  <source>  (689) 
ChEMBL28

>  <source_id>  (689) 
28

>  <optional_reference>  (689) 
10.1021/acs.jmedchem.6b00330

>  <optional_origin>  (689) 
None

>  <target>  (689) 
BCRP

$$$$

     RDKit          2D

 25 28  0  0  0  0  0  0  0  0999 V2000
    1.8022   -3.7186    0.0000 C   0  0  0  0  0  0  0  0  0  0  0  0
    1.8010   -4.5381    0.0000 C   0  0  0  0  0  0  0  0  0  0  0  0
    2.5091   -4.9471    0.0000 C   0  0  0  0  0  0  0  0  0  0  0  0
    2.5073   -3.3097    0.0000 C   0  0  0  0  0  0  0  0  0  0  0  0
    3.2159   -3.7150    0.0000 C   0  0  0  0  0  0  0  0  0  0  0  0
    3.2162   -4.5382    0.0000 C   0  0  0  0  0  0  0  0  0  0  0  0
    3.9991   -4.7923    0.0000 N   0  0  0  0  0  0  0  0  0  0  0  0
    3.9987   -3.4604    0.0000 C   0  0  0  0  0  0  0  0  0  0  0  0
    4.4829   -4.1276    0.0000 C   0  0  0  0  0  0  0  0  0  0  0  0
    5.2982   -4.0423    0.0000 C   0  0  0  0  0  0  0  0  0  0  0  0
    5.6357   -3.2909    0.0000 N   0  0  0  0  0  0  0  0  0  0  0  0
    5.1515   -2.6238    0.0000 C   0  0  0  0  0  0  0  0  0  0  0  0
    4.3298   -2.7081    0.0000 C   0  0  0  0  0  0  0  0  0  0  0  0
    6.4486   -3.2070    0.0000 C   0  0  0  0  0  0  0  0  0  0  0  0
    6.9276   -3.8690    0.0000 O   0  0  0  0  0  0  0  0  0  0  0  0
    6.7823   -2.4611    0.0000 C   0  0  0  0  0  0  0  0  0  0  0  0
    7.5954   -2.3812    0.0000 C   0  0  0  0  0  0  0  0  0  0  0  0
    7.9292   -1.6361    0.0000 C   0  0  0  0  0  0  0  0  0  0  0  0
    7.4500   -0.9732    0.0000 C   0  0  0  0  0  0  0  0  0  0  0  0
    6.6332   -1.0601    0.0000 C   0  0  0  0  0  0  0  0  0  0  0  0
    6.3031   -1.8054    0.0000 C   0  0  0  0  0  0  0  0  0  0  0  0
    5.7773   -4.7043    0.0000 C   0  0  0  0  0  0  0  0  0  0  0  0
    5.4435   -5.4502    0.0000 C   0  0  0  0  0  0  0  0  0  0  0  0
    5.9226   -6.1122    0.0000 C   0  0  0  0  0  0  0  0  0  0  0  0
    4.6307   -5.5341    0.0000 C   0  0  0  0  0  0  0  0  0  0  0  0
  1  2  2  0
  2  3  1  0
  3  6  2  0
  5  4  2  0
  4  1  1  0
  5  6  1  0
  6  7  1  0
  7  9  1  0
  8  5  1  0
  8  9  2  0
  8 13  1  0
  9 10  1  0
 10 11  1  0
 11 12  1  0
 12 13  1  0
 11 14  1  0
 14 15  2  0
 14 16  1  0
 16 17  2  0
 17 18  1  0
 18 19  2  0
 19 20  1  0
 20 21  2  0
 21 16  1  0
 10 22  1  0
 22 23  1  0
 23 24  1  0
 23 25  1  0
M  END
>  <Classification>  (690) 
1

>  <pchembl>  (690) 
5.63

>  <InChI_steorem>  (690) 
InChI=1S/C22H24N2O/c1-15(2)14-20-21-18(17-10-6-7-11-19(17)23-21)12-13-24(20)22(25)16-8-4-3-5-9-16/h3-11,15,20,23H,12-14H2,1-2H3

>  <source>  (690) 
ChEMBL28

>  <source_id>  (690) 
28

>  <optional_reference>  (690) 
10.1021/acs.jmedchem.6b00035

>  <optional_origin>  (690) 
None

>  <target>  (690) 
BCRP

$$$$

     RDKit          2D

 25 28  0  0  0  0  0  0  0  0999 V2000
   18.5133  -11.2219    0.0000 C   0  0  0  0  0  0  0  0  0  0  0  0
   18.5122  -12.0414    0.0000 C   0  0  0  0  0  0  0  0  0  0  0  0
   19.2202  -12.4504    0.0000 C   0  0  0  0  0  0  0  0  0  0  0  0
   19.2184  -10.8130    0.0000 C   0  0  0  0  0  0  0  0  0  0  0  0
   19.9271  -11.2183    0.0000 C   0  0  0  0  0  0  0  0  0  0  0  0
   19.9278  -12.0373    0.0000 C   0  0  0  0  0  0  0  0  0  0  0  0
   20.6364  -12.4444    0.0000 N   0  0  0  0  0  0  0  0  0  0  0  0
   21.3446  -12.0336    0.0000 C   0  0  0  0  0  0  0  0  0  0  0  0
   21.3399  -11.2114    0.0000 N   0  0  0  0  0  0  0  0  0  0  0  0
   20.6308  -10.8081    0.0000 C   0  0  0  0  0  0  0  0  0  0  0  0
   20.6264   -9.9909    0.0000 N   0  0  0  0  0  0  0  0  0  0  0  0
   21.3320   -9.5785    0.0000 C   0  0  0  0  0  0  0  0  0  0  0  0
   22.0373   -9.9868    0.0000 C   0  0  0  0  0  0  0  0  0  0  0  0
   22.7423   -9.5751    0.0000 C   0  0  0  0  0  0  0  0  0  0  0  0
   22.7384   -8.7570    0.0000 C   0  0  0  0  0  0  0  0  0  0  0  0
   22.0236   -8.3524    0.0000 C   0  0  0  0  0  0  0  0  0  0  0  0
   21.3215   -8.7664    0.0000 C   0  0  0  0  0  0  0  0  0  0  0  0
   22.0504  -12.4353    0.0000 C   0  0  0  0  0  0  0  0  0  0  0  0
   22.0522  -13.2536    0.0000 C   0  0  0  0  0  0  0  0  0  0  0  0
   22.7607  -13.6594    0.0000 C   0  0  0  0  0  0  0  0  0  0  0  0
   23.4677  -13.2480    0.0000 C   0  0  0  0  0  0  0  0  0  0  0  0
   23.4619  -12.4266    0.0000 C   0  0  0  0  0  0  0  0  0  0  0  0
   22.7529  -12.0245    0.0000 C   0  0  0  0  0  0  0  0  0  0  0  0
   23.4520   -9.9803    0.0000 C   0  0  0  0  0  0  0  0  0  0  0  0
   24.1567  -10.3882    0.0000 C   0  0  0  0  0  0  0  0  0  0  0  0
  1  2  2  0
  2  3  1  0
  3  6  2  0
  5  4  2  0
  4  1  1  0
  5  6  1  0
  6  7  1  0
  7  8  2  0
  8  9  1  0
  9 10  2  0
 10  5  1  0
 10 11  1  0
 11 12  1  0
 12 13  2  0
 13 14  1  0
 14 15  2  0
 15 16  1  0
 16 17  2  0
 17 12  1  0
 18 19  2  0
 19 20  1  0
 20 21  2  0
 21 22  1  0
 22 23  2  0
 23 18  1  0
  8 18  1  0
 14 24  1  0
 24 25  3  0
M  END
>  <Classification>  (691) 
1

>  <pchembl>  (691) 
6.17

>  <InChI_steorem>  (691) 
InChI=1S/C22H15N3/c1-2-16-9-8-12-18(15-16)23-22-19-13-6-7-14-20(19)24-21(25-22)17-10-4-3-5-11-17/h1,3-15H,(H,23,24,25)

>  <source>  (691) 
ChEMBL28

>  <source_id>  (691) 
28

>  <optional_reference>  (691) 
10.1021/acs.jmedchem.6b00330

>  <optional_origin>  (691) 
None

>  <target>  (691) 
BCRP

$$$$

     RDKit          2D

 25 28  0  0  0  0  0  0  0  0999 V2000
   20.4573  -26.4184    0.0000 C   0  0  0  0  0  0  0  0  0  0  0  0
   20.4561  -27.2379    0.0000 C   0  0  0  0  0  0  0  0  0  0  0  0
   21.1642  -27.6469    0.0000 C   0  0  0  0  0  0  0  0  0  0  0  0
   21.1624  -26.0095    0.0000 C   0  0  0  0  0  0  0  0  0  0  0  0
   21.8710  -26.4148    0.0000 C   0  0  0  0  0  0  0  0  0  0  0  0
   21.8717  -27.2338    0.0000 C   0  0  0  0  0  0  0  0  0  0  0  0
   22.5803  -27.6408    0.0000 N   0  0  0  0  0  0  0  0  0  0  0  0
   23.2885  -27.2300    0.0000 C   0  0  0  0  0  0  0  0  0  0  0  0
   23.2838  -26.4079    0.0000 N   0  0  0  0  0  0  0  0  0  0  0  0
   22.5747  -26.0045    0.0000 C   0  0  0  0  0  0  0  0  0  0  0  0
   24.0020  -27.6330    0.0000 C   0  0  0  0  0  0  0  0  0  0  0  0
   22.5704  -25.1873    0.0000 S   0  0  0  0  0  0  0  0  0  0  0  0
   23.2759  -24.7750    0.0000 C   0  0  0  0  0  0  0  0  0  0  0  0
   23.9812  -25.1832    0.0000 C   0  0  0  0  0  0  0  0  0  0  0  0
   24.6862  -24.7716    0.0000 C   0  0  0  0  0  0  0  0  0  0  0  0
   24.6823  -23.9535    0.0000 C   0  0  0  0  0  0  0  0  0  0  0  0
   23.9675  -23.5489    0.0000 C   0  0  0  0  0  0  0  0  0  0  0  0
   23.2654  -23.9628    0.0000 C   0  0  0  0  0  0  0  0  0  0  0  0
   24.0048  -28.4523    0.0000 C   0  0  0  0  0  0  0  0  0  0  0  0
   24.7174  -28.8552    0.0000 C   0  0  0  0  0  0  0  0  0  0  0  0
   25.4241  -28.4388    0.0000 C   0  0  0  0  0  0  0  0  0  0  0  0
   25.4137  -27.6152    0.0000 C   0  0  0  0  0  0  0  0  0  0  0  0
   24.7006  -27.2160    0.0000 C   0  0  0  0  0  0  0  0  0  0  0  0
   25.3959  -25.1767    0.0000 O   0  0  0  0  0  0  0  0  0  0  0  0
   25.3998  -25.9939    0.0000 C   0  0  0  0  0  0  0  0  0  0  0  0
  1  2  2  0
  2  3  1  0
  3  6  2  0
  5  4  2  0
  4  1  1  0
  5  6  1  0
  6  7  1  0
  7  8  2  0
  8  9  1  0
  9 10  2  0
 10  5  1  0
  8 11  1  0
 10 12  1  0
 12 13  1  0
 13 14  2  0
 14 15  1  0
 15 16  2  0
 16 17  1  0
 17 18  2  0
 18 13  1  0
 11 19  2  0
 19 20  1  0
 20 21  2  0
 21 22  1  0
 22 23  2  0
 23 11  1  0
 15 24  1  0
 24 25  1  0
M  END
>  <Classification>  (692) 
1

>  <pchembl>  (692) 
5.13

>  <InChI_steorem>  (692) 
InChI=1S/C21H16N2OS/c1-24-16-10-7-11-17(14-16)25-21-18-12-5-6-13-19(18)22-20(23-21)15-8-3-2-4-9-15/h2-14H,1H3

>  <source>  (692) 
ChEMBL28

>  <source_id>  (692) 
28

>  <optional_reference>  (692) 
10.1016/j.ejmech.2018.10.026

>  <optional_origin>  (692) 
None

>  <target>  (692) 
BCRP

$$$$

     RDKit          2D

 25 28  0  0  0  0  0  0  0  0999 V2000
    2.1984   -4.7628    0.0000 C   0  0  0  0  0  0  0  0  0  0  0  0
    2.1973   -5.5823    0.0000 C   0  0  0  0  0  0  0  0  0  0  0  0
    2.9053   -5.9913    0.0000 C   0  0  0  0  0  0  0  0  0  0  0  0
    2.9035   -4.3539    0.0000 C   0  0  0  0  0  0  0  0  0  0  0  0
    3.6121   -4.7592    0.0000 C   0  0  0  0  0  0  0  0  0  0  0  0
    3.6129   -5.5782    0.0000 C   0  0  0  0  0  0  0  0  0  0  0  0
    4.3214   -5.9853    0.0000 N   0  0  0  0  0  0  0  0  0  0  0  0
    5.0297   -5.5744    0.0000 C   0  0  0  0  0  0  0  0  0  0  0  0
    5.0249   -4.7523    0.0000 N   0  0  0  0  0  0  0  0  0  0  0  0
    4.3158   -4.3490    0.0000 C   0  0  0  0  0  0  0  0  0  0  0  0
    5.7431   -5.9774    0.0000 C   0  0  0  0  0  0  0  0  0  0  0  0
    5.8317   -6.7898    0.0000 C   0  0  0  0  0  0  0  0  0  0  0  0
    6.6317   -6.9566    0.0000 C   0  0  0  0  0  0  0  0  0  0  0  0
    7.0376   -6.2473    0.0000 C   0  0  0  0  0  0  0  0  0  0  0  0
    6.4884   -5.6422    0.0000 S   0  0  0  0  0  0  0  0  0  0  0  0
    4.3115   -3.5318    0.0000 N   0  0  0  0  0  0  0  0  0  0  0  0
    5.0170   -3.1194    0.0000 C   0  0  0  0  0  0  0  0  0  0  0  0
    5.7223   -3.5276    0.0000 C   0  0  0  0  0  0  0  0  0  0  0  0
    6.4274   -3.1160    0.0000 C   0  0  0  0  0  0  0  0  0  0  0  0
    6.4235   -2.2979    0.0000 C   0  0  0  0  0  0  0  0  0  0  0  0
    5.7086   -1.8933    0.0000 C   0  0  0  0  0  0  0  0  0  0  0  0
    5.0065   -2.3073    0.0000 C   0  0  0  0  0  0  0  0  0  0  0  0
    7.1384   -3.5212    0.0000 N   0  0  0  0  0  0  0  0  0  0  0  0
    7.8442   -3.1092    0.0000 O   0  0  0  0  0  0  0  0  0  0  0  0
    7.1424   -4.3384    0.0000 O   0  0  0  0  0  0  0  0  0  0  0  0
  1  2  2  0
  2  3  1  0
  3  6  2  0
  5  4  2  0
  4  1  1  0
  5  6  1  0
  6  7  1  0
  7  8  2  0
  8  9  1  0
  9 10  2  0
 10  5  1  0
 11 12  2  0
 12 13  1  0
 13 14  2  0
 14 15  1  0
 15 11  1  0
  8 11  1  0
 10 16  1  0
 16 17  1  0
 17 18  2  0
 18 19  1  0
 19 20  2  0
 20 21  1  0
 21 22  2  0
 22 17  1  0
 23 24  2  0
 23 25  1  0
 19 23  1  0
M  CHG  2  23   1  25  -1
M  END
>  <Classification>  (693) 
1

>  <pchembl>  (693) 
6.52

>  <InChI_steorem>  (693) 
InChI=1S/C18H12N4O2S/c23-22(24)13-6-3-5-12(11-13)19-17-14-7-1-2-8-15(14)20-18(21-17)16-9-4-10-25-16/h1-11H,(H,19,20,21)

>  <source>  (693) 
ChEMBL28

>  <source_id>  (693) 
28

>  <optional_reference>  (693) 
10.1016/j.ejmech.2018.10.026

>  <optional_origin>  (693) 
None

>  <target>  (693) 
BCRP

$$$$

     RDKit          2D

 25 28  0  0  0  0  0  0  0  0999 V2000
   33.3714   -3.5122    0.0000 C   0  0  0  0  0  0  0  0  0  0  0  0
   33.3702   -4.3318    0.0000 C   0  0  0  0  0  0  0  0  0  0  0  0
   34.0783   -4.7407    0.0000 C   0  0  0  0  0  0  0  0  0  0  0  0
   34.0765   -3.1034    0.0000 C   0  0  0  0  0  0  0  0  0  0  0  0
   34.7851   -3.5086    0.0000 C   0  0  0  0  0  0  0  0  0  0  0  0
   34.7858   -4.3276    0.0000 C   0  0  0  0  0  0  0  0  0  0  0  0
   35.4944   -4.7347    0.0000 N   0  0  0  0  0  0  0  0  0  0  0  0
   36.2026   -4.3239    0.0000 C   0  0  0  0  0  0  0  0  0  0  0  0
   36.1979   -3.5018    0.0000 C   0  0  0  0  0  0  0  0  0  0  0  0
   35.4888   -3.0984    0.0000 C   0  0  0  0  0  0  0  0  0  0  0  0
   35.4845   -2.2812    0.0000 N   0  0  0  0  0  0  0  0  0  0  0  0
   36.1900   -1.8689    0.0000 C   0  0  0  0  0  0  0  0  0  0  0  0
   36.8953   -2.2771    0.0000 C   0  0  0  0  0  0  0  0  0  0  0  0
   37.6003   -1.8654    0.0000 C   0  0  0  0  0  0  0  0  0  0  0  0
   37.5964   -1.0474    0.0000 C   0  0  0  0  0  0  0  0  0  0  0  0
   36.8816   -0.6427    0.0000 C   0  0  0  0  0  0  0  0  0  0  0  0
   36.1795   -1.0567    0.0000 C   0  0  0  0  0  0  0  0  0  0  0  0
   36.9084   -4.7257    0.0000 C   0  0  0  0  0  0  0  0  0  0  0  0
   36.9102   -5.5440    0.0000 C   0  0  0  0  0  0  0  0  0  0  0  0
   37.6187   -5.9497    0.0000 C   0  0  0  0  0  0  0  0  0  0  0  0
   38.3258   -5.5383    0.0000 C   0  0  0  0  0  0  0  0  0  0  0  0
   38.3200   -4.7169    0.0000 C   0  0  0  0  0  0  0  0  0  0  0  0
   37.6109   -4.3149    0.0000 C   0  0  0  0  0  0  0  0  0  0  0  0
   38.3100   -2.2706    0.0000 O   0  0  0  0  0  0  0  0  0  0  0  0
   38.3139   -3.0878    0.0000 C   0  0  0  0  0  0  0  0  0  0  0  0
  1  2  2  0
  2  3  1  0
  3  6  2  0
  5  4  2  0
  4  1  1  0
  5  6  1  0
  6  7  1  0
  7  8  2  0
  8  9  1  0
  9 10  2  0
 10  5  1  0
 10 11  1  0
 11 12  1  0
 12 13  2  0
 13 14  1  0
 14 15  2  0
 15 16  1  0
 16 17  2  0
 17 12  1  0
 18 19  2  0
 19 20  1  0
 20 21  2  0
 21 22  1  0
 22 23  2  0
 23 18  1  0
  8 18  1  0
 14 24  1  0
 24 25  1  0
M  END
>  <Classification>  (694) 
1

>  <pchembl>  (694) 
6.02

>  <InChI_steorem>  (694) 
InChI=1S/C22H18N2O/c1-25-18-11-7-10-17(14-18)23-22-15-21(16-8-3-2-4-9-16)24-20-13-6-5-12-19(20)22/h2-15H,1H3,(H,23,24)

>  <source>  (694) 
ChEMBL28

>  <source_id>  (694) 
28

>  <optional_reference>  (694) 
10.1021/acs.jmedchem.6b00330

>  <optional_origin>  (694) 
None

>  <target>  (694) 
BCRP

$$$$

     RDKit          2D

 25 28  0  0  0  0  0  0  0  0999 V2000
   33.5901  -10.6565    0.0000 C   0  0  0  0  0  0  0  0  0  0  0  0
   33.5890  -11.4760    0.0000 C   0  0  0  0  0  0  0  0  0  0  0  0
   34.2970  -11.8850    0.0000 C   0  0  0  0  0  0  0  0  0  0  0  0
   34.2952  -10.2476    0.0000 C   0  0  0  0  0  0  0  0  0  0  0  0
   35.0038  -10.6529    0.0000 C   0  0  0  0  0  0  0  0  0  0  0  0
   35.0046  -11.4719    0.0000 C   0  0  0  0  0  0  0  0  0  0  0  0
   35.7131  -11.8789    0.0000 N   0  0  0  0  0  0  0  0  0  0  0  0
   36.4214  -11.4681    0.0000 C   0  0  0  0  0  0  0  0  0  0  0  0
   36.4166  -10.6460    0.0000 C   0  0  0  0  0  0  0  0  0  0  0  0
   35.7075  -10.2426    0.0000 C   0  0  0  0  0  0  0  0  0  0  0  0
   35.7032   -9.4255    0.0000 N   0  0  0  0  0  0  0  0  0  0  0  0
   36.4087   -9.0131    0.0000 C   0  0  0  0  0  0  0  0  0  0  0  0
   37.1140   -9.4213    0.0000 C   0  0  0  0  0  0  0  0  0  0  0  0
   37.8191   -9.0097    0.0000 C   0  0  0  0  0  0  0  0  0  0  0  0
   37.8152   -8.1916    0.0000 C   0  0  0  0  0  0  0  0  0  0  0  0
   37.1003   -7.7870    0.0000 C   0  0  0  0  0  0  0  0  0  0  0  0
   36.3982   -8.2010    0.0000 C   0  0  0  0  0  0  0  0  0  0  0  0
   37.1271  -11.8699    0.0000 C   0  0  0  0  0  0  0  0  0  0  0  0
   37.1290  -12.6882    0.0000 C   0  0  0  0  0  0  0  0  0  0  0  0
   37.8374  -13.0940    0.0000 C   0  0  0  0  0  0  0  0  0  0  0  0
   38.5445  -12.6826    0.0000 C   0  0  0  0  0  0  0  0  0  0  0  0
   38.5387  -11.8611    0.0000 C   0  0  0  0  0  0  0  0  0  0  0  0
   37.8297  -11.4591    0.0000 C   0  0  0  0  0  0  0  0  0  0  0  0
   38.5287   -9.4149    0.0000 S   0  0  0  0  0  0  0  0  0  0  0  0
   38.5327  -10.2320    0.0000 C   0  0  0  0  0  0  0  0  0  0  0  0
  1  2  2  0
  2  3  1  0
  3  6  2  0
  5  4  2  0
  4  1  1  0
  5  6  1  0
  6  7  1  0
  7  8  2  0
  8  9  1  0
  9 10  2  0
 10  5  1  0
 10 11  1  0
 11 12  1  0
 12 13  2  0
 13 14  1  0
 14 15  2  0
 15 16  1  0
 16 17  2  0
 17 12  1  0
 18 19  2  0
 19 20  1  0
 20 21  2  0
 21 22  1  0
 22 23  2  0
 23 18  1  0
  8 18  1  0
 14 24  1  0
 24 25  1  0
M  END
>  <Classification>  (695) 
1

>  <pchembl>  (695) 
5.72

>  <InChI_steorem>  (695) 
InChI=1S/C22H18N2S/c1-25-18-11-7-10-17(14-18)23-22-15-21(16-8-3-2-4-9-16)24-20-13-6-5-12-19(20)22/h2-15H,1H3,(H,23,24)

>  <source>  (695) 
ChEMBL28

>  <source_id>  (695) 
28

>  <optional_reference>  (695) 
10.1021/acs.jmedchem.6b00330

>  <optional_origin>  (695) 
None

>  <target>  (695) 
BCRP

$$$$

     RDKit          2D

 25 28  0  0  0  0  0  0  0  0999 V2000
   34.3041  -11.4035    0.0000 C   0  0  0  0  0  0  0  0  0  0  0  0
   34.3030  -12.2230    0.0000 C   0  0  0  0  0  0  0  0  0  0  0  0
   35.0110  -12.6320    0.0000 C   0  0  0  0  0  0  0  0  0  0  0  0
   35.0092  -10.9946    0.0000 C   0  0  0  0  0  0  0  0  0  0  0  0
   35.7178  -11.3999    0.0000 C   0  0  0  0  0  0  0  0  0  0  0  0
   35.7186  -12.2189    0.0000 C   0  0  0  0  0  0  0  0  0  0  0  0
   36.4271  -12.6260    0.0000 N   0  0  0  0  0  0  0  0  0  0  0  0
   37.1354  -12.2152    0.0000 C   0  0  0  0  0  0  0  0  0  0  0  0
   37.1307  -11.3930    0.0000 N   0  0  0  0  0  0  0  0  0  0  0  0
   36.4216  -10.9897    0.0000 C   0  0  0  0  0  0  0  0  0  0  0  0
   36.4172  -10.1725    0.0000 N   0  0  0  0  0  0  0  0  0  0  0  0
   37.1228   -9.7601    0.0000 C   0  0  0  0  0  0  0  0  0  0  0  0
   37.8280  -10.1684    0.0000 C   0  0  0  0  0  0  0  0  0  0  0  0
   38.5331   -9.7567    0.0000 C   0  0  0  0  0  0  0  0  0  0  0  0
   38.5292   -8.9386    0.0000 C   0  0  0  0  0  0  0  0  0  0  0  0
   37.8144   -8.5340    0.0000 C   0  0  0  0  0  0  0  0  0  0  0  0
   37.1122   -8.9480    0.0000 C   0  0  0  0  0  0  0  0  0  0  0  0
   37.8411  -12.6169    0.0000 C   0  0  0  0  0  0  0  0  0  0  0  0
   37.8430  -13.4352    0.0000 C   0  0  0  0  0  0  0  0  0  0  0  0
   38.5514  -13.8410    0.0000 C   0  0  0  0  0  0  0  0  0  0  0  0
   39.2585  -13.4296    0.0000 C   0  0  0  0  0  0  0  0  0  0  0  0
   39.2527  -12.6082    0.0000 C   0  0  0  0  0  0  0  0  0  0  0  0
   38.5437  -12.2061    0.0000 C   0  0  0  0  0  0  0  0  0  0  0  0
   39.2428  -10.1619    0.0000 C   0  0  0  0  0  0  0  0  0  0  0  0
   39.2342   -8.5254    0.0000 I   0  0  0  0  0  0  0  0  0  0  0  0
  1  2  2  0
  2  3  1  0
  3  6  2  0
  5  4  2  0
  4  1  1  0
  5  6  1  0
  6  7  1  0
  7  8  2  0
  8  9  1  0
  9 10  2  0
 10  5  1  0
 10 11  1  0
 11 12  1  0
 12 13  2  0
 13 14  1  0
 14 15  2  0
 15 16  1  0
 16 17  2  0
 17 12  1  0
 18 19  2  0
 19 20  1  0
 20 21  2  0
 21 22  1  0
 22 23  2  0
 23 18  1  0
  8 18  1  0
 14 24  1  0
 15 25  1  0
M  END
>  <Classification>  (696) 
1

>  <pchembl>  (696) 
5.84

>  <InChI_steorem>  (696) 
InChI=1S/C21H16IN3/c1-14-13-16(11-12-18(14)22)23-21-17-9-5-6-10-19(17)24-20(25-21)15-7-3-2-4-8-15/h2-13H,1H3,(H,23,24,25)

>  <source>  (696) 
ChEMBL28

>  <source_id>  (696) 
28

>  <optional_reference>  (696) 
10.1021/acs.jmedchem.6b00330

>  <optional_origin>  (696) 
None

>  <target>  (696) 
BCRP

$$$$

     RDKit          2D

 25 28  0  0  0  0  0  0  0  0999 V2000
   39.1619  -31.2555    0.0000 C   0  0  0  0  0  0  0  0  0  0  0  0
   39.1607  -32.0750    0.0000 C   0  0  0  0  0  0  0  0  0  0  0  0
   39.8688  -32.4840    0.0000 C   0  0  0  0  0  0  0  0  0  0  0  0
   39.8670  -30.8466    0.0000 C   0  0  0  0  0  0  0  0  0  0  0  0
   40.5756  -31.2519    0.0000 C   0  0  0  0  0  0  0  0  0  0  0  0
   40.5763  -32.0709    0.0000 C   0  0  0  0  0  0  0  0  0  0  0  0
   41.2849  -32.4779    0.0000 N   0  0  0  0  0  0  0  0  0  0  0  0
   41.9931  -32.0671    0.0000 C   0  0  0  0  0  0  0  0  0  0  0  0
   41.9884  -31.2450    0.0000 N   0  0  0  0  0  0  0  0  0  0  0  0
   41.2793  -30.8416    0.0000 C   0  0  0  0  0  0  0  0  0  0  0  0
   42.7066  -32.4701    0.0000 C   0  0  0  0  0  0  0  0  0  0  0  0
   41.2750  -30.0245    0.0000 N   0  0  0  0  0  0  0  0  0  0  0  0
   41.9805  -29.6121    0.0000 C   0  0  0  0  0  0  0  0  0  0  0  0
   42.6858  -30.0203    0.0000 C   0  0  0  0  0  0  0  0  0  0  0  0
   43.3908  -29.6087    0.0000 C   0  0  0  0  0  0  0  0  0  0  0  0
   43.3869  -28.7906    0.0000 C   0  0  0  0  0  0  0  0  0  0  0  0
   42.6721  -28.3860    0.0000 C   0  0  0  0  0  0  0  0  0  0  0  0
   41.9700  -28.8000    0.0000 C   0  0  0  0  0  0  0  0  0  0  0  0
   42.7094  -33.2894    0.0000 C   0  0  0  0  0  0  0  0  0  0  0  0
   43.4220  -33.6923    0.0000 C   0  0  0  0  0  0  0  0  0  0  0  0
   44.1287  -33.2759    0.0000 C   0  0  0  0  0  0  0  0  0  0  0  0
   44.1183  -32.4523    0.0000 C   0  0  0  0  0  0  0  0  0  0  0  0
   43.4052  -32.0531    0.0000 C   0  0  0  0  0  0  0  0  0  0  0  0
   40.5651  -29.6196    0.0000 C   0  0  0  0  0  0  0  0  0  0  0  0
   44.1005  -30.0138    0.0000 F   0  0  0  0  0  0  0  0  0  0  0  0
  1  2  2  0
  2  3  1  0
  3  6  2  0
  5  4  2  0
  4  1  1  0
  5  6  1  0
  6  7  1  0
  7  8  2  0
  8  9  1  0
  9 10  2  0
 10  5  1  0
  8 11  1  0
 10 12  1  0
 12 13  1  0
 13 14  2  0
 14 15  1  0
 15 16  2  0
 16 17  1  0
 17 18  2  0
 18 13  1  0
 11 19  2  0
 19 20  1  0
 20 21  2  0
 21 22  1  0
 22 23  2  0
 23 11  1  0
 12 24  1  0
 15 25  1  0
M  END
>  <Classification>  (697) 
1

>  <pchembl>  (697) 
5.4

>  <InChI_steorem>  (697) 
InChI=1S/C21H16FN3/c1-25(17-11-7-10-16(22)14-17)21-18-12-5-6-13-19(18)23-20(24-21)15-8-3-2-4-9-15/h2-14H,1H3

>  <source>  (697) 
ChEMBL28

>  <source_id>  (697) 
28

>  <optional_reference>  (697) 
10.1016/j.ejmech.2018.10.026

>  <optional_origin>  (697) 
None

>  <target>  (697) 
BCRP

$$$$

     RDKit          2D

 25 28  0  0  0  0  0  0  0  0999 V2000
    4.7792   -2.6292    0.0000 C   0  0  0  0  0  0  0  0  0  0  0  0
    5.4917   -2.2167    0.0000 N   0  0  0  0  0  0  0  0  0  0  0  0
    5.4917   -1.3875    0.0000 C   0  0  0  0  0  0  0  0  0  0  0  0
    4.7792   -3.4542    0.0000 N   0  0  0  0  0  0  0  0  0  0  0  0
    4.7792   -0.9792    0.0000 N   0  0  0  0  0  0  0  0  0  0  0  0
    4.0667   -2.2167    0.0000 C   0  0  0  0  0  0  0  0  0  0  0  0
    5.5792   -3.6667    0.0000 C   0  0  0  0  0  0  0  0  0  0  0  0
    4.0667   -1.3917    0.0000 C   0  0  0  0  0  0  0  0  0  0  0  0
    6.2042   -0.9667    0.0000 C   0  0  0  0  0  0  0  0  0  0  0  0
    6.2292   -3.1667    0.0000 O   0  0  0  0  0  0  0  0  0  0  0  0
    5.5667   -4.4917    0.0000 C   0  0  0  0  0  0  0  0  0  0  0  0
    3.3542   -2.6375    0.0000 C   0  0  0  0  0  0  0  0  0  0  0  0
    3.3542   -0.9792    0.0000 C   0  0  0  0  0  0  0  0  0  0  0  0
    6.1917   -0.1500    0.0000 C   0  0  0  0  0  0  0  0  0  0  0  0
    6.9167   -1.3792    0.0000 C   0  0  0  0  0  0  0  0  0  0  0  0
    6.2792   -4.9042    0.0000 C   0  0  0  0  0  0  0  0  0  0  0  0
    4.8542   -4.9000    0.0000 C   0  0  0  0  0  0  0  0  0  0  0  0
    2.6417   -2.2250    0.0000 C   0  0  0  0  0  0  0  0  0  0  0  0
    2.6417   -1.4000    0.0000 C   0  0  0  0  0  0  0  0  0  0  0  0
    4.8417   -5.7250    0.0000 C   0  0  0  0  0  0  0  0  0  0  0  0
    6.2792   -5.7292    0.0000 C   0  0  0  0  0  0  0  0  0  0  0  0
    7.6292   -0.9542    0.0000 C   0  0  0  0  0  0  0  0  0  0  0  0
    6.9042    0.2708    0.0000 C   0  0  0  0  0  0  0  0  0  0  0  0
    5.5542   -6.1417    0.0000 C   0  0  0  0  0  0  0  0  0  0  0  0
    7.6167   -0.1292    0.0000 C   0  0  0  0  0  0  0  0  0  0  0  0
  2  1  2  0
  3  2  1  0
  4  1  1  0
  5  8  1  0
  6  1  1  0
  7  4  1  0
  8  6  2  0
  9  3  1  0
 10  7  2  0
 11  7  1  0
 12  6  1  0
 13  8  1  0
 14  9  2  0
 15  9  1  0
 16 11  2  0
 17 11  1  0
 18 12  2  0
 19 18  1  0
 20 17  2  0
 21 16  1  0
 22 15  2  0
 23 14  1  0
 24 20  1  0
 25 22  1  0
  5  3  2  0
 19 13  2  0
 24 21  2  0
 25 23  2  0
M  END
>  <Classification>  (698) 
1

>  <pchembl>  (698) 
6.37

>  <InChI_steorem>  (698) 
InChI=1S/C21H15N3O/c25-21(16-11-5-2-6-12-16)24-20-17-13-7-8-14-18(17)22-19(23-20)15-9-3-1-4-10-15/h1-14H,(H,22,23,24,25)

>  <source>  (698) 
ChEMBL28

>  <source_id>  (698) 
28

>  <optional_reference>  (698) 
10.1016/j.ejmech.2018.10.026

>  <optional_origin>  (698) 
None

>  <target>  (698) 
BCRP

$$$$

     RDKit          2D

 26 28  0  0  0  0  0  0  0  0999 V2000
   28.5260   -7.0410    0.0000 C   0  0  0  0  0  0  0  0  0  0  0  0
   28.5248   -7.8606    0.0000 C   0  0  0  0  0  0  0  0  0  0  0  0
   29.2329   -8.2695    0.0000 C   0  0  0  0  0  0  0  0  0  0  0  0
   29.9425   -7.8601    0.0000 C   0  0  0  0  0  0  0  0  0  0  0  0
   29.9397   -7.0374    0.0000 C   0  0  0  0  0  0  0  0  0  0  0  0
   29.2311   -6.6322    0.0000 C   0  0  0  0  0  0  0  0  0  0  0  0
   30.6459   -6.6262    0.0000 C   0  0  0  0  0  0  0  0  0  0  0  0
   31.3551   -7.0321    0.0000 C   0  0  0  0  0  0  0  0  0  0  0  0
   30.6428   -5.8090    0.0000 O   0  0  0  0  0  0  0  0  0  0  0  0
   32.0613   -6.6208    0.0000 C   0  0  0  0  0  0  0  0  0  0  0  0
   32.7705   -7.0267    0.0000 C   0  0  0  0  0  0  0  0  0  0  0  0
   32.7705   -7.8428    0.0000 C   0  0  0  0  0  0  0  0  0  0  0  0
   33.4789   -8.2487    0.0000 C   0  0  0  0  0  0  0  0  0  0  0  0
   34.1861   -7.8373    0.0000 C   0  0  0  0  0  0  0  0  0  0  0  0
   34.1803   -7.0159    0.0000 C   0  0  0  0  0  0  0  0  0  0  0  0
   33.4714   -6.6138    0.0000 C   0  0  0  0  0  0  0  0  0  0  0  0
   27.8168   -8.2686    0.0000 O   0  0  0  0  0  0  0  0  0  0  0  0
   34.8959   -8.2423    0.0000 O   0  0  0  0  0  0  0  0  0  0  0  0
   34.9000   -9.0595    0.0000 C   0  0  0  0  0  0  0  0  0  0  0  0
   35.6098   -9.4645    0.0000 C   0  0  0  0  0  0  0  0  0  0  0  0
   35.6111  -10.2820    0.0000 C   0  0  0  0  0  0  0  0  0  0  0  0
   36.3201  -10.6869    0.0000 C   0  0  0  0  0  0  0  0  0  0  0  0
   37.0267  -10.2746    0.0000 C   0  0  0  0  0  0  0  0  0  0  0  0
   37.0199   -9.4533    0.0000 C   0  0  0  0  0  0  0  0  0  0  0  0
   36.3104   -9.0520    0.0000 C   0  0  0  0  0  0  0  0  0  0  0  0
   37.7370  -10.6787    0.0000 Cl  0  0  0  0  0  0  0  0  0  0  0  0
  1  2  2  0
  2  3  1  0
  3  4  2  0
  4  5  1  0
  5  6  2  0
  6  1  1  0
  5  7  1  0
  7  8  1  0
  7  9  2  0
  8 10  2  3
 10 11  1  0
 11 12  2  0
 12 13  1  0
 13 14  2  0
 14 15  1  0
 15 16  2  0
 16 11  1  0
  2 17  1  0
 14 18  1  0
 18 19  1  0
 19 20  1  0
 20 21  2  0
 21 22  1  0
 22 23  2  0
 23 24  1  0
 24 25  2  0
 25 20  1  0
 23 26  1  0
M  END
>  <Classification>  (699) 
0

>  <pchembl>  (699) 
4.7

>  <InChI_steorem>  (699) 
InChI=1S/C22H17ClO3/c23-19-8-1-17(2-9-19)15-26-21-12-3-16(4-13-21)5-14-22(25)18-6-10-20(24)11-7-18/h1-14,24H,15H2

>  <source>  (699) 
ChEMBL28

>  <source_id>  (699) 
28

>  <optional_reference>  (699) 
10.1016/j.ejmech.2018.12.019

>  <optional_origin>  (699) 
None

>  <target>  (699) 
BCRP

$$$$

     RDKit          2D

 26 29  0  0  0  0  0  0  0  0999 V2000
   25.8928   -4.8825    0.0000 C   0  0  0  0  0  0  0  0  0  0  0  0
   25.8917   -5.7020    0.0000 C   0  0  0  0  0  0  0  0  0  0  0  0
   26.5997   -6.1110    0.0000 C   0  0  0  0  0  0  0  0  0  0  0  0
   26.5979   -4.4736    0.0000 C   0  0  0  0  0  0  0  0  0  0  0  0
   27.3065   -4.8789    0.0000 C   0  0  0  0  0  0  0  0  0  0  0  0
   27.3073   -5.6979    0.0000 C   0  0  0  0  0  0  0  0  0  0  0  0
   28.0158   -6.1050    0.0000 N   0  0  0  0  0  0  0  0  0  0  0  0
   28.7241   -5.6941    0.0000 C   0  0  0  0  0  0  0  0  0  0  0  0
   28.7194   -4.8720    0.0000 N   0  0  0  0  0  0  0  0  0  0  0  0
   28.0103   -4.4686    0.0000 C   0  0  0  0  0  0  0  0  0  0  0  0
   29.4375   -6.0971    0.0000 C   0  0  0  0  0  0  0  0  0  0  0  0
   29.5261   -6.9095    0.0000 C   0  0  0  0  0  0  0  0  0  0  0  0
   30.3261   -7.0763    0.0000 C   0  0  0  0  0  0  0  0  0  0  0  0
   30.7320   -6.3669    0.0000 C   0  0  0  0  0  0  0  0  0  0  0  0
   30.1828   -5.7619    0.0000 S   0  0  0  0  0  0  0  0  0  0  0  0
   28.0059   -3.6515    0.0000 N   0  0  0  0  0  0  0  0  0  0  0  0
   28.7115   -3.2391    0.0000 C   0  0  0  0  0  0  0  0  0  0  0  0
   29.4167   -3.6473    0.0000 C   0  0  0  0  0  0  0  0  0  0  0  0
   30.1218   -3.2357    0.0000 C   0  0  0  0  0  0  0  0  0  0  0  0
   30.1179   -2.4176    0.0000 C   0  0  0  0  0  0  0  0  0  0  0  0
   29.4031   -2.0130    0.0000 C   0  0  0  0  0  0  0  0  0  0  0  0
   28.7009   -2.4270    0.0000 C   0  0  0  0  0  0  0  0  0  0  0  0
   30.8315   -3.6409    0.0000 O   0  0  0  0  0  0  0  0  0  0  0  0
   30.8229   -2.0043    0.0000 O   0  0  0  0  0  0  0  0  0  0  0  0
   31.5333   -2.4082    0.0000 C   0  0  0  0  0  0  0  0  0  0  0  0
   30.8354   -4.4580    0.0000 C   0  0  0  0  0  0  0  0  0  0  0  0
  1  2  2  0
  2  3  1  0
  3  6  2  0
  5  4  2  0
  4  1  1  0
  5  6  1  0
  6  7  1  0
  7  8  2  0
  8  9  1  0
  9 10  2  0
 10  5  1  0
 11 12  2  0
 12 13  1  0
 13 14  2  0
 14 15  1  0
 15 11  1  0
  8 11  1  0
 10 16  1  0
 16 17  1  0
 17 18  2  0
 18 19  1  0
 19 20  2  0
 20 21  1  0
 21 22  2  0
 22 17  1  0
 19 23  1  0
 20 24  1  0
 24 25  1  0
 23 26  1  0
M  END
>  <Classification>  (700) 
1

>  <pchembl>  (700) 
6.7

>  <InChI_steorem>  (700) 
InChI=1S/C20H17N3O2S/c1-24-16-10-9-13(12-17(16)25-2)21-19-14-6-3-4-7-15(14)22-20(23-19)18-8-5-11-26-18/h3-12H,1-2H3,(H,21,22,23)

>  <source>  (700) 
ChEMBL28

>  <source_id>  (700) 
28

>  <optional_reference>  (700) 
10.1016/j.ejmech.2018.10.026

>  <optional_origin>  (700) 
None

>  <target>  (700) 
BCRP

$$$$

     RDKit          2D

 26 29  0  0  0  0  0  0  0  0999 V2000
   26.1446  -12.1794    0.0000 C   0  0  0  0  0  0  0  0  0  0  0  0
   26.1434  -12.9990    0.0000 C   0  0  0  0  0  0  0  0  0  0  0  0
   26.8515  -13.4079    0.0000 C   0  0  0  0  0  0  0  0  0  0  0  0
   26.8497  -11.7706    0.0000 C   0  0  0  0  0  0  0  0  0  0  0  0
   27.5583  -12.1758    0.0000 C   0  0  0  0  0  0  0  0  0  0  0  0
   27.5591  -12.9948    0.0000 C   0  0  0  0  0  0  0  0  0  0  0  0
   28.2676  -13.4019    0.0000 N   0  0  0  0  0  0  0  0  0  0  0  0
   28.9759  -12.9911    0.0000 C   0  0  0  0  0  0  0  0  0  0  0  0
   28.9711  -12.1689    0.0000 N   0  0  0  0  0  0  0  0  0  0  0  0
   28.2620  -11.7656    0.0000 C   0  0  0  0  0  0  0  0  0  0  0  0
   29.6893  -13.3941    0.0000 C   0  0  0  0  0  0  0  0  0  0  0  0
   29.7779  -14.2064    0.0000 C   0  0  0  0  0  0  0  0  0  0  0  0
   30.5779  -14.3732    0.0000 C   0  0  0  0  0  0  0  0  0  0  0  0
   30.9838  -13.6639    0.0000 C   0  0  0  0  0  0  0  0  0  0  0  0
   30.4345  -13.0588    0.0000 N   0  0  0  0  0  0  0  0  0  0  0  0
   28.2577  -10.9484    0.0000 N   0  0  0  0  0  0  0  0  0  0  0  0
   28.9632  -10.5361    0.0000 C   0  0  0  0  0  0  0  0  0  0  0  0
   29.6685  -10.9443    0.0000 C   0  0  0  0  0  0  0  0  0  0  0  0
   30.3736  -10.5326    0.0000 C   0  0  0  0  0  0  0  0  0  0  0  0
   30.3697   -9.7146    0.0000 C   0  0  0  0  0  0  0  0  0  0  0  0
   29.6548   -9.3099    0.0000 C   0  0  0  0  0  0  0  0  0  0  0  0
   28.9527   -9.7239    0.0000 C   0  0  0  0  0  0  0  0  0  0  0  0
   31.0832  -10.9378    0.0000 O   0  0  0  0  0  0  0  0  0  0  0  0
   31.0746   -9.3013    0.0000 O   0  0  0  0  0  0  0  0  0  0  0  0
   31.7850   -9.7052    0.0000 C   0  0  0  0  0  0  0  0  0  0  0  0
   31.0872  -11.7550    0.0000 C   0  0  0  0  0  0  0  0  0  0  0  0
  1  2  2  0
  2  3  1  0
  3  6  2  0
  5  4  2  0
  4  1  1  0
  5  6  1  0
  6  7  1  0
  7  8  2  0
  8  9  1  0
  9 10  2  0
 10  5  1  0
 11 12  2  0
 12 13  1  0
 13 14  2  0
 14 15  1  0
 15 11  1  0
  8 11  1  0
 10 16  1  0
 16 17  1  0
 17 18  2  0
 18 19  1  0
 19 20  2  0
 20 21  1  0
 21 22  2  0
 22 17  1  0
 19 23  1  0
 20 24  1  0
 24 25  1  0
 23 26  1  0
M  END
>  <Classification>  (701) 
1

>  <pchembl>  (701) 
6.19

>  <InChI_steorem>  (701) 
InChI=1S/C20H18N4O2/c1-25-17-10-9-13(12-18(17)26-2)22-19-14-6-3-4-7-15(14)23-20(24-19)16-8-5-11-21-16/h3-12,21H,1-2H3,(H,22,23,24)

>  <source>  (701) 
ChEMBL28

>  <source_id>  (701) 
28

>  <optional_reference>  (701) 
10.1016/j.ejmech.2018.10.026

>  <optional_origin>  (701) 
None

>  <target>  (701) 
BCRP

$$$$

     RDKit          2D

 26 29  0  0  0  0  0  0  0  0999 V2000
   26.7306  -20.3059    0.0000 C   0  0  0  0  0  0  0  0  0  0  0  0
   26.7295  -21.1255    0.0000 C   0  0  0  0  0  0  0  0  0  0  0  0
   27.4375  -21.5344    0.0000 C   0  0  0  0  0  0  0  0  0  0  0  0
   27.4358  -19.8971    0.0000 C   0  0  0  0  0  0  0  0  0  0  0  0
   28.1444  -20.3023    0.0000 C   0  0  0  0  0  0  0  0  0  0  0  0
   28.1451  -21.1213    0.0000 C   0  0  0  0  0  0  0  0  0  0  0  0
   28.8537  -21.5284    0.0000 N   0  0  0  0  0  0  0  0  0  0  0  0
   29.5619  -21.1176    0.0000 C   0  0  0  0  0  0  0  0  0  0  0  0
   29.5572  -20.2955    0.0000 N   0  0  0  0  0  0  0  0  0  0  0  0
   28.8481  -19.8921    0.0000 C   0  0  0  0  0  0  0  0  0  0  0  0
   28.8438  -19.0749    0.0000 N   0  0  0  0  0  0  0  0  0  0  0  0
   29.5493  -18.6626    0.0000 C   0  0  0  0  0  0  0  0  0  0  0  0
   30.2546  -19.0708    0.0000 C   0  0  0  0  0  0  0  0  0  0  0  0
   30.9596  -18.6591    0.0000 C   0  0  0  0  0  0  0  0  0  0  0  0
   30.9557  -17.8411    0.0000 C   0  0  0  0  0  0  0  0  0  0  0  0
   30.2409  -17.4364    0.0000 C   0  0  0  0  0  0  0  0  0  0  0  0
   29.5388  -17.8504    0.0000 C   0  0  0  0  0  0  0  0  0  0  0  0
   30.2677  -21.5194    0.0000 C   0  0  0  0  0  0  0  0  0  0  0  0
   30.2695  -22.3376    0.0000 C   0  0  0  0  0  0  0  0  0  0  0  0
   30.9780  -22.7434    0.0000 C   0  0  0  0  0  0  0  0  0  0  0  0
   31.6851  -22.3320    0.0000 C   0  0  0  0  0  0  0  0  0  0  0  0
   31.6792  -21.5106    0.0000 C   0  0  0  0  0  0  0  0  0  0  0  0
   30.9702  -21.1085    0.0000 C   0  0  0  0  0  0  0  0  0  0  0  0
   31.6693  -19.0643    0.0000 F   0  0  0  0  0  0  0  0  0  0  0  0
   31.6607  -17.4278    0.0000 O   0  0  0  0  0  0  0  0  0  0  0  0
   32.3711  -17.8317    0.0000 C   0  0  0  0  0  0  0  0  0  0  0  0
  1  2  2  0
  2  3  1  0
  3  6  2  0
  5  4  2  0
  4  1  1  0
  5  6  1  0
  6  7  1  0
  7  8  2  0
  8  9  1  0
  9 10  2  0
 10  5  1  0
 10 11  1  0
 11 12  1  0
 12 13  2  0
 13 14  1  0
 14 15  2  0
 15 16  1  0
 16 17  2  0
 17 12  1  0
 18 19  2  0
 19 20  1  0
 20 21  2  0
 21 22  1  0
 22 23  2  0
 23 18  1  0
  8 18  1  0
 14 24  1  0
 15 25  1  0
 25 26  1  0
M  END
>  <Classification>  (702) 
1

>  <pchembl>  (702) 
6.06

>  <InChI_steorem>  (702) 
InChI=1S/C21H16FN3O/c1-26-19-12-11-15(13-17(19)22)23-21-16-9-5-6-10-18(16)24-20(25-21)14-7-3-2-4-8-14/h2-13H,1H3,(H,23,24,25)

>  <source>  (702) 
ChEMBL28

>  <source_id>  (702) 
28

>  <optional_reference>  (702) 
10.1021/acs.jmedchem.6b00330

>  <optional_origin>  (702) 
None

>  <target>  (702) 
BCRP

$$$$

     RDKit          2D

 26 29  0  0  0  0  0  0  0  0999 V2000
   34.1803   -3.0170    0.0000 C   0  0  0  0  0  0  0  0  0  0  0  0
   34.1791   -3.8365    0.0000 C   0  0  0  0  0  0  0  0  0  0  0  0
   34.8872   -4.2455    0.0000 C   0  0  0  0  0  0  0  0  0  0  0  0
   34.8854   -2.6081    0.0000 C   0  0  0  0  0  0  0  0  0  0  0  0
   35.5940   -3.0134    0.0000 C   0  0  0  0  0  0  0  0  0  0  0  0
   35.5948   -3.8324    0.0000 C   0  0  0  0  0  0  0  0  0  0  0  0
   36.3033   -4.2394    0.0000 N   0  0  0  0  0  0  0  0  0  0  0  0
   37.0116   -3.8286    0.0000 C   0  0  0  0  0  0  0  0  0  0  0  0
   37.0068   -3.0065    0.0000 N   0  0  0  0  0  0  0  0  0  0  0  0
   36.2977   -2.6031    0.0000 C   0  0  0  0  0  0  0  0  0  0  0  0
   36.2934   -1.7860    0.0000 N   0  0  0  0  0  0  0  0  0  0  0  0
   36.9989   -1.3736    0.0000 C   0  0  0  0  0  0  0  0  0  0  0  0
   37.7042   -1.7818    0.0000 C   0  0  0  0  0  0  0  0  0  0  0  0
   38.4093   -1.3702    0.0000 C   0  0  0  0  0  0  0  0  0  0  0  0
   38.4054   -0.5521    0.0000 C   0  0  0  0  0  0  0  0  0  0  0  0
   37.6905   -0.1475    0.0000 C   0  0  0  0  0  0  0  0  0  0  0  0
   36.9884   -0.5615    0.0000 C   0  0  0  0  0  0  0  0  0  0  0  0
   37.7173   -4.2304    0.0000 C   0  0  0  0  0  0  0  0  0  0  0  0
   37.7192   -5.0487    0.0000 C   0  0  0  0  0  0  0  0  0  0  0  0
   38.4276   -5.4545    0.0000 C   0  0  0  0  0  0  0  0  0  0  0  0
   39.1347   -5.0431    0.0000 C   0  0  0  0  0  0  0  0  0  0  0  0
   39.1289   -4.2216    0.0000 C   0  0  0  0  0  0  0  0  0  0  0  0
   38.4199   -3.8196    0.0000 C   0  0  0  0  0  0  0  0  0  0  0  0
   39.1189   -1.7754    0.0000 O   0  0  0  0  0  0  0  0  0  0  0  0
   39.1229   -2.5925    0.0000 C   0  0  0  0  0  0  0  0  0  0  0  0
   39.1104   -0.1388    0.0000 Br  0  0  0  0  0  0  0  0  0  0  0  0
  1  2  2  0
  2  3  1  0
  3  6  2  0
  5  4  2  0
  4  1  1  0
  5  6  1  0
  6  7  1  0
  7  8  2  0
  8  9  1  0
  9 10  2  0
 10  5  1  0
 10 11  1  0
 11 12  1  0
 12 13  2  0
 13 14  1  0
 14 15  2  0
 15 16  1  0
 16 17  2  0
 17 12  1  0
 18 19  2  0
 19 20  1  0
 20 21  2  0
 21 22  1  0
 22 23  2  0
 23 18  1  0
  8 18  1  0
 14 24  1  0
 24 25  1  0
 15 26  1  0
M  END
>  <Classification>  (703) 
1

>  <pchembl>  (703) 
6.54

>  <InChI_steorem>  (703) 
InChI=1S/C21H16BrN3O/c1-26-19-13-15(11-12-17(19)22)23-21-16-9-5-6-10-18(16)24-20(25-21)14-7-3-2-4-8-14/h2-13H,1H3,(H,23,24,25)

>  <source>  (703) 
ChEMBL28

>  <source_id>  (703) 
28

>  <optional_reference>  (703) 
10.1021/acs.jmedchem.6b00330

>  <optional_origin>  (703) 
None

>  <target>  (703) 
BCRP

$$$$

     RDKit          2D

 26 29  0  0  0  0  0  0  0  0999 V2000
   -3.8764    2.9156    0.0000 S   0  0  0  0  0  0  0  0  0  0  0  0
    1.9256   -0.3799    0.0000 O   0  0  0  0  0  0  0  0  0  0  0  0
   -3.0757    0.8576    0.0000 N   0  0  0  0  0  0  0  0  0  0  0  0
   -2.3612    2.0951    0.0000 N   0  0  0  0  0  0  0  0  0  0  0  0
   -2.3612   -0.3799    0.0000 N   0  0  0  0  0  0  0  0  0  0  0  0
    0.4967   -0.3799    0.0000 N   0  0  0  0  0  0  0  0  0  0  0  0
   -1.6468    0.8576    0.0000 C   0  0  0  0  0  0  0  0  0  0  0  0
   -2.3612    0.4451    0.0000 C   0  0  0  0  0  0  0  0  0  0  0  0
   -1.6468    1.6826    0.0000 C   0  0  0  0  0  0  0  0  0  0  0  0
   -3.0757    1.6826    0.0000 C   0  0  0  0  0  0  0  0  0  0  0  0
   -3.7902    2.0951    0.0000 C   0  0  0  0  0  0  0  0  0  0  0  0
   -0.9323    0.4451    0.0000 C   0  0  0  0  0  0  0  0  0  0  0  0
   -1.6468   -0.7924    0.0000 C   0  0  0  0  0  0  0  0  0  0  0  0
   -0.9323    2.0951    0.0000 C   0  0  0  0  0  0  0  0  0  0  0  0
   -4.5438    1.7595    0.0000 C   0  0  0  0  0  0  0  0  0  0  0  0
   -0.2178    0.8576    0.0000 C   0  0  0  0  0  0  0  0  0  0  0  0
   -0.2178    1.6826    0.0000 C   0  0  0  0  0  0  0  0  0  0  0  0
   -0.9323   -0.3799    0.0000 C   0  0  0  0  0  0  0  0  0  0  0  0
   -0.2178   -0.7924    0.0000 C   0  0  0  0  0  0  0  0  0  0  0  0
   -1.6468   -1.6174    0.0000 C   0  0  0  0  0  0  0  0  0  0  0  0
   -4.6834    3.0871    0.0000 C   0  0  0  0  0  0  0  0  0  0  0  0
   -5.0959    2.3726    0.0000 C   0  0  0  0  0  0  0  0  0  0  0  0
   -0.2178   -1.6174    0.0000 C   0  0  0  0  0  0  0  0  0  0  0  0
   -0.9323   -2.0299    0.0000 C   0  0  0  0  0  0  0  0  0  0  0  0
    1.2111   -0.7924    0.0000 C   0  0  0  0  0  0  0  0  0  0  0  0
    1.2111   -1.6174    0.0000 C   0  0  0  0  0  0  0  0  0  0  0  0
  1 11  1  0
  1 21  1  0
  2 25  2  0
  3  8  2  0
  3 10  1  0
  4  9  1  0
  4 10  2  0
  5  8  1  0
  5 13  1  0
  6 19  1  0
  6 25  1  0
  7  8  1  0
  7  9  2  0
  7 12  1  0
  9 14  1  0
 10 11  1  0
 11 15  2  0
 12 16  2  0
 13 18  2  0
 13 20  1  0
 14 17  2  0
 15 22  1  0
 16 17  1  0
 18 19  1  0
 19 23  2  0
 20 24  2  0
 21 22  2  0
 23 24  1  0
 25 26  1  0
M  END
>  <Classification>  (704) 
1

>  <pchembl>  (704) 
6.44

>  <InChI_steorem>  (704) 
InChI=1S/C20H16N4OS/c1-13(25)21-14-6-4-7-15(12-14)22-19-16-8-2-3-9-17(16)23-20(24-19)18-10-5-11-26-18/h2-12H,1H3,(H,21,25)(H,22,23,24)

>  <source>  (704) 
ChEMBL28

>  <source_id>  (704) 
28

>  <optional_reference>  (704) 
10.1016/j.ejmech.2018.10.026

>  <optional_origin>  (704) 
None

>  <target>  (704) 
BCRP

$$$$

     RDKit          2D

 26 29  0  0  0  0  0  0  0  0999 V2000
   41.1966  -25.9024    0.0000 C   0  0  0  0  0  0  0  0  0  0  0  0
   41.1954  -26.7220    0.0000 C   0  0  0  0  0  0  0  0  0  0  0  0
   41.9035  -27.1309    0.0000 C   0  0  0  0  0  0  0  0  0  0  0  0
   41.9017  -25.4936    0.0000 C   0  0  0  0  0  0  0  0  0  0  0  0
   42.6103  -25.8988    0.0000 C   0  0  0  0  0  0  0  0  0  0  0  0
   42.6111  -26.7179    0.0000 C   0  0  0  0  0  0  0  0  0  0  0  0
   43.3196  -27.1249    0.0000 N   0  0  0  0  0  0  0  0  0  0  0  0
   44.0279  -26.7141    0.0000 C   0  0  0  0  0  0  0  0  0  0  0  0
   44.0231  -25.8920    0.0000 N   0  0  0  0  0  0  0  0  0  0  0  0
   43.3140  -25.4886    0.0000 C   0  0  0  0  0  0  0  0  0  0  0  0
   44.7413  -27.1171    0.0000 C   0  0  0  0  0  0  0  0  0  0  0  0
   43.3097  -24.6714    0.0000 N   0  0  0  0  0  0  0  0  0  0  0  0
   44.0152  -24.2591    0.0000 C   0  0  0  0  0  0  0  0  0  0  0  0
   44.7205  -24.6673    0.0000 C   0  0  0  0  0  0  0  0  0  0  0  0
   45.4256  -24.2557    0.0000 C   0  0  0  0  0  0  0  0  0  0  0  0
   45.4217  -23.4376    0.0000 C   0  0  0  0  0  0  0  0  0  0  0  0
   44.7068  -23.0330    0.0000 C   0  0  0  0  0  0  0  0  0  0  0  0
   44.0047  -23.4469    0.0000 C   0  0  0  0  0  0  0  0  0  0  0  0
   44.7441  -27.9364    0.0000 C   0  0  0  0  0  0  0  0  0  0  0  0
   45.4567  -28.3393    0.0000 C   0  0  0  0  0  0  0  0  0  0  0  0
   46.1634  -27.9229    0.0000 C   0  0  0  0  0  0  0  0  0  0  0  0
   46.1530  -27.0993    0.0000 C   0  0  0  0  0  0  0  0  0  0  0  0
   45.4399  -26.7001    0.0000 C   0  0  0  0  0  0  0  0  0  0  0  0
   42.5998  -24.2666    0.0000 C   0  0  0  0  0  0  0  0  0  0  0  0
   46.1245  -23.0222    0.0000 C   0  0  0  0  0  0  0  0  0  0  0  0
   46.8295  -22.6089    0.0000 N   0  0  0  0  0  0  0  0  0  0  0  0
  1  2  2  0
  2  3  1  0
  3  6  2  0
  5  4  2  0
  4  1  1  0
  5  6  1  0
  6  7  1  0
  7  8  2  0
  8  9  1  0
  9 10  2  0
 10  5  1  0
  8 11  1  0
 10 12  1  0
 12 13  1  0
 13 14  2  0
 14 15  1  0
 15 16  2  0
 16 17  1  0
 17 18  2  0
 18 13  1  0
 11 19  2  0
 19 20  1  0
 20 21  2  0
 21 22  1  0
 22 23  2  0
 23 11  1  0
 12 24  1  0
 25 26  3  0
 16 25  1  0
M  END
>  <Classification>  (705) 
1

>  <pchembl>  (705) 
5.0

>  <InChI_steorem>  (705) 
InChI=1S/C22H16N4/c1-26(18-13-11-16(15-23)12-14-18)22-19-9-5-6-10-20(19)24-21(25-22)17-7-3-2-4-8-17/h2-14H,1H3

>  <source>  (705) 
ChEMBL28

>  <source_id>  (705) 
28

>  <optional_reference>  (705) 
10.1016/j.ejmech.2018.10.026

>  <optional_origin>  (705) 
None

>  <target>  (705) 
BCRP

$$$$

     RDKit          2D

 26 29  0  0  0  0  0  0  0  0999 V2000
    7.8372   -3.3793    0.0000 O   0  0  0  0  0  0  0  0  0  0  0  0
    8.5517   -2.1418    0.0000 O   0  0  0  0  0  0  0  0  0  0  0  0
    4.2648    0.3332    0.0000 N   0  0  0  0  0  0  0  0  0  0  0  0
    4.9793    1.5707    0.0000 N   0  0  0  0  0  0  0  0  0  0  0  0
    4.9793   -0.9043    0.0000 N   0  0  0  0  0  0  0  0  0  0  0  0
    5.6938    0.3332    0.0000 C   0  0  0  0  0  0  0  0  0  0  0  0
    4.9793   -0.0793    0.0000 C   0  0  0  0  0  0  0  0  0  0  0  0
    5.6938    1.1582    0.0000 C   0  0  0  0  0  0  0  0  0  0  0  0
    4.2648    1.1582    0.0000 C   0  0  0  0  0  0  0  0  0  0  0  0
    3.5504    1.5707    0.0000 C   0  0  0  0  0  0  0  0  0  0  0  0
    6.4083   -0.0793    0.0000 C   0  0  0  0  0  0  0  0  0  0  0  0
    5.6938   -1.3168    0.0000 C   0  0  0  0  0  0  0  0  0  0  0  0
    6.4083    1.5707    0.0000 C   0  0  0  0  0  0  0  0  0  0  0  0
    7.1227    0.3332    0.0000 C   0  0  0  0  0  0  0  0  0  0  0  0
    7.1227    1.1582    0.0000 C   0  0  0  0  0  0  0  0  0  0  0  0
    2.8359    1.1582    0.0000 C   0  0  0  0  0  0  0  0  0  0  0  0
    3.5504    2.3957    0.0000 C   0  0  0  0  0  0  0  0  0  0  0  0
    6.4083   -0.9043    0.0000 C   0  0  0  0  0  0  0  0  0  0  0  0
    5.6938   -2.1418    0.0000 C   0  0  0  0  0  0  0  0  0  0  0  0
    7.1227   -2.1418    0.0000 C   0  0  0  0  0  0  0  0  0  0  0  0
    7.1227   -1.3168    0.0000 C   0  0  0  0  0  0  0  0  0  0  0  0
    6.4083   -2.5543    0.0000 C   0  0  0  0  0  0  0  0  0  0  0  0
    2.1214    1.5707    0.0000 C   0  0  0  0  0  0  0  0  0  0  0  0
    2.8359    2.8082    0.0000 C   0  0  0  0  0  0  0  0  0  0  0  0
    7.8372   -2.5543    0.0000 C   0  0  0  0  0  0  0  0  0  0  0  0
    2.1214    2.3957    0.0000 C   0  0  0  0  0  0  0  0  0  0  0  0
  1 25  2  0
  2 25  1  0
  3  7  2  0
  3  9  1  0
  4  8  1  0
  4  9  2  0
  5  7  1  0
  5 12  1  0
  6  7  1  0
  6  8  2  0
  6 11  1  0
  8 13  1  0
  9 10  1  0
 10 16  2  0
 10 17  1  0
 11 14  2  0
 12 18  2  0
 12 19  1  0
 13 15  2  0
 14 15  1  0
 16 23  1  0
 17 24  2  0
 18 21  1  0
 19 22  2  0
 20 21  2  0
 20 22  1  0
 20 25  1  0
 23 26  2  0
 24 26  1  0
M  END
>  <Classification>  (706) 
1

>  <pchembl>  (706) 
5.2

>  <InChI_steorem>  (706) 
InChI=1S/C21H15N3O2/c25-21(26)15-10-12-16(13-11-15)22-20-17-8-4-5-9-18(17)23-19(24-20)14-6-2-1-3-7-14/h1-13H,(H,25,26)(H,22,23,24)

>  <source>  (706) 
ChEMBL28

>  <source_id>  (706) 
28

>  <optional_reference>  (706) 
10.1021/acs.jmedchem.6b00330

>  <optional_origin>  (706) 
None

>  <target>  (706) 
BCRP

$$$$

     RDKit          2D

 26 29  0  0  0  0  0  0  0  0999 V2000
    9.6068  -19.3030    0.0000 C   0  0  0  0  0  0  0  0  0  0  0  0
    9.6056  -20.1225    0.0000 C   0  0  0  0  0  0  0  0  0  0  0  0
   10.3137  -20.5315    0.0000 C   0  0  0  0  0  0  0  0  0  0  0  0
   10.3119  -18.8942    0.0000 C   0  0  0  0  0  0  0  0  0  0  0  0
   11.0205  -19.2994    0.0000 C   0  0  0  0  0  0  0  0  0  0  0  0
   11.0213  -20.1184    0.0000 C   0  0  0  0  0  0  0  0  0  0  0  0
   11.7298  -20.5255    0.0000 N   0  0  0  0  0  0  0  0  0  0  0  0
   12.4381  -20.1147    0.0000 C   0  0  0  0  0  0  0  0  0  0  0  0
   12.4333  -19.2925    0.0000 N   0  0  0  0  0  0  0  0  0  0  0  0
   11.7242  -18.8892    0.0000 C   0  0  0  0  0  0  0  0  0  0  0  0
   13.1515  -20.5177    0.0000 C   0  0  0  0  0  0  0  0  0  0  0  0
   11.7199  -18.0720    0.0000 O   0  0  0  0  0  0  0  0  0  0  0  0
   12.4254  -17.6597    0.0000 C   0  0  0  0  0  0  0  0  0  0  0  0
   13.1307  -18.0679    0.0000 C   0  0  0  0  0  0  0  0  0  0  0  0
   13.8358  -17.6562    0.0000 C   0  0  0  0  0  0  0  0  0  0  0  0
   13.8319  -16.8382    0.0000 C   0  0  0  0  0  0  0  0  0  0  0  0
   13.1170  -16.4335    0.0000 C   0  0  0  0  0  0  0  0  0  0  0  0
   12.4149  -16.8475    0.0000 C   0  0  0  0  0  0  0  0  0  0  0  0
   13.1543  -21.3369    0.0000 C   0  0  0  0  0  0  0  0  0  0  0  0
   13.8669  -21.7399    0.0000 C   0  0  0  0  0  0  0  0  0  0  0  0
   14.5736  -21.3234    0.0000 C   0  0  0  0  0  0  0  0  0  0  0  0
   14.5632  -20.4999    0.0000 C   0  0  0  0  0  0  0  0  0  0  0  0
   13.8501  -20.1007    0.0000 C   0  0  0  0  0  0  0  0  0  0  0  0
   14.5468  -18.0614    0.0000 N   0  0  0  0  0  0  0  0  0  0  0  0
   15.2525  -17.6494    0.0000 O   0  0  0  0  0  0  0  0  0  0  0  0
   14.5507  -18.8786    0.0000 O   0  0  0  0  0  0  0  0  0  0  0  0
  1  2  2  0
  2  3  1  0
  3  6  2  0
  5  4  2  0
  4  1  1  0
  5  6  1  0
  6  7  1  0
  7  8  2  0
  8  9  1  0
  9 10  2  0
 10  5  1  0
  8 11  1  0
 10 12  1  0
 12 13  1  0
 13 14  2  0
 14 15  1  0
 15 16  2  0
 16 17  1  0
 17 18  2  0
 18 13  1  0
 11 19  2  0
 19 20  1  0
 20 21  2  0
 21 22  1  0
 22 23  2  0
 23 11  1  0
 24 25  2  0
 24 26  1  0
 15 24  1  0
M  CHG  2  24   1  26  -1
M  END
>  <Classification>  (707) 
1

>  <pchembl>  (707) 
5.32

>  <InChI_steorem>  (707) 
InChI=1S/C20H13N3O3/c24-23(25)15-9-6-10-16(13-15)26-20-17-11-4-5-12-18(17)21-19(22-20)14-7-2-1-3-8-14/h1-13H

>  <source>  (707) 
ChEMBL28

>  <source_id>  (707) 
28

>  <optional_reference>  (707) 
10.1016/j.ejmech.2018.10.026

>  <optional_origin>  (707) 
None

>  <target>  (707) 
BCRP

$$$$

     RDKit          2D

 27 30  0  0  0  0  0  0  0  0999 V2000
   -0.5500   -2.1292    0.0000 C   0  0  0  0  0  0  0  0  0  0  0  0
   -0.0333   -2.4292    0.0000 N   0  0  0  0  0  0  0  0  0  0  0  0
   -0.0333   -3.0375    0.0000 C   0  0  0  0  0  0  0  0  0  0  0  0
   -0.5500   -3.3375    0.0000 N   0  0  0  0  0  0  0  0  0  0  0  0
   -1.0708   -2.4375    0.0000 C   0  0  0  0  0  0  0  0  0  0  0  0
   -1.0708   -3.0375    0.0000 C   0  0  0  0  0  0  0  0  0  0  0  0
   -0.5583   -1.5292    0.0000 N   0  0  0  0  0  0  0  0  0  0  0  0
    1.5167   -0.3250    0.0000 C   0  0  0  0  0  0  0  0  0  0  0  0
    1.0000   -0.6292    0.0000 C   0  0  0  0  0  0  0  0  0  0  0  0
    0.4917   -3.3375    0.0000 C   0  0  0  0  0  0  0  0  0  0  0  0
    1.5125    0.2750    0.0000 O   0  0  0  0  0  0  0  0  0  0  0  0
   -0.0333   -1.2292    0.0000 C   0  0  0  0  0  0  0  0  0  0  0  0
    1.0042   -1.2292    0.0000 C   0  0  0  0  0  0  0  0  0  0  0  0
    0.4750   -0.3292    0.0000 C   0  0  0  0  0  0  0  0  0  0  0  0
    2.0375   -0.6167    0.0000 O   0  0  0  0  0  0  0  0  0  0  0  0
   -0.0458   -0.6375    0.0000 C   0  0  0  0  0  0  0  0  0  0  0  0
    0.4792   -1.5292    0.0000 C   0  0  0  0  0  0  0  0  0  0  0  0
   -1.5833   -2.1375    0.0000 C   0  0  0  0  0  0  0  0  0  0  0  0
   -1.5833   -3.3375    0.0000 C   0  0  0  0  0  0  0  0  0  0  0  0
    0.4917   -3.9375    0.0000 C   0  0  0  0  0  0  0  0  0  0  0  0
    1.0042   -3.0292    0.0000 C   0  0  0  0  0  0  0  0  0  0  0  0
    2.0417   -1.2167    0.0000 C   0  0  0  0  0  0  0  0  0  0  0  0
   -2.1083   -2.4292    0.0000 C   0  0  0  0  0  0  0  0  0  0  0  0
   -2.1083   -3.0375    0.0000 C   0  0  0  0  0  0  0  0  0  0  0  0
    1.0125   -4.2292    0.0000 C   0  0  0  0  0  0  0  0  0  0  0  0
    1.5292   -3.3292    0.0000 C   0  0  0  0  0  0  0  0  0  0  0  0
    1.5292   -3.9292    0.0000 C   0  0  0  0  0  0  0  0  0  0  0  0
  2  1  2  0
  3  2  1  0
  4  6  1  0
  5  1  1  0
  6  5  2  0
  7  1  1  0
  8  9  1  0
  9 13  2  0
 10  3  1  0
 11  8  2  0
 12  7  1  0
 13 17  1  0
 14 16  2  0
 15  8  1  0
 16 12  1  0
 17 12  2  0
 18  5  1  0
 19  6  1  0
 20 10  2  0
 21 10  1  0
 22 15  1  0
 23 18  2  0
 24 23  1  0
 25 20  1  0
 26 21  2  0
 27 26  1  0
  4  3  2  0
 14  9  1  0
 19 24  2  0
 25 27  2  0
M  END
>  <Classification>  (708) 
1

>  <pchembl>  (708) 
6.03

>  <InChI_steorem>  (708) 
InChI=1S/C22H17N3O2/c1-27-22(26)16-11-13-17(14-12-16)23-21-18-9-5-6-10-19(18)24-20(25-21)15-7-3-2-4-8-15/h2-14H,1H3,(H,23,24,25)

>  <source>  (708) 
ChEMBL28

>  <source_id>  (708) 
28

>  <optional_reference>  (708) 
10.1021/acs.jmedchem.6b00330

>  <optional_origin>  (708) 
None

>  <target>  (708) 
BCRP

$$$$

     RDKit          2D

 27 30  0  0  0  0  0  0  0  0999 V2000
   14.1467  -26.3358    0.0000 C   0  0  0  0  0  0  0  0  0  0  0  0
   14.1456  -27.1553    0.0000 C   0  0  0  0  0  0  0  0  0  0  0  0
   14.8536  -27.5643    0.0000 C   0  0  0  0  0  0  0  0  0  0  0  0
   14.8518  -25.9269    0.0000 C   0  0  0  0  0  0  0  0  0  0  0  0
   15.5605  -26.3322    0.0000 C   0  0  0  0  0  0  0  0  0  0  0  0
   15.5612  -27.1512    0.0000 C   0  0  0  0  0  0  0  0  0  0  0  0
   16.2697  -27.5583    0.0000 N   0  0  0  0  0  0  0  0  0  0  0  0
   16.9780  -27.1475    0.0000 C   0  0  0  0  0  0  0  0  0  0  0  0
   16.9733  -26.3253    0.0000 N   0  0  0  0  0  0  0  0  0  0  0  0
   16.2642  -25.9220    0.0000 C   0  0  0  0  0  0  0  0  0  0  0  0
   17.6914  -27.5505    0.0000 C   0  0  0  0  0  0  0  0  0  0  0  0
   16.2598  -25.1048    0.0000 S   0  0  0  0  0  0  0  0  0  0  0  0
   16.9654  -24.6925    0.0000 C   0  0  0  0  0  0  0  0  0  0  0  0
   17.6707  -25.1007    0.0000 C   0  0  0  0  0  0  0  0  0  0  0  0
   18.3757  -24.6890    0.0000 C   0  0  0  0  0  0  0  0  0  0  0  0
   18.3718  -23.8710    0.0000 C   0  0  0  0  0  0  0  0  0  0  0  0
   17.6570  -23.4663    0.0000 C   0  0  0  0  0  0  0  0  0  0  0  0
   16.9548  -23.8803    0.0000 C   0  0  0  0  0  0  0  0  0  0  0  0
   17.6942  -28.3697    0.0000 C   0  0  0  0  0  0  0  0  0  0  0  0
   18.4068  -28.7726    0.0000 C   0  0  0  0  0  0  0  0  0  0  0  0
   19.1136  -28.3562    0.0000 C   0  0  0  0  0  0  0  0  0  0  0  0
   19.1032  -27.5327    0.0000 C   0  0  0  0  0  0  0  0  0  0  0  0
   18.3900  -27.1334    0.0000 C   0  0  0  0  0  0  0  0  0  0  0  0
   19.0854  -25.0942    0.0000 C   0  0  0  0  0  0  0  0  0  0  0  0
   19.0893  -25.9114    0.0000 F   0  0  0  0  0  0  0  0  0  0  0  0
   19.7911  -24.6822    0.0000 F   0  0  0  0  0  0  0  0  0  0  0  0
   19.7901  -25.5021    0.0000 F   0  0  0  0  0  0  0  0  0  0  0  0
  1  2  2  0
  2  3  1  0
  3  6  2  0
  5  4  2  0
  4  1  1  0
  5  6  1  0
  6  7  1  0
  7  8  2  0
  8  9  1  0
  9 10  2  0
 10  5  1  0
  8 11  1  0
 10 12  1  0
 12 13  1  0
 13 14  2  0
 14 15  1  0
 15 16  2  0
 16 17  1  0
 17 18  2  0
 18 13  1  0
 11 19  2  0
 19 20  1  0
 20 21  2  0
 21 22  1  0
 22 23  2  0
 23 11  1  0
 15 24  1  0
 24 25  1  0
 24 26  1  0
 24 27  1  0
M  END
>  <Classification>  (709) 
0

>  <pchembl>  (709) 
4.83

>  <InChI_steorem>  (709) 
InChI=1S/C21H13F3N2S/c22-21(23,24)15-9-6-10-16(13-15)27-20-17-11-4-5-12-18(17)25-19(26-20)14-7-2-1-3-8-14/h1-13H

>  <source>  (709) 
ChEMBL28

>  <source_id>  (709) 
28

>  <optional_reference>  (709) 
10.1016/j.ejmech.2018.10.026

>  <optional_origin>  (709) 
None

>  <target>  (709) 
BCRP

$$$$

     RDKit          2D

 27 30  0  0  0  0  0  0  0  0999 V2000
    1.9848   -0.5424    0.0000 O   0  0  0  0  0  0  0  0  0  0  0  0
   -3.0164    0.6951    0.0000 N   0  0  0  0  0  0  0  0  0  0  0  0
   -2.3020    1.9326    0.0000 N   0  0  0  0  0  0  0  0  0  0  0  0
   -2.3020   -0.5424    0.0000 N   0  0  0  0  0  0  0  0  0  0  0  0
    0.5559   -0.5424    0.0000 N   0  0  0  0  0  0  0  0  0  0  0  0
   -1.5875    0.6951    0.0000 C   0  0  0  0  0  0  0  0  0  0  0  0
   -2.3020    0.2826    0.0000 C   0  0  0  0  0  0  0  0  0  0  0  0
   -1.5875    1.5201    0.0000 C   0  0  0  0  0  0  0  0  0  0  0  0
   -3.0164    1.5201    0.0000 C   0  0  0  0  0  0  0  0  0  0  0  0
   -3.7309    1.9326    0.0000 C   0  0  0  0  0  0  0  0  0  0  0  0
   -0.8730    0.2826    0.0000 C   0  0  0  0  0  0  0  0  0  0  0  0
   -1.5875   -0.9549    0.0000 C   0  0  0  0  0  0  0  0  0  0  0  0
   -0.8730    1.9326    0.0000 C   0  0  0  0  0  0  0  0  0  0  0  0
   -0.1586    0.6951    0.0000 C   0  0  0  0  0  0  0  0  0  0  0  0
   -0.1586    1.5201    0.0000 C   0  0  0  0  0  0  0  0  0  0  0  0
   -0.8730   -0.5424    0.0000 C   0  0  0  0  0  0  0  0  0  0  0  0
   -4.4454    1.5201    0.0000 C   0  0  0  0  0  0  0  0  0  0  0  0
   -3.7309    2.7576    0.0000 C   0  0  0  0  0  0  0  0  0  0  0  0
   -0.1586   -0.9549    0.0000 C   0  0  0  0  0  0  0  0  0  0  0  0
   -1.5875   -1.7799    0.0000 C   0  0  0  0  0  0  0  0  0  0  0  0
   -0.1586   -1.7799    0.0000 C   0  0  0  0  0  0  0  0  0  0  0  0
   -0.8730   -2.1924    0.0000 C   0  0  0  0  0  0  0  0  0  0  0  0
   -5.1599    1.9326    0.0000 C   0  0  0  0  0  0  0  0  0  0  0  0
   -4.4454    3.1701    0.0000 C   0  0  0  0  0  0  0  0  0  0  0  0
   -5.1599    2.7576    0.0000 C   0  0  0  0  0  0  0  0  0  0  0  0
    1.2704   -0.9549    0.0000 C   0  0  0  0  0  0  0  0  0  0  0  0
    1.2704   -1.7799    0.0000 C   0  0  0  0  0  0  0  0  0  0  0  0
  1 26  2  0
  2  7  2  0
  2  9  1  0
  3  8  1  0
  3  9  2  0
  4  7  1  0
  4 12  1  0
  5 19  1  0
  5 26  1  0
  6  7  1  0
  6  8  2  0
  6 11  1  0
  8 13  1  0
  9 10  1  0
 10 17  2  0
 10 18  1  0
 11 14  2  0
 12 16  2  0
 12 20  1  0
 13 15  2  0
 14 15  1  0
 16 19  1  0
 17 23  1  0
 18 24  2  0
 19 21  2  0
 20 22  2  0
 21 22  1  0
 23 25  2  0
 24 25  1  0
 26 27  1  0
M  END
>  <Classification>  (710) 
1

>  <pchembl>  (710) 
6.56

>  <InChI_steorem>  (710) 
InChI=1S/C22H18N4O/c1-15(27)23-17-10-7-11-18(14-17)24-22-19-12-5-6-13-20(19)25-21(26-22)16-8-3-2-4-9-16/h2-14H,1H3,(H,23,27)(H,24,25,26)

>  <source>  (710) 
ChEMBL28

>  <source_id>  (710) 
28

>  <optional_reference>  (710) 
10.1021/acs.jmedchem.6b00330

>  <optional_origin>  (710) 
None

>  <target>  (710) 
BCRP

$$$$

     RDKit          2D

 27 30  0  0  0  0  0  0  0  0999 V2000
   25.4842  -10.8711    0.0000 C   0  0  0  0  0  0  0  0  0  0  0  0
   25.4831  -11.6906    0.0000 C   0  0  0  0  0  0  0  0  0  0  0  0
   26.1911  -12.0996    0.0000 C   0  0  0  0  0  0  0  0  0  0  0  0
   26.1893  -10.4622    0.0000 C   0  0  0  0  0  0  0  0  0  0  0  0
   26.8980  -10.8675    0.0000 C   0  0  0  0  0  0  0  0  0  0  0  0
   26.8987  -11.6865    0.0000 C   0  0  0  0  0  0  0  0  0  0  0  0
   27.6072  -12.0936    0.0000 N   0  0  0  0  0  0  0  0  0  0  0  0
   28.3155  -11.6827    0.0000 C   0  0  0  0  0  0  0  0  0  0  0  0
   28.3108  -10.8606    0.0000 N   0  0  0  0  0  0  0  0  0  0  0  0
   27.6017  -10.4573    0.0000 C   0  0  0  0  0  0  0  0  0  0  0  0
   27.5973   -9.6401    0.0000 N   0  0  0  0  0  0  0  0  0  0  0  0
   28.3029   -9.2277    0.0000 C   0  0  0  0  0  0  0  0  0  0  0  0
   29.0081   -9.6359    0.0000 C   0  0  0  0  0  0  0  0  0  0  0  0
   29.7132   -9.2243    0.0000 C   0  0  0  0  0  0  0  0  0  0  0  0
   29.7093   -8.4062    0.0000 C   0  0  0  0  0  0  0  0  0  0  0  0
   28.9945   -8.0016    0.0000 C   0  0  0  0  0  0  0  0  0  0  0  0
   28.2923   -8.4156    0.0000 C   0  0  0  0  0  0  0  0  0  0  0  0
   29.0212  -12.0845    0.0000 C   0  0  0  0  0  0  0  0  0  0  0  0
   29.0231  -12.9028    0.0000 C   0  0  0  0  0  0  0  0  0  0  0  0
   29.7315  -13.3086    0.0000 C   0  0  0  0  0  0  0  0  0  0  0  0
   30.4386  -12.8972    0.0000 C   0  0  0  0  0  0  0  0  0  0  0  0
   30.4328  -12.0758    0.0000 C   0  0  0  0  0  0  0  0  0  0  0  0
   29.7238  -11.6737    0.0000 C   0  0  0  0  0  0  0  0  0  0  0  0
   30.4229   -9.6295    0.0000 C   0  0  0  0  0  0  0  0  0  0  0  0
   30.4268  -10.4467    0.0000 C   0  0  0  0  0  0  0  0  0  0  0  0
   31.1286   -9.2175    0.0000 C   0  0  0  0  0  0  0  0  0  0  0  0
   31.1276  -10.0374    0.0000 C   0  0  0  0  0  0  0  0  0  0  0  0
  1  2  2  0
  2  3  1  0
  3  6  2  0
  5  4  2  0
  4  1  1  0
  5  6  1  0
  6  7  1  0
  7  8  2  0
  8  9  1  0
  9 10  2  0
 10  5  1  0
 10 11  1  0
 11 12  1  0
 12 13  2  0
 13 14  1  0
 14 15  2  0
 15 16  1  0
 16 17  2  0
 17 12  1  0
 18 19  2  0
 19 20  1  0
 20 21  2  0
 21 22  1  0
 22 23  2  0
 23 18  1  0
  8 18  1  0
 14 24  1  0
 24 25  1  0
 24 26  1  0
 24 27  1  0
M  END
>  <Classification>  (711) 
1

>  <pchembl>  (711) 
5.97

>  <InChI_steorem>  (711) 
InChI=1S/C24H23N3/c1-24(2,3)18-12-9-13-19(16-18)25-23-20-14-7-8-15-21(20)26-22(27-23)17-10-5-4-6-11-17/h4-16H,1-3H3,(H,25,26,27)

>  <source>  (711) 
ChEMBL28

>  <source_id>  (711) 
28

>  <optional_reference>  (711) 
10.1021/acs.jmedchem.6b00330

>  <optional_origin>  (711) 
None

>  <target>  (711) 
BCRP

$$$$

     RDKit          2D

 27 30  0  0  0  0  0  0  0  0999 V2000
   26.1363  -20.2729    0.0000 C   0  0  0  0  0  0  0  0  0  0  0  0
   26.1352  -21.0924    0.0000 C   0  0  0  0  0  0  0  0  0  0  0  0
   26.8432  -21.5014    0.0000 C   0  0  0  0  0  0  0  0  0  0  0  0
   26.8414  -19.8640    0.0000 C   0  0  0  0  0  0  0  0  0  0  0  0
   27.5501  -20.2693    0.0000 C   0  0  0  0  0  0  0  0  0  0  0  0
   27.5508  -21.0883    0.0000 C   0  0  0  0  0  0  0  0  0  0  0  0
   28.2593  -21.4954    0.0000 N   0  0  0  0  0  0  0  0  0  0  0  0
   28.9676  -21.0846    0.0000 C   0  0  0  0  0  0  0  0  0  0  0  0
   28.9629  -20.2624    0.0000 N   0  0  0  0  0  0  0  0  0  0  0  0
   28.2538  -19.8591    0.0000 C   0  0  0  0  0  0  0  0  0  0  0  0
   28.2494  -19.0419    0.0000 N   0  0  0  0  0  0  0  0  0  0  0  0
   28.9550  -18.6296    0.0000 C   0  0  0  0  0  0  0  0  0  0  0  0
   29.6603  -19.0378    0.0000 C   0  0  0  0  0  0  0  0  0  0  0  0
   30.3653  -18.6261    0.0000 C   0  0  0  0  0  0  0  0  0  0  0  0
   30.3614  -17.8081    0.0000 C   0  0  0  0  0  0  0  0  0  0  0  0
   29.6466  -17.4034    0.0000 C   0  0  0  0  0  0  0  0  0  0  0  0
   28.9444  -17.8174    0.0000 C   0  0  0  0  0  0  0  0  0  0  0  0
   29.6733  -21.4863    0.0000 C   0  0  0  0  0  0  0  0  0  0  0  0
   29.6752  -22.3046    0.0000 C   0  0  0  0  0  0  0  0  0  0  0  0
   30.3836  -22.7104    0.0000 C   0  0  0  0  0  0  0  0  0  0  0  0
   31.0907  -22.2990    0.0000 C   0  0  0  0  0  0  0  0  0  0  0  0
   31.0849  -21.4776    0.0000 C   0  0  0  0  0  0  0  0  0  0  0  0
   30.3759  -21.0755    0.0000 C   0  0  0  0  0  0  0  0  0  0  0  0
   31.0664  -17.3948    0.0000 C   0  0  0  0  0  0  0  0  0  0  0  0
   31.7768  -17.7987    0.0000 C   0  0  0  0  0  0  0  0  0  0  0  0
   31.0610  -16.5776    0.0000 C   0  0  0  0  0  0  0  0  0  0  0  0
   31.7714  -16.9794    0.0000 C   0  0  0  0  0  0  0  0  0  0  0  0
  1  2  2  0
  2  3  1  0
  3  6  2  0
  5  4  2  0
  4  1  1  0
  5  6  1  0
  6  7  1  0
  7  8  2  0
  8  9  1  0
  9 10  2  0
 10  5  1  0
 10 11  1  0
 11 12  1  0
 12 13  2  0
 13 14  1  0
 14 15  2  0
 15 16  1  0
 16 17  2  0
 17 12  1  0
 18 19  2  0
 19 20  1  0
 20 21  2  0
 21 22  1  0
 22 23  2  0
 23 18  1  0
  8 18  1  0
 15 24  1  0
 24 25  1  0
 24 26  1  0
 24 27  1  0
M  END
>  <Classification>  (712) 
1

>  <pchembl>  (712) 
5.97

>  <InChI_steorem>  (712) 
InChI=1S/C24H23N3/c1-24(2,3)18-13-15-19(16-14-18)25-23-20-11-7-8-12-21(20)26-22(27-23)17-9-5-4-6-10-17/h4-16H,1-3H3,(H,25,26,27)

>  <source>  (712) 
ChEMBL28

>  <source_id>  (712) 
28

>  <optional_reference>  (712) 
10.1021/acs.jmedchem.6b00330

>  <optional_origin>  (712) 
None

>  <target>  (712) 
BCRP

$$$$

     RDKit          2D

 27 30  0  0  0  0  0  0  0  0999 V2000
   28.2784  -26.0799    0.0000 C   0  0  0  0  0  0  0  0  0  0  0  0
   28.2772  -26.8995    0.0000 C   0  0  0  0  0  0  0  0  0  0  0  0
   28.9853  -27.3084    0.0000 C   0  0  0  0  0  0  0  0  0  0  0  0
   28.9835  -25.6711    0.0000 C   0  0  0  0  0  0  0  0  0  0  0  0
   29.6921  -26.0763    0.0000 C   0  0  0  0  0  0  0  0  0  0  0  0
   29.6928  -26.8953    0.0000 C   0  0  0  0  0  0  0  0  0  0  0  0
   30.4014  -27.3024    0.0000 N   0  0  0  0  0  0  0  0  0  0  0  0
   31.1096  -26.8916    0.0000 C   0  0  0  0  0  0  0  0  0  0  0  0
   31.1049  -26.0695    0.0000 N   0  0  0  0  0  0  0  0  0  0  0  0
   30.3958  -25.6661    0.0000 C   0  0  0  0  0  0  0  0  0  0  0  0
   31.8231  -27.2946    0.0000 C   0  0  0  0  0  0  0  0  0  0  0  0
   30.3915  -24.8489    0.0000 N   0  0  0  0  0  0  0  0  0  0  0  0
   31.0970  -24.4366    0.0000 C   0  0  0  0  0  0  0  0  0  0  0  0
   31.8023  -24.8448    0.0000 C   0  0  0  0  0  0  0  0  0  0  0  0
   32.5073  -24.4331    0.0000 C   0  0  0  0  0  0  0  0  0  0  0  0
   32.5034  -23.6151    0.0000 C   0  0  0  0  0  0  0  0  0  0  0  0
   31.7886  -23.2104    0.0000 C   0  0  0  0  0  0  0  0  0  0  0  0
   31.0865  -23.6244    0.0000 C   0  0  0  0  0  0  0  0  0  0  0  0
   31.8259  -28.1138    0.0000 C   0  0  0  0  0  0  0  0  0  0  0  0
   32.5385  -28.5168    0.0000 C   0  0  0  0  0  0  0  0  0  0  0  0
   33.2452  -28.1003    0.0000 C   0  0  0  0  0  0  0  0  0  0  0  0
   33.2348  -27.2768    0.0000 C   0  0  0  0  0  0  0  0  0  0  0  0
   32.5217  -26.8776    0.0000 C   0  0  0  0  0  0  0  0  0  0  0  0
   29.6816  -24.4441    0.0000 C   0  0  0  0  0  0  0  0  0  0  0  0
   33.2184  -24.8383    0.0000 N   0  0  0  0  0  0  0  0  0  0  0  0
   33.9241  -24.4263    0.0000 O   0  0  0  0  0  0  0  0  0  0  0  0
   33.2223  -25.6555    0.0000 O   0  0  0  0  0  0  0  0  0  0  0  0
  1  2  2  0
  2  3  1  0
  3  6  2  0
  5  4  2  0
  4  1  1  0
  5  6  1  0
  6  7  1  0
  7  8  2  0
  8  9  1  0
  9 10  2  0
 10  5  1  0
  8 11  1  0
 10 12  1  0
 12 13  1  0
 13 14  2  0
 14 15  1  0
 15 16  2  0
 16 17  1  0
 17 18  2  0
 18 13  1  0
 11 19  2  0
 19 20  1  0
 20 21  2  0
 21 22  1  0
 22 23  2  0
 23 11  1  0
 12 24  1  0
 25 26  2  0
 25 27  1  0
 15 25  1  0
M  CHG  2  25   1  27  -1
M  END
>  <Classification>  (713) 
1

>  <pchembl>  (713) 
5.69

>  <InChI_steorem>  (713) 
InChI=1S/C21H16N4O2/c1-24(16-10-7-11-17(14-16)25(26)27)21-18-12-5-6-13-19(18)22-20(23-21)15-8-3-2-4-9-15/h2-14H,1H3

>  <source>  (713) 
ChEMBL28

>  <source_id>  (713) 
28

>  <optional_reference>  (713) 
10.1016/j.ejmech.2018.10.026

>  <optional_origin>  (713) 
None

>  <target>  (713) 
BCRP

$$$$

     RDKit          2D

 27 30  0  0  0  0  0  0  0  0999 V2000
   33.9615  -20.4297    0.0000 C   0  0  0  0  0  0  0  0  0  0  0  0
   33.9604  -21.2493    0.0000 C   0  0  0  0  0  0  0  0  0  0  0  0
   34.6684  -21.6582    0.0000 C   0  0  0  0  0  0  0  0  0  0  0  0
   34.6667  -20.0209    0.0000 C   0  0  0  0  0  0  0  0  0  0  0  0
   35.3753  -20.4261    0.0000 C   0  0  0  0  0  0  0  0  0  0  0  0
   35.3760  -21.2452    0.0000 C   0  0  0  0  0  0  0  0  0  0  0  0
   36.0846  -21.6522    0.0000 N   0  0  0  0  0  0  0  0  0  0  0  0
   36.7928  -21.2414    0.0000 C   0  0  0  0  0  0  0  0  0  0  0  0
   36.7881  -20.4193    0.0000 C   0  0  0  0  0  0  0  0  0  0  0  0
   36.0790  -20.0159    0.0000 C   0  0  0  0  0  0  0  0  0  0  0  0
   36.0747  -19.1987    0.0000 N   0  0  0  0  0  0  0  0  0  0  0  0
   36.7802  -18.7864    0.0000 C   0  0  0  0  0  0  0  0  0  0  0  0
   37.4855  -19.1946    0.0000 C   0  0  0  0  0  0  0  0  0  0  0  0
   38.1905  -18.7829    0.0000 C   0  0  0  0  0  0  0  0  0  0  0  0
   38.1866  -17.9649    0.0000 C   0  0  0  0  0  0  0  0  0  0  0  0
   37.4718  -17.5602    0.0000 C   0  0  0  0  0  0  0  0  0  0  0  0
   36.7697  -17.9742    0.0000 C   0  0  0  0  0  0  0  0  0  0  0  0
   37.4986  -21.6432    0.0000 C   0  0  0  0  0  0  0  0  0  0  0  0
   37.5004  -22.4615    0.0000 C   0  0  0  0  0  0  0  0  0  0  0  0
   38.2089  -22.8672    0.0000 C   0  0  0  0  0  0  0  0  0  0  0  0
   38.9160  -22.4558    0.0000 C   0  0  0  0  0  0  0  0  0  0  0  0
   38.9101  -21.6344    0.0000 C   0  0  0  0  0  0  0  0  0  0  0  0
   38.2011  -21.2324    0.0000 C   0  0  0  0  0  0  0  0  0  0  0  0
   38.9002  -19.1881    0.0000 N   0  0  0  0  0  0  0  0  0  0  0  0
   39.6059  -18.7761    0.0000 C   0  0  0  0  0  0  0  0  0  0  0  0
   40.3156  -19.1813    0.0000 C   0  0  0  0  0  0  0  0  0  0  0  0
   39.6020  -17.9589    0.0000 O   0  0  0  0  0  0  0  0  0  0  0  0
  1  2  2  0
  2  3  1  0
  3  6  2  0
  5  4  2  0
  4  1  1  0
  5  6  1  0
  6  7  1  0
  7  8  2  0
  8  9  1  0
  9 10  2  0
 10  5  1  0
 10 11  1  0
 11 12  1  0
 12 13  2  0
 13 14  1  0
 14 15  2  0
 15 16  1  0
 16 17  2  0
 17 12  1  0
 18 19  2  0
 19 20  1  0
 20 21  2  0
 21 22  1  0
 22 23  2  0
 23 18  1  0
  8 18  1  0
 14 24  1  0
 24 25  1  0
 25 26  1  0
 25 27  2  0
M  END
>  <Classification>  (714) 
1

>  <pchembl>  (714) 
5.79

>  <InChI_steorem>  (714) 
InChI=1S/C23H19N3O/c1-16(27)24-18-10-7-11-19(14-18)25-23-15-22(17-8-3-2-4-9-17)26-21-13-6-5-12-20(21)23/h2-15H,1H3,(H,24,27)(H,25,26)

>  <source>  (714) 
ChEMBL28

>  <source_id>  (714) 
28

>  <optional_reference>  (714) 
10.1021/acs.jmedchem.6b00330

>  <optional_origin>  (714) 
None

>  <target>  (714) 
BCRP

$$$$

     RDKit          2D

 27 30  0  0  0  0  0  0  0  0999 V2000
   34.7664  -25.7704    0.0000 C   0  0  0  0  0  0  0  0  0  0  0  0
   34.7652  -26.5899    0.0000 C   0  0  0  0  0  0  0  0  0  0  0  0
   35.4733  -26.9989    0.0000 C   0  0  0  0  0  0  0  0  0  0  0  0
   35.4715  -25.3615    0.0000 C   0  0  0  0  0  0  0  0  0  0  0  0
   36.1801  -25.7668    0.0000 C   0  0  0  0  0  0  0  0  0  0  0  0
   36.1808  -26.5858    0.0000 C   0  0  0  0  0  0  0  0  0  0  0  0
   36.8894  -26.9929    0.0000 N   0  0  0  0  0  0  0  0  0  0  0  0
   37.5976  -26.5820    0.0000 C   0  0  0  0  0  0  0  0  0  0  0  0
   37.5929  -25.7599    0.0000 N   0  0  0  0  0  0  0  0  0  0  0  0
   36.8838  -25.3565    0.0000 C   0  0  0  0  0  0  0  0  0  0  0  0
   38.3111  -26.9850    0.0000 C   0  0  0  0  0  0  0  0  0  0  0  0
   36.8795  -24.5394    0.0000 N   0  0  0  0  0  0  0  0  0  0  0  0
   37.5850  -24.1270    0.0000 C   0  0  0  0  0  0  0  0  0  0  0  0
   38.2903  -24.5352    0.0000 C   0  0  0  0  0  0  0  0  0  0  0  0
   38.9953  -24.1236    0.0000 C   0  0  0  0  0  0  0  0  0  0  0  0
   38.9914  -23.3055    0.0000 C   0  0  0  0  0  0  0  0  0  0  0  0
   38.2766  -22.9009    0.0000 C   0  0  0  0  0  0  0  0  0  0  0  0
   37.5745  -23.3149    0.0000 C   0  0  0  0  0  0  0  0  0  0  0  0
   38.3139  -27.8043    0.0000 C   0  0  0  0  0  0  0  0  0  0  0  0
   39.0265  -28.2072    0.0000 C   0  0  0  0  0  0  0  0  0  0  0  0
   39.7332  -27.7908    0.0000 C   0  0  0  0  0  0  0  0  0  0  0  0
   39.7228  -26.9672    0.0000 C   0  0  0  0  0  0  0  0  0  0  0  0
   39.0097  -26.5680    0.0000 C   0  0  0  0  0  0  0  0  0  0  0  0
   36.1696  -24.1345    0.0000 C   0  0  0  0  0  0  0  0  0  0  0  0
   39.6993  -22.8914    0.0000 N   0  0  0  0  0  0  0  0  0  0  0  0
   39.6939  -22.0742    0.0000 O   0  0  0  0  0  0  0  0  0  0  0  0
   40.4097  -23.2953    0.0000 O   0  0  0  0  0  0  0  0  0  0  0  0
  1  2  2  0
  2  3  1  0
  3  6  2  0
  5  4  2  0
  4  1  1  0
  5  6  1  0
  6  7  1  0
  7  8  2  0
  8  9  1  0
  9 10  2  0
 10  5  1  0
  8 11  1  0
 10 12  1  0
 12 13  1  0
 13 14  2  0
 14 15  1  0
 15 16  2  0
 16 17  1  0
 17 18  2  0
 18 13  1  0
 11 19  2  0
 19 20  1  0
 20 21  2  0
 21 22  1  0
 22 23  2  0
 23 11  1  0
 12 24  1  0
 25 26  2  0
 25 27  1  0
 16 25  1  0
M  CHG  2  25   1  27  -1
M  END
>  <Classification>  (715) 
1

>  <pchembl>  (715) 
5.43

>  <InChI_steorem>  (715) 
InChI=1S/C21H16N4O2/c1-24(16-11-13-17(14-12-16)25(26)27)21-18-9-5-6-10-19(18)22-20(23-21)15-7-3-2-4-8-15/h2-14H,1H3

>  <source>  (715) 
ChEMBL28

>  <source_id>  (715) 
28

>  <optional_reference>  (715) 
10.1016/j.ejmech.2018.10.026

>  <optional_origin>  (715) 
None

>  <target>  (715) 
BCRP

$$$$

     RDKit          2D

 27 30  0  0  0  0  0  0  0  0999 V2000
   37.1767  -19.0182    0.0000 C   0  0  0  0  0  0  0  0  0  0  0  0
   37.1755  -19.8378    0.0000 C   0  0  0  0  0  0  0  0  0  0  0  0
   37.8836  -20.2467    0.0000 C   0  0  0  0  0  0  0  0  0  0  0  0
   37.8818  -18.6094    0.0000 C   0  0  0  0  0  0  0  0  0  0  0  0
   38.5904  -19.0146    0.0000 C   0  0  0  0  0  0  0  0  0  0  0  0
   38.5911  -19.8336    0.0000 C   0  0  0  0  0  0  0  0  0  0  0  0
   39.2997  -20.2407    0.0000 N   0  0  0  0  0  0  0  0  0  0  0  0
   40.0079  -19.8299    0.0000 C   0  0  0  0  0  0  0  0  0  0  0  0
   40.0032  -19.0078    0.0000 N   0  0  0  0  0  0  0  0  0  0  0  0
   39.2941  -18.6044    0.0000 C   0  0  0  0  0  0  0  0  0  0  0  0
   40.7214  -20.2329    0.0000 C   0  0  0  0  0  0  0  0  0  0  0  0
   39.2898  -17.7872    0.0000 O   0  0  0  0  0  0  0  0  0  0  0  0
   39.9953  -17.3749    0.0000 C   0  0  0  0  0  0  0  0  0  0  0  0
   40.7006  -17.7831    0.0000 C   0  0  0  0  0  0  0  0  0  0  0  0
   41.4056  -17.3714    0.0000 C   0  0  0  0  0  0  0  0  0  0  0  0
   41.4017  -16.5534    0.0000 C   0  0  0  0  0  0  0  0  0  0  0  0
   40.6869  -16.1487    0.0000 C   0  0  0  0  0  0  0  0  0  0  0  0
   39.9848  -16.5627    0.0000 C   0  0  0  0  0  0  0  0  0  0  0  0
   40.7242  -21.0521    0.0000 C   0  0  0  0  0  0  0  0  0  0  0  0
   41.4368  -21.4551    0.0000 C   0  0  0  0  0  0  0  0  0  0  0  0
   42.1435  -21.0387    0.0000 C   0  0  0  0  0  0  0  0  0  0  0  0
   42.1331  -20.2151    0.0000 C   0  0  0  0  0  0  0  0  0  0  0  0
   41.4200  -19.8159    0.0000 C   0  0  0  0  0  0  0  0  0  0  0  0
   42.1153  -17.7766    0.0000 C   0  0  0  0  0  0  0  0  0  0  0  0
   42.1192  -18.5938    0.0000 F   0  0  0  0  0  0  0  0  0  0  0  0
   42.8210  -17.3646    0.0000 F   0  0  0  0  0  0  0  0  0  0  0  0
   42.8200  -18.1846    0.0000 F   0  0  0  0  0  0  0  0  0  0  0  0
  1  2  2  0
  2  3  1  0
  3  6  2  0
  5  4  2  0
  4  1  1  0
  5  6  1  0
  6  7  1  0
  7  8  2  0
  8  9  1  0
  9 10  2  0
 10  5  1  0
  8 11  1  0
 10 12  1  0
 12 13  1  0
 13 14  2  0
 14 15  1  0
 15 16  2  0
 16 17  1  0
 17 18  2  0
 18 13  1  0
 11 19  2  0
 19 20  1  0
 20 21  2  0
 21 22  1  0
 22 23  2  0
 23 11  1  0
 15 24  1  0
 24 25  1  0
 24 26  1  0
 24 27  1  0
M  END
>  <Classification>  (716) 
1

>  <pchembl>  (716) 
6.0

>  <InChI_steorem>  (716) 
InChI=1S/C21H13F3N2O/c22-21(23,24)15-9-6-10-16(13-15)27-20-17-11-4-5-12-18(17)25-19(26-20)14-7-2-1-3-8-14/h1-13H

>  <source>  (716) 
ChEMBL28

>  <source_id>  (716) 
28

>  <optional_reference>  (716) 
10.1016/j.ejmech.2018.10.026

>  <optional_origin>  (716) 
None

>  <target>  (716) 
BCRP

$$$$

     RDKit          2D

 27 30  0  0  0  0  0  0  0  0999 V2000
    5.5635  -15.5968    0.0000 O   0  0  0  0  0  0  0  0  0  0  0  0
    5.9762  -16.3067    0.0000 S   0  0  0  0  0  0  0  0  0  0  0  0
    6.3846  -15.5943    0.0000 O   0  0  0  0  0  0  0  0  0  0  0  0
    1.0469  -19.1874    0.0000 C   0  0  0  0  0  0  0  0  0  0  0  0
    1.0458  -20.0070    0.0000 C   0  0  0  0  0  0  0  0  0  0  0  0
    1.7538  -20.4159    0.0000 C   0  0  0  0  0  0  0  0  0  0  0  0
    1.7520  -18.7786    0.0000 C   0  0  0  0  0  0  0  0  0  0  0  0
    2.4606  -19.1838    0.0000 C   0  0  0  0  0  0  0  0  0  0  0  0
    2.4614  -20.0029    0.0000 C   0  0  0  0  0  0  0  0  0  0  0  0
    3.1699  -20.4099    0.0000 N   0  0  0  0  0  0  0  0  0  0  0  0
    3.8782  -19.9991    0.0000 C   0  0  0  0  0  0  0  0  0  0  0  0
    3.8735  -19.1770    0.0000 N   0  0  0  0  0  0  0  0  0  0  0  0
    3.1643  -18.7736    0.0000 C   0  0  0  0  0  0  0  0  0  0  0  0
    3.1600  -17.9564    0.0000 N   0  0  0  0  0  0  0  0  0  0  0  0
    3.8655  -17.5441    0.0000 C   0  0  0  0  0  0  0  0  0  0  0  0
    4.5708  -17.9523    0.0000 C   0  0  0  0  0  0  0  0  0  0  0  0
    5.2759  -17.5407    0.0000 C   0  0  0  0  0  0  0  0  0  0  0  0
    5.2720  -16.7226    0.0000 C   0  0  0  0  0  0  0  0  0  0  0  0
    4.5571  -16.3179    0.0000 C   0  0  0  0  0  0  0  0  0  0  0  0
    3.8550  -16.7319    0.0000 C   0  0  0  0  0  0  0  0  0  0  0  0
    4.5839  -20.4009    0.0000 C   0  0  0  0  0  0  0  0  0  0  0  0
    4.5858  -21.2192    0.0000 C   0  0  0  0  0  0  0  0  0  0  0  0
    5.2942  -21.6249    0.0000 C   0  0  0  0  0  0  0  0  0  0  0  0
    6.0013  -21.2135    0.0000 C   0  0  0  0  0  0  0  0  0  0  0  0
    5.9955  -20.3921    0.0000 C   0  0  0  0  0  0  0  0  0  0  0  0
    5.2865  -19.9901    0.0000 C   0  0  0  0  0  0  0  0  0  0  0  0
    6.6874  -16.7132    0.0000 F   0  0  0  0  0  0  0  0  0  0  0  0
  2  1  2  0
  3  2  2  0
  4  5  2  0
  5  6  1  0
  6  9  2  0
  8  7  2  0
  7  4  1  0
  8  9  1  0
  9 10  1  0
 10 11  2  0
 11 12  1  0
 12 13  2  0
 13  8  1  0
 13 14  1  0
 14 15  1  0
 15 16  2  0
 16 17  1  0
 17 18  2  0
 18 19  1  0
 19 20  2  0
 20 15  1  0
 21 22  2  0
 22 23  1  0
 23 24  2  0
 24 25  1  0
 25 26  2  0
 26 21  1  0
 11 21  1  0
 18  2  1  0
  2 27  1  0
M  END
>  <Classification>  (717) 
1

>  <pchembl>  (717) 
6.25

>  <InChI_steorem>  (717) 
InChI=1S/C20H14FN3O2S/c21-27(25,26)16-12-10-15(11-13-16)22-20-17-8-4-5-9-18(17)23-19(24-20)14-6-2-1-3-7-14/h1-13H,(H,22,23,24)

>  <source>  (717) 
ChEMBL28

>  <source_id>  (717) 
28

>  <optional_reference>  (717) 
10.1021/acs.jmedchem.6b00330

>  <optional_origin>  (717) 
None

>  <target>  (717) 
BCRP

$$$$

     RDKit          2D

 27 31  0  0  0  0  0  0  0  0999 V2000
    2.4171   -8.7332    0.0000 C   0  0  0  0  0  0  0  0  0  0  0  0
    2.4160   -9.5527    0.0000 C   0  0  0  0  0  0  0  0  0  0  0  0
    3.1240   -9.9617    0.0000 C   0  0  0  0  0  0  0  0  0  0  0  0
    3.1222   -8.3243    0.0000 C   0  0  0  0  0  0  0  0  0  0  0  0
    3.8309   -8.7296    0.0000 C   0  0  0  0  0  0  0  0  0  0  0  0
    3.8311   -9.5528    0.0000 C   0  0  0  0  0  0  0  0  0  0  0  0
    4.6141   -9.8069    0.0000 N   0  0  0  0  0  0  0  0  0  0  0  0
    4.6137   -8.4750    0.0000 C   0  0  0  0  0  0  0  0  0  0  0  0
    5.0979   -9.1421    0.0000 C   0  0  0  0  0  0  0  0  0  0  0  0
    5.9132   -9.0569    0.0000 C   0  0  0  0  0  0  0  0  0  0  0  0
    6.2506   -8.3055    0.0000 N   0  0  0  0  0  0  0  0  0  0  0  0
    5.7665   -7.6384    0.0000 C   0  0  0  0  0  0  0  0  0  0  0  0
    4.9448   -7.7226    0.0000 C   0  0  0  0  0  0  0  0  0  0  0  0
    7.0635   -8.2216    0.0000 C   0  0  0  0  0  0  0  0  0  0  0  0
    7.5426   -8.8836    0.0000 O   0  0  0  0  0  0  0  0  0  0  0  0
    7.3973   -7.4757    0.0000 C   0  0  0  0  0  0  0  0  0  0  0  0
    8.2104   -7.3958    0.0000 C   0  0  0  0  0  0  0  0  0  0  0  0
    8.5442   -6.6507    0.0000 C   0  0  0  0  0  0  0  0  0  0  0  0
    8.0649   -5.9877    0.0000 C   0  0  0  0  0  0  0  0  0  0  0  0
    7.2481   -6.0747    0.0000 C   0  0  0  0  0  0  0  0  0  0  0  0
    6.9181   -6.8200    0.0000 C   0  0  0  0  0  0  0  0  0  0  0  0
    6.3923   -9.7189    0.0000 C   0  0  0  0  0  0  0  0  0  0  0  0
    6.0577  -10.4619    0.0000 C   0  0  0  0  0  0  0  0  0  0  0  0
    6.5360  -11.1235    0.0000 C   0  0  0  0  0  0  0  0  0  0  0  0
    7.3498  -11.0400    0.0000 C   0  0  0  0  0  0  0  0  0  0  0  0
    7.6829  -10.2891    0.0000 C   0  0  0  0  0  0  0  0  0  0  0  0
    7.2025   -9.6306    0.0000 C   0  0  0  0  0  0  0  0  0  0  0  0
  1  2  2  0
  2  3  1  0
  3  6  2  0
  5  4  2  0
  4  1  1  0
  5  6  1  0
  6  7  1  0
  7  9  1  0
  8  5  1  0
  8  9  2  0
  8 13  1  0
  9 10  1  0
 10 11  1  0
 11 12  1  0
 12 13  1  0
 11 14  1  0
 14 15  2  0
 14 16  1  0
 16 17  2  0
 17 18  1  0
 18 19  2  0
 19 20  1  0
 20 21  2  0
 21 16  1  0
 10 22  1  0
 22 23  2  0
 23 24  1  0
 24 25  2  0
 25 26  1  0
 26 27  2  0
 27 22  1  0
M  END
>  <Classification>  (718) 
1

>  <pchembl>  (718) 
5.56

>  <InChI_steorem>  (718) 
InChI=1S/C24H20N2O/c27-24(18-11-5-2-6-12-18)26-16-15-20-19-13-7-8-14-21(19)25-22(20)23(26)17-9-3-1-4-10-17/h1-14,23,25H,15-16H2

>  <source>  (718) 
ChEMBL28

>  <source_id>  (718) 
28

>  <optional_reference>  (718) 
10.1021/acs.jmedchem.6b00035

>  <optional_origin>  (718) 
None

>  <target>  (718) 
BCRP

$$$$

     RDKit          2D

 28 31  0  0  0  0  0  0  0  0999 V2000
   18.0841   -4.1148    0.0000 C   0  0  0  0  0  0  0  0  0  0  0  0
   18.0830   -4.9343    0.0000 C   0  0  0  0  0  0  0  0  0  0  0  0
   18.7910   -5.3433    0.0000 C   0  0  0  0  0  0  0  0  0  0  0  0
   18.7892   -3.7059    0.0000 C   0  0  0  0  0  0  0  0  0  0  0  0
   19.4978   -4.1112    0.0000 C   0  0  0  0  0  0  0  0  0  0  0  0
   19.4986   -4.9302    0.0000 C   0  0  0  0  0  0  0  0  0  0  0  0
   20.2071   -5.3373    0.0000 N   0  0  0  0  0  0  0  0  0  0  0  0
   20.9154   -4.9265    0.0000 C   0  0  0  0  0  0  0  0  0  0  0  0
   20.9107   -4.1043    0.0000 N   0  0  0  0  0  0  0  0  0  0  0  0
   20.2015   -3.7010    0.0000 C   0  0  0  0  0  0  0  0  0  0  0  0
   21.6288   -5.3295    0.0000 C   0  0  0  0  0  0  0  0  0  0  0  0
   20.1972   -2.8838    0.0000 N   0  0  0  0  0  0  0  0  0  0  0  0
   21.6316   -6.1487    0.0000 C   0  0  0  0  0  0  0  0  0  0  0  0
   22.3442   -6.5516    0.0000 C   0  0  0  0  0  0  0  0  0  0  0  0
   23.0509   -6.1352    0.0000 C   0  0  0  0  0  0  0  0  0  0  0  0
   23.0405   -5.3117    0.0000 C   0  0  0  0  0  0  0  0  0  0  0  0
   22.3274   -4.9124    0.0000 C   0  0  0  0  0  0  0  0  0  0  0  0
   20.9027   -2.4715    0.0000 C   0  0  0  0  0  0  0  0  0  0  0  0
   20.8984   -1.6543    0.0000 O   0  0  0  0  0  0  0  0  0  0  0  0
   21.6126   -2.8763    0.0000 C   0  0  0  0  0  0  0  0  0  0  0  0
   21.6117   -3.6908    0.0000 C   0  0  0  0  0  0  0  0  0  0  0  0
   22.3208   -4.0956    0.0000 C   0  0  0  0  0  0  0  0  0  0  0  0
   23.0273   -3.6832    0.0000 C   0  0  0  0  0  0  0  0  0  0  0  0
   23.0203   -2.8618    0.0000 C   0  0  0  0  0  0  0  0  0  0  0  0
   22.3107   -2.4607    0.0000 C   0  0  0  0  0  0  0  0  0  0  0  0
   23.7284   -2.4457    0.0000 N   0  0  0  0  0  0  0  0  0  0  0  0
   23.7211   -1.6286    0.0000 O   0  0  0  0  0  0  0  0  0  0  0  0
   24.4397   -2.8481    0.0000 O   0  0  0  0  0  0  0  0  0  0  0  0
  1  2  2  0
  2  3  1  0
  3  6  2  0
  5  4  2  0
  4  1  1  0
  5  6  1  0
  6  7  1  0
  7  8  2  0
  8  9  1  0
  9 10  2  0
 10  5  1  0
  8 11  1  0
 10 12  1  0
 11 13  2  0
 13 14  1  0
 14 15  2  0
 15 16  1  0
 16 17  2  0
 17 11  1  0
 12 18  1  0
 18 19  2  0
 18 20  1  0
 20 21  2  0
 21 22  1  0
 22 23  2  0
 23 24  1  0
 24 25  2  0
 25 20  1  0
 26 27  2  0
 26 28  1  0
 24 26  1  0
M  CHG  2  26   1  28  -1
M  END
>  <Classification>  (719) 
1

>  <pchembl>  (719) 
7.26

>  <InChI_steorem>  (719) 
InChI=1S/C21H14N4O3/c26-21(15-9-6-10-16(13-15)25(27)28)24-20-17-11-4-5-12-18(17)22-19(23-20)14-7-2-1-3-8-14/h1-13H,(H,22,23,24,26)

>  <source>  (719) 
ChEMBL28

>  <source_id>  (719) 
28

>  <optional_reference>  (719) 
10.1016/j.ejmech.2018.10.026

>  <optional_origin>  (719) 
None

>  <target>  (719) 
BCRP

$$$$

     RDKit          2D

 28 31  0  0  0  0  0  0  0  0999 V2000
   26.8751   -3.7310    0.0000 C   0  0  0  0  0  0  0  0  0  0  0  0
   26.8739   -4.5505    0.0000 C   0  0  0  0  0  0  0  0  0  0  0  0
   27.5820   -4.9595    0.0000 C   0  0  0  0  0  0  0  0  0  0  0  0
   27.5802   -3.3221    0.0000 C   0  0  0  0  0  0  0  0  0  0  0  0
   28.2888   -3.7274    0.0000 C   0  0  0  0  0  0  0  0  0  0  0  0
   28.2896   -4.5464    0.0000 C   0  0  0  0  0  0  0  0  0  0  0  0
   28.9981   -4.9535    0.0000 N   0  0  0  0  0  0  0  0  0  0  0  0
   29.7064   -4.5426    0.0000 C   0  0  0  0  0  0  0  0  0  0  0  0
   29.7016   -3.7205    0.0000 N   0  0  0  0  0  0  0  0  0  0  0  0
   28.9925   -3.3171    0.0000 C   0  0  0  0  0  0  0  0  0  0  0  0
   30.4198   -4.9456    0.0000 C   0  0  0  0  0  0  0  0  0  0  0  0
   28.9882   -2.5000    0.0000 N   0  0  0  0  0  0  0  0  0  0  0  0
   30.4226   -5.7649    0.0000 C   0  0  0  0  0  0  0  0  0  0  0  0
   31.1352   -6.1678    0.0000 C   0  0  0  0  0  0  0  0  0  0  0  0
   31.8419   -5.7514    0.0000 C   0  0  0  0  0  0  0  0  0  0  0  0
   31.8315   -4.9278    0.0000 C   0  0  0  0  0  0  0  0  0  0  0  0
   31.1184   -4.5286    0.0000 C   0  0  0  0  0  0  0  0  0  0  0  0
   29.6937   -2.0876    0.0000 C   0  0  0  0  0  0  0  0  0  0  0  0
   29.6894   -1.2704    0.0000 O   0  0  0  0  0  0  0  0  0  0  0  0
   30.4036   -2.4925    0.0000 C   0  0  0  0  0  0  0  0  0  0  0  0
   30.4027   -3.3070    0.0000 C   0  0  0  0  0  0  0  0  0  0  0  0
   31.1118   -3.7118    0.0000 C   0  0  0  0  0  0  0  0  0  0  0  0
   31.8183   -3.2994    0.0000 C   0  0  0  0  0  0  0  0  0  0  0  0
   31.8113   -2.4780    0.0000 C   0  0  0  0  0  0  0  0  0  0  0  0
   31.1017   -2.0769    0.0000 C   0  0  0  0  0  0  0  0  0  0  0  0
   32.5312   -3.7032    0.0000 N   0  0  0  0  0  0  0  0  0  0  0  0
   33.2362   -3.2899    0.0000 O   0  0  0  0  0  0  0  0  0  0  0  0
   32.5366   -4.5204    0.0000 O   0  0  0  0  0  0  0  0  0  0  0  0
  1  2  2  0
  2  3  1  0
  3  6  2  0
  5  4  2  0
  4  1  1  0
  5  6  1  0
  6  7  1  0
  7  8  2  0
  8  9  1  0
  9 10  2  0
 10  5  1  0
  8 11  1  0
 10 12  1  0
 11 13  2  0
 13 14  1  0
 14 15  2  0
 15 16  1  0
 16 17  2  0
 17 11  1  0
 12 18  1  0
 18 19  2  0
 18 20  1  0
 20 21  2  0
 21 22  1  0
 22 23  2  0
 23 24  1  0
 24 25  2  0
 25 20  1  0
 26 27  2  0
 26 28  1  0
 23 26  1  0
M  CHG  2  26   1  28  -1
M  END
>  <Classification>  (720) 
1

>  <pchembl>  (720) 
7.03

>  <InChI_steorem>  (720) 
InChI=1S/C21H14N4O3/c26-21(15-10-12-16(13-11-15)25(27)28)24-20-17-8-4-5-9-18(17)22-19(23-20)14-6-2-1-3-7-14/h1-13H,(H,22,23,24,26)

>  <source>  (720) 
ChEMBL28

>  <source_id>  (720) 
28

>  <optional_reference>  (720) 
10.1016/j.ejmech.2018.10.026

>  <optional_origin>  (720) 
None

>  <target>  (720) 
BCRP

$$$$

     RDKit          2D

 28 31  0  0  0  0  0  0  0  0999 V2000
    9.6522   -3.9084    0.0000 C   0  0  0  0  0  0  0  0  0  0  0  0
    9.6510   -4.7280    0.0000 C   0  0  0  0  0  0  0  0  0  0  0  0
   10.3591   -5.1369    0.0000 C   0  0  0  0  0  0  0  0  0  0  0  0
   10.3573   -3.4996    0.0000 C   0  0  0  0  0  0  0  0  0  0  0  0
   11.0659   -3.9048    0.0000 C   0  0  0  0  0  0  0  0  0  0  0  0
   11.0667   -4.7239    0.0000 C   0  0  0  0  0  0  0  0  0  0  0  0
   11.7752   -5.1309    0.0000 N   0  0  0  0  0  0  0  0  0  0  0  0
   12.4835   -4.7201    0.0000 C   0  0  0  0  0  0  0  0  0  0  0  0
   12.4787   -3.8980    0.0000 N   0  0  0  0  0  0  0  0  0  0  0  0
   11.7696   -3.4946    0.0000 C   0  0  0  0  0  0  0  0  0  0  0  0
   13.1969   -5.1231    0.0000 C   0  0  0  0  0  0  0  0  0  0  0  0
   11.7653   -2.6774    0.0000 N   0  0  0  0  0  0  0  0  0  0  0  0
   13.1997   -5.9424    0.0000 C   0  0  0  0  0  0  0  0  0  0  0  0
   13.9123   -6.3453    0.0000 C   0  0  0  0  0  0  0  0  0  0  0  0
   14.6190   -5.9289    0.0000 C   0  0  0  0  0  0  0  0  0  0  0  0
   14.6086   -5.1053    0.0000 C   0  0  0  0  0  0  0  0  0  0  0  0
   13.8955   -4.7061    0.0000 C   0  0  0  0  0  0  0  0  0  0  0  0
   12.4708   -2.2651    0.0000 C   0  0  0  0  0  0  0  0  0  0  0  0
   12.4665   -1.4479    0.0000 O   0  0  0  0  0  0  0  0  0  0  0  0
   13.1807   -2.6699    0.0000 C   0  0  0  0  0  0  0  0  0  0  0  0
   13.1798   -3.4845    0.0000 C   0  0  0  0  0  0  0  0  0  0  0  0
   13.8888   -3.8892    0.0000 C   0  0  0  0  0  0  0  0  0  0  0  0
   14.5954   -3.4768    0.0000 C   0  0  0  0  0  0  0  0  0  0  0  0
   14.5884   -2.6554    0.0000 C   0  0  0  0  0  0  0  0  0  0  0  0
   13.8788   -2.2544    0.0000 C   0  0  0  0  0  0  0  0  0  0  0  0
   13.8659   -1.4392    0.0000 N   0  0  0  0  0  0  0  0  0  0  0  0
   13.1536   -1.0385    0.0000 O   0  0  0  0  0  0  0  0  0  0  0  0
   14.5689   -1.0226    0.0000 O   0  0  0  0  0  0  0  0  0  0  0  0
  1  2  2  0
  2  3  1  0
  3  6  2  0
  5  4  2  0
  4  1  1  0
  5  6  1  0
  6  7  1  0
  7  8  2  0
  8  9  1  0
  9 10  2  0
 10  5  1  0
  8 11  1  0
 10 12  1  0
 11 13  2  0
 13 14  1  0
 14 15  2  0
 15 16  1  0
 16 17  2  0
 17 11  1  0
 12 18  1  0
 18 19  2  0
 18 20  1  0
 20 21  2  0
 21 22  1  0
 22 23  2  0
 23 24  1  0
 24 25  2  0
 25 20  1  0
 26 27  2  0
 26 28  1  0
 25 26  1  0
M  CHG  2  26   1  28  -1
M  END
>  <Classification>  (721) 
1

>  <pchembl>  (721) 
6.0

>  <InChI_steorem>  (721) 
InChI=1S/C21H14N4O3/c26-21(16-11-5-7-13-18(16)25(27)28)24-20-15-10-4-6-12-17(15)22-19(23-20)14-8-2-1-3-9-14/h1-13H,(H,22,23,24,26)

>  <source>  (721) 
ChEMBL28

>  <source_id>  (721) 
28

>  <optional_reference>  (721) 
10.1016/j.ejmech.2018.10.026

>  <optional_origin>  (721) 
None

>  <target>  (721) 
BCRP

$$$$

     RDKit          2D

 28 32  0  0  0  0  0  0  0  0999 V2000
   11.8313   -3.6030    0.0000 C   0  0  0  0  0  0  0  0  0  0  0  0
   11.8302   -4.4226    0.0000 C   0  0  0  0  0  0  0  0  0  0  0  0
   12.5382   -4.8315    0.0000 C   0  0  0  0  0  0  0  0  0  0  0  0
   12.5365   -3.1942    0.0000 C   0  0  0  0  0  0  0  0  0  0  0  0
   13.2451   -3.5994    0.0000 C   0  0  0  0  0  0  0  0  0  0  0  0
   13.2453   -4.4226    0.0000 C   0  0  0  0  0  0  0  0  0  0  0  0
   14.0283   -4.6768    0.0000 N   0  0  0  0  0  0  0  0  0  0  0  0
   14.0279   -3.3449    0.0000 C   0  0  0  0  0  0  0  0  0  0  0  0
   14.5121   -4.0120    0.0000 C   0  0  0  0  0  0  0  0  0  0  0  0
   15.3274   -3.9267    0.0000 C   0  0  0  0  0  0  0  0  0  0  0  0
   15.6648   -3.1753    0.0000 N   0  0  0  0  0  0  0  0  0  0  0  0
   15.1807   -2.5082    0.0000 C   0  0  0  0  0  0  0  0  0  0  0  0
   14.3590   -2.5925    0.0000 C   0  0  0  0  0  0  0  0  0  0  0  0
   16.4777   -3.0914    0.0000 C   0  0  0  0  0  0  0  0  0  0  0  0
   16.9568   -3.7534    0.0000 O   0  0  0  0  0  0  0  0  0  0  0  0
   16.8115   -2.3455    0.0000 C   0  0  0  0  0  0  0  0  0  0  0  0
   17.6246   -2.2657    0.0000 C   0  0  0  0  0  0  0  0  0  0  0  0
   17.9584   -1.5206    0.0000 C   0  0  0  0  0  0  0  0  0  0  0  0
   17.4792   -0.8576    0.0000 C   0  0  0  0  0  0  0  0  0  0  0  0
   16.6623   -0.9445    0.0000 C   0  0  0  0  0  0  0  0  0  0  0  0
   16.3323   -1.6898    0.0000 C   0  0  0  0  0  0  0  0  0  0  0  0
   15.8073   -4.5854    0.0000 C   0  0  0  0  0  0  0  0  0  0  0  0
   15.4719   -5.3318    0.0000 C   0  0  0  0  0  0  0  0  0  0  0  0
   15.9502   -5.9934    0.0000 C   0  0  0  0  0  0  0  0  0  0  0  0
   16.7640   -5.9098    0.0000 C   0  0  0  0  0  0  0  0  0  0  0  0
   17.0971   -5.1590    0.0000 C   0  0  0  0  0  0  0  0  0  0  0  0
   16.6167   -4.5005    0.0000 C   0  0  0  0  0  0  0  0  0  0  0  0
   17.2440   -6.5712    0.0000 Cl  0  0  0  0  0  0  0  0  0  0  0  0
  1  2  2  0
  2  3  1  0
  3  6  2  0
  5  4  2  0
  4  1  1  0
  5  6  1  0
  6  7  1  0
  7  9  1  0
  8  5  1  0
  8  9  2  0
  8 13  1  0
  9 10  1  0
 10 11  1  0
 11 12  1  0
 12 13  1  0
 11 14  1  0
 14 15  2  0
 14 16  1  0
 16 17  2  0
 17 18  1  0
 18 19  2  0
 19 20  1  0
 20 21  2  0
 21 16  1  0
 22 23  2  0
 23 24  1  0
 24 25  2  0
 25 26  1  0
 26 27  2  0
 27 22  1  0
 10 22  1  0
 25 28  1  0
M  END
>  <Classification>  (722) 
1

>  <pchembl>  (722) 
6.11

>  <InChI_steorem>  (722) 
InChI=1S/C24H19ClN2O/c25-18-12-10-16(11-13-18)23-22-20(19-8-4-5-9-21(19)26-22)14-15-27(23)24(28)17-6-2-1-3-7-17/h1-13,23,26H,14-15H2

>  <source>  (722) 
ChEMBL28

>  <source_id>  (722) 
28

>  <optional_reference>  (722) 
10.1021/acs.jmedchem.6b00035

>  <optional_origin>  (722) 
None

>  <target>  (722) 
BCRP

$$$$

     RDKit          2D

 28 32  0  0  0  0  0  0  0  0999 V2000
   12.8095  -12.0391    0.0000 C   0  0  0  0  0  0  0  0  0  0  0  0
   12.8084  -12.8586    0.0000 C   0  0  0  0  0  0  0  0  0  0  0  0
   13.5164  -13.2676    0.0000 C   0  0  0  0  0  0  0  0  0  0  0  0
   13.5146  -11.6302    0.0000 C   0  0  0  0  0  0  0  0  0  0  0  0
   14.2232  -12.0355    0.0000 C   0  0  0  0  0  0  0  0  0  0  0  0
   14.2235  -12.8587    0.0000 C   0  0  0  0  0  0  0  0  0  0  0  0
   15.0065  -13.1128    0.0000 N   0  0  0  0  0  0  0  0  0  0  0  0
   15.0060  -11.7809    0.0000 C   0  0  0  0  0  0  0  0  0  0  0  0
   15.4902  -12.4481    0.0000 C   0  0  0  0  0  0  0  0  0  0  0  0
   16.3055  -12.3628    0.0000 C   0  0  0  0  0  0  0  0  0  0  0  0
   16.6430  -11.6114    0.0000 N   0  0  0  0  0  0  0  0  0  0  0  0
   16.1588  -10.9443    0.0000 C   0  0  0  0  0  0  0  0  0  0  0  0
   15.3372  -11.0285    0.0000 C   0  0  0  0  0  0  0  0  0  0  0  0
   17.4559  -11.5275    0.0000 C   0  0  0  0  0  0  0  0  0  0  0  0
   17.9350  -12.1895    0.0000 O   0  0  0  0  0  0  0  0  0  0  0  0
   17.7897  -10.7816    0.0000 C   0  0  0  0  0  0  0  0  0  0  0  0
   18.6028  -10.7017    0.0000 C   0  0  0  0  0  0  0  0  0  0  0  0
   18.9366   -9.9566    0.0000 C   0  0  0  0  0  0  0  0  0  0  0  0
   18.4573   -9.2936    0.0000 C   0  0  0  0  0  0  0  0  0  0  0  0
   17.6405   -9.3806    0.0000 C   0  0  0  0  0  0  0  0  0  0  0  0
   17.3104  -10.1259    0.0000 C   0  0  0  0  0  0  0  0  0  0  0  0
   16.7855  -13.0214    0.0000 C   0  0  0  0  0  0  0  0  0  0  0  0
   16.4500  -13.7678    0.0000 C   0  0  0  0  0  0  0  0  0  0  0  0
   16.9284  -14.4294    0.0000 C   0  0  0  0  0  0  0  0  0  0  0  0
   17.7422  -14.3459    0.0000 C   0  0  0  0  0  0  0  0  0  0  0  0
   18.0753  -13.5950    0.0000 C   0  0  0  0  0  0  0  0  0  0  0  0
   17.5949  -12.9365    0.0000 C   0  0  0  0  0  0  0  0  0  0  0  0
   18.2221  -15.0072    0.0000 C   0  0  0  0  0  0  0  0  0  0  0  0
  1  2  2  0
  2  3  1  0
  3  6  2  0
  5  4  2  0
  4  1  1  0
  5  6  1  0
  6  7  1  0
  7  9  1  0
  8  5  1  0
  8  9  2  0
  8 13  1  0
  9 10  1  0
 10 11  1  0
 11 12  1  0
 12 13  1  0
 11 14  1  0
 14 15  2  0
 14 16  1  0
 16 17  2  0
 17 18  1  0
 18 19  2  0
 19 20  1  0
 20 21  2  0
 21 16  1  0
 22 23  2  0
 23 24  1  0
 24 25  2  0
 25 26  1  0
 26 27  2  0
 27 22  1  0
 10 22  1  0
 25 28  1  0
M  END
>  <Classification>  (723) 
1

>  <pchembl>  (723) 
5.84

>  <InChI_steorem>  (723) 
InChI=1S/C25H22N2O/c1-17-11-13-18(14-12-17)24-23-21(20-9-5-6-10-22(20)26-23)15-16-27(24)25(28)19-7-3-2-4-8-19/h2-14,24,26H,15-16H2,1H3

>  <source>  (723) 
ChEMBL28

>  <source_id>  (723) 
28

>  <optional_reference>  (723) 
10.1021/acs.jmedchem.6b00035

>  <optional_origin>  (723) 
None

>  <target>  (723) 
BCRP

$$$$

     RDKit          2D

 28 32  0  0  0  0  0  0  0  0999 V2000
    2.7102   -3.8176    0.0000 C   0  0  0  0  0  0  0  0  0  0  0  0
    2.7090   -4.6372    0.0000 C   0  0  0  0  0  0  0  0  0  0  0  0
    3.4171   -5.0461    0.0000 C   0  0  0  0  0  0  0  0  0  0  0  0
    3.4153   -3.4088    0.0000 C   0  0  0  0  0  0  0  0  0  0  0  0
    4.1239   -3.8140    0.0000 C   0  0  0  0  0  0  0  0  0  0  0  0
    4.1242   -4.6372    0.0000 C   0  0  0  0  0  0  0  0  0  0  0  0
    4.9071   -4.8914    0.0000 N   0  0  0  0  0  0  0  0  0  0  0  0
    4.9067   -3.5595    0.0000 C   0  0  0  0  0  0  0  0  0  0  0  0
    5.3909   -4.2266    0.0000 C   0  0  0  0  0  0  0  0  0  0  0  0
    6.2062   -4.1413    0.0000 C   0  0  0  0  0  0  0  0  0  0  0  0
    6.5437   -3.3899    0.0000 N   0  0  0  0  0  0  0  0  0  0  0  0
    6.0595   -2.7228    0.0000 C   0  0  0  0  0  0  0  0  0  0  0  0
    5.2378   -2.8071    0.0000 C   0  0  0  0  0  0  0  0  0  0  0  0
    7.3565   -3.3060    0.0000 C   0  0  0  0  0  0  0  0  0  0  0  0
    7.8356   -3.9681    0.0000 O   0  0  0  0  0  0  0  0  0  0  0  0
    7.6903   -2.5601    0.0000 C   0  0  0  0  0  0  0  0  0  0  0  0
    8.5034   -2.4803    0.0000 C   0  0  0  0  0  0  0  0  0  0  0  0
    8.8372   -1.7352    0.0000 C   0  0  0  0  0  0  0  0  0  0  0  0
    8.3580   -1.0722    0.0000 C   0  0  0  0  0  0  0  0  0  0  0  0
    7.5412   -1.1592    0.0000 C   0  0  0  0  0  0  0  0  0  0  0  0
    7.2111   -1.9044    0.0000 C   0  0  0  0  0  0  0  0  0  0  0  0
    6.6861   -4.8000    0.0000 C   0  0  0  0  0  0  0  0  0  0  0  0
    6.3507   -5.5464    0.0000 C   0  0  0  0  0  0  0  0  0  0  0  0
    6.8291   -6.2080    0.0000 C   0  0  0  0  0  0  0  0  0  0  0  0
    7.6428   -6.1244    0.0000 C   0  0  0  0  0  0  0  0  0  0  0  0
    7.9759   -5.3736    0.0000 C   0  0  0  0  0  0  0  0  0  0  0  0
    7.4955   -4.7151    0.0000 C   0  0  0  0  0  0  0  0  0  0  0  0
    8.1228   -6.7858    0.0000 Br  0  0  0  0  0  0  0  0  0  0  0  0
  1  2  2  0
  2  3  1  0
  3  6  2  0
  5  4  2  0
  4  1  1  0
  5  6  1  0
  6  7  1  0
  7  9  1  0
  8  5  1  0
  8  9  2  0
  8 13  1  0
  9 10  1  0
 10 11  1  0
 11 12  1  0
 12 13  1  0
 11 14  1  0
 14 15  2  0
 14 16  1  0
 16 17  2  0
 17 18  1  0
 18 19  2  0
 19 20  1  0
 20 21  2  0
 21 16  1  0
 22 23  2  0
 23 24  1  0
 24 25  2  0
 25 26  1  0
 26 27  2  0
 27 22  1  0
 10 22  1  0
 25 28  1  0
M  END
>  <Classification>  (724) 
1

>  <pchembl>  (724) 
6.16

>  <InChI_steorem>  (724) 
InChI=1S/C24H19BrN2O/c25-18-12-10-16(11-13-18)23-22-20(19-8-4-5-9-21(19)26-22)14-15-27(23)24(28)17-6-2-1-3-7-17/h1-13,23,26H,14-15H2

>  <source>  (724) 
ChEMBL28

>  <source_id>  (724) 
28

>  <optional_reference>  (724) 
10.1021/acs.jmedchem.6b00035

>  <optional_origin>  (724) 
None

>  <target>  (724) 
BCRP

$$$$

     RDKit          2D

 28 32  0  0  0  0  0  0  0  0999 V2000
   29.8096   -2.3979    0.0000 C   0  0  0  0  0  0  0  0  0  0  0  0
   29.8084   -3.2174    0.0000 C   0  0  0  0  0  0  0  0  0  0  0  0
   30.5165   -3.6264    0.0000 C   0  0  0  0  0  0  0  0  0  0  0  0
   30.5147   -1.9890    0.0000 C   0  0  0  0  0  0  0  0  0  0  0  0
   31.2233   -2.3943    0.0000 C   0  0  0  0  0  0  0  0  0  0  0  0
   31.2235   -3.2175    0.0000 C   0  0  0  0  0  0  0  0  0  0  0  0
   32.0065   -3.4716    0.0000 N   0  0  0  0  0  0  0  0  0  0  0  0
   32.0061   -2.1397    0.0000 C   0  0  0  0  0  0  0  0  0  0  0  0
   32.4903   -2.8068    0.0000 C   0  0  0  0  0  0  0  0  0  0  0  0
   33.3056   -2.7216    0.0000 C   0  0  0  0  0  0  0  0  0  0  0  0
   33.6431   -1.9702    0.0000 N   0  0  0  0  0  0  0  0  0  0  0  0
   33.1589   -1.3031    0.0000 C   0  0  0  0  0  0  0  0  0  0  0  0
   32.3372   -1.3873    0.0000 C   0  0  0  0  0  0  0  0  0  0  0  0
   34.4559   -1.8863    0.0000 C   0  0  0  0  0  0  0  0  0  0  0  0
   34.9350   -2.5483    0.0000 O   0  0  0  0  0  0  0  0  0  0  0  0
   34.7897   -1.1404    0.0000 C   0  0  0  0  0  0  0  0  0  0  0  0
   35.6028   -1.0605    0.0000 C   0  0  0  0  0  0  0  0  0  0  0  0
   35.9366   -0.3154    0.0000 C   0  0  0  0  0  0  0  0  0  0  0  0
   35.4574    0.3541    0.0000 C   0  0  0  0  0  0  0  0  0  0  0  0
   34.6406    0.2677    0.0000 C   0  0  0  0  0  0  0  0  0  0  0  0
   34.3105   -0.4847    0.0000 C   0  0  0  0  0  0  0  0  0  0  0  0
   33.7855   -3.3802    0.0000 C   0  0  0  0  0  0  0  0  0  0  0  0
   33.4501   -4.1266    0.0000 C   0  0  0  0  0  0  0  0  0  0  0  0
   33.9284   -4.7882    0.0000 C   0  0  0  0  0  0  0  0  0  0  0  0
   34.7422   -4.7047    0.0000 C   0  0  0  0  0  0  0  0  0  0  0  0
   35.0753   -3.9538    0.0000 C   0  0  0  0  0  0  0  0  0  0  0  0
   34.5949   -3.2953    0.0000 C   0  0  0  0  0  0  0  0  0  0  0  0
   32.6371   -4.2097    0.0000 F   0  0  0  0  0  0  0  0  0  0  0  0
  1  2  2  0
  2  3  1  0
  3  6  2  0
  5  4  2  0
  4  1  1  0
  5  6  1  0
  6  7  1  0
  7  9  1  0
  8  5  1  0
  8  9  2  0
  8 13  1  0
  9 10  1  0
 10 11  1  0
 11 12  1  0
 12 13  1  0
 11 14  1  0
 14 15  2  0
 14 16  1  0
 16 17  2  0
 17 18  1  0
 18 19  2  0
 19 20  1  0
 20 21  2  0
 21 16  1  0
 22 23  2  0
 23 24  1  0
 24 25  2  0
 25 26  1  0
 26 27  2  0
 27 22  1  0
 10 22  1  0
 23 28  1  0
M  END
>  <Classification>  (725) 
1

>  <pchembl>  (725) 
5.35

>  <InChI_steorem>  (725) 
InChI=1S/C24H19FN2O/c25-20-12-6-4-11-19(20)23-22-18(17-10-5-7-13-21(17)26-22)14-15-27(23)24(28)16-8-2-1-3-9-16/h1-13,23,26H,14-15H2

>  <source>  (725) 
ChEMBL28

>  <source_id>  (725) 
28

>  <optional_reference>  (725) 
10.1021/acs.jmedchem.6b00035

>  <optional_origin>  (725) 
None

>  <target>  (725) 
BCRP

$$$$

     RDKit          2D

 28 32  0  0  0  0  0  0  0  0999 V2000
   30.7795   -6.5829    0.0000 C   0  0  0  0  0  0  0  0  0  0  0  0
   30.7783   -7.4024    0.0000 C   0  0  0  0  0  0  0  0  0  0  0  0
   31.4864   -7.8114    0.0000 C   0  0  0  0  0  0  0  0  0  0  0  0
   31.4846   -6.1740    0.0000 C   0  0  0  0  0  0  0  0  0  0  0  0
   32.1932   -6.5793    0.0000 C   0  0  0  0  0  0  0  0  0  0  0  0
   32.1934   -7.4025    0.0000 C   0  0  0  0  0  0  0  0  0  0  0  0
   32.9764   -7.6566    0.0000 N   0  0  0  0  0  0  0  0  0  0  0  0
   32.9760   -6.3247    0.0000 C   0  0  0  0  0  0  0  0  0  0  0  0
   33.4602   -6.9919    0.0000 C   0  0  0  0  0  0  0  0  0  0  0  0
   34.2755   -6.9066    0.0000 C   0  0  0  0  0  0  0  0  0  0  0  0
   34.6130   -6.1552    0.0000 N   0  0  0  0  0  0  0  0  0  0  0  0
   34.1288   -5.4881    0.0000 C   0  0  0  0  0  0  0  0  0  0  0  0
   33.3071   -5.5724    0.0000 C   0  0  0  0  0  0  0  0  0  0  0  0
   35.4258   -6.0713    0.0000 C   0  0  0  0  0  0  0  0  0  0  0  0
   35.9049   -6.7333    0.0000 O   0  0  0  0  0  0  0  0  0  0  0  0
   35.7596   -5.3254    0.0000 C   0  0  0  0  0  0  0  0  0  0  0  0
   36.5727   -5.2455    0.0000 C   0  0  0  0  0  0  0  0  0  0  0  0
   36.9065   -4.5004    0.0000 C   0  0  0  0  0  0  0  0  0  0  0  0
   36.4273   -3.8374    0.0000 C   0  0  0  0  0  0  0  0  0  0  0  0
   35.6104   -3.9244    0.0000 C   0  0  0  0  0  0  0  0  0  0  0  0
   35.2804   -4.6697    0.0000 C   0  0  0  0  0  0  0  0  0  0  0  0
   34.7554   -7.5652    0.0000 C   0  0  0  0  0  0  0  0  0  0  0  0
   34.4200   -8.3116    0.0000 C   0  0  0  0  0  0  0  0  0  0  0  0
   34.8983   -8.9732    0.0000 C   0  0  0  0  0  0  0  0  0  0  0  0
   35.7121   -8.8897    0.0000 C   0  0  0  0  0  0  0  0  0  0  0  0
   36.0452   -8.1388    0.0000 C   0  0  0  0  0  0  0  0  0  0  0  0
   35.5648   -7.4804    0.0000 C   0  0  0  0  0  0  0  0  0  0  0  0
   36.1921   -9.5511    0.0000 F   0  0  0  0  0  0  0  0  0  0  0  0
  1  2  2  0
  2  3  1  0
  3  6  2  0
  5  4  2  0
  4  1  1  0
  5  6  1  0
  6  7  1  0
  7  9  1  0
  8  5  1  0
  8  9  2  0
  8 13  1  0
  9 10  1  0
 10 11  1  0
 11 12  1  0
 12 13  1  0
 11 14  1  0
 14 15  2  0
 14 16  1  0
 16 17  2  0
 17 18  1  0
 18 19  2  0
 19 20  1  0
 20 21  2  0
 21 16  1  0
 22 23  2  0
 23 24  1  0
 24 25  2  0
 25 26  1  0
 26 27  2  0
 27 22  1  0
 10 22  1  0
 25 28  1  0
M  END
>  <Classification>  (726) 
1

>  <pchembl>  (726) 
5.72

>  <InChI_steorem>  (726) 
InChI=1S/C24H19FN2O/c25-18-12-10-16(11-13-18)23-22-20(19-8-4-5-9-21(19)26-22)14-15-27(23)24(28)17-6-2-1-3-7-17/h1-13,23,26H,14-15H2

>  <source>  (726) 
ChEMBL28

>  <source_id>  (726) 
28

>  <optional_reference>  (726) 
10.1021/acs.jmedchem.6b00035

>  <optional_origin>  (726) 
None

>  <target>  (726) 
BCRP

$$$$

     RDKit          2D

 28 32  0  0  0  0  0  0  0  0999 V2000
    3.4407  -21.9527    0.0000 C   0  0  0  0  0  0  0  0  0  0  0  0
    3.4395  -22.7722    0.0000 C   0  0  0  0  0  0  0  0  0  0  0  0
    4.1476  -23.1812    0.0000 C   0  0  0  0  0  0  0  0  0  0  0  0
    4.8573  -22.7718    0.0000 C   0  0  0  0  0  0  0  0  0  0  0  0
    4.8544  -21.9491    0.0000 C   0  0  0  0  0  0  0  0  0  0  0  0
    4.1458  -21.5438    0.0000 C   0  0  0  0  0  0  0  0  0  0  0  0
    5.5633  -23.1784    0.0000 N   0  0  0  0  0  0  0  0  0  0  0  0
    5.5626  -23.9966    0.0000 C   0  0  0  0  0  0  0  0  0  0  0  0
    6.2669  -24.4040    0.0000 C   0  0  0  0  0  0  0  0  0  0  0  0
    6.9764  -23.9978    0.0000 N   0  0  0  0  0  0  0  0  0  0  0  0
    6.9771  -23.1796    0.0000 C   0  0  0  0  0  0  0  0  0  0  0  0
    6.2683  -22.7677    0.0000 C   0  0  0  0  0  0  0  0  0  0  0  0
    4.1474  -23.9984    0.0000 F   0  0  0  0  0  0  0  0  0  0  0  0
    7.6832  -24.4079    0.0000 C   0  0  0  0  0  0  0  0  0  0  0  0
    8.3918  -24.0009    0.0000 C   0  0  0  0  0  0  0  0  0  0  0  0
    9.1369  -24.3333    0.0000 N   0  0  0  0  0  0  0  0  0  0  0  0
    9.6850  -23.7272    0.0000 C   0  0  0  0  0  0  0  0  0  0  0  0
    9.2780  -23.0186    0.0000 S   0  0  0  0  0  0  0  0  0  0  0  0
    8.4783  -23.1868    0.0000 C   0  0  0  0  0  0  0  0  0  0  0  0
   10.4976  -23.8145    0.0000 C   0  0  0  0  0  0  0  0  0  0  0  0
   10.8242  -24.5643    0.0000 C   0  0  0  0  0  0  0  0  0  0  0  0
   11.7838  -23.2412    0.0000 C   0  0  0  0  0  0  0  0  0  0  0  0
   10.9730  -23.1574    0.0000 C   0  0  0  0  0  0  0  0  0  0  0  0
   12.1186  -23.9913    0.0000 C   0  0  0  0  0  0  0  0  0  0  0  0
   11.6403  -24.6532    0.0000 C   0  0  0  0  0  0  0  0  0  0  0  0
   12.1220  -25.3126    0.0000 O   0  0  0  0  0  0  0  0  0  0  0  0
   12.8981  -25.0583    0.0000 C   0  0  0  0  0  0  0  0  0  0  0  0
   12.8959  -24.2417    0.0000 O   0  0  0  0  0  0  0  0  0  0  0  0
  1  2  2  0
  2  3  1  0
  3  4  2  0
  4  5  1  0
  5  6  2  0
  6  1  1  0
  7  8  1  0
  7 12  1  0
  8  9  1  0
  9 10  1  0
 10 11  1  0
 11 12  1  0
  4  7  1  0
  3 13  1  0
 10 14  1  0
 14 15  1  0
 15 16  1  0
 16 17  2  0
 17 18  1  0
 18 19  1  0
 19 15  2  0
 17 20  1  0
 20 21  2  0
 21 25  1  0
 24 22  1  0
 22 23  2  0
 23 20  1  0
 24 25  2  0
 25 26  1  0
 26 27  1  0
 27 28  1  0
 28 24  1  0
M  END
>  <Classification>  (727) 
0

>  <pchembl>  (727) 
4.95

>  <InChI_steorem>  (727) 
InChI=1S/C21H20FN3O2S/c22-17-3-1-2-4-18(17)25-9-7-24(8-10-25)12-16-13-28-21(23-16)15-5-6-19-20(11-15)27-14-26-19/h1-6,11,13H,7-10,12,14H2

>  <source>  (727) 
ChEMBL28

>  <source_id>  (727) 
28

>  <optional_reference>  (727) 
10.1021/acs.jmedchem.8b01821

>  <optional_origin>  (727) 
None

>  <target>  (727) 
BCRP

$$$$

     RDKit          2D

 28 32  0  0  0  0  0  0  0  0999 V2000
    3.9483  -17.1197    0.0000 C   0  0  0  0  0  0  0  0  0  0  0  0
    3.9472  -17.9392    0.0000 C   0  0  0  0  0  0  0  0  0  0  0  0
    4.6552  -18.3482    0.0000 C   0  0  0  0  0  0  0  0  0  0  0  0
    4.6535  -16.7108    0.0000 C   0  0  0  0  0  0  0  0  0  0  0  0
    5.3621  -17.1161    0.0000 C   0  0  0  0  0  0  0  0  0  0  0  0
    5.3623  -17.9393    0.0000 C   0  0  0  0  0  0  0  0  0  0  0  0
    6.1453  -18.1935    0.0000 N   0  0  0  0  0  0  0  0  0  0  0  0
    6.1449  -16.8616    0.0000 C   0  0  0  0  0  0  0  0  0  0  0  0
    6.6291  -17.5287    0.0000 C   0  0  0  0  0  0  0  0  0  0  0  0
    7.4444  -17.4434    0.0000 C   0  0  0  0  0  0  0  0  0  0  0  0
    7.7818  -16.6920    0.0000 N   0  0  0  0  0  0  0  0  0  0  0  0
    7.2977  -16.0249    0.0000 C   0  0  0  0  0  0  0  0  0  0  0  0
    6.4760  -16.1092    0.0000 C   0  0  0  0  0  0  0  0  0  0  0  0
    8.5947  -16.6081    0.0000 C   0  0  0  0  0  0  0  0  0  0  0  0
    9.0738  -17.2701    0.0000 O   0  0  0  0  0  0  0  0  0  0  0  0
    8.9285  -15.8622    0.0000 C   0  0  0  0  0  0  0  0  0  0  0  0
    9.7416  -15.7823    0.0000 C   0  0  0  0  0  0  0  0  0  0  0  0
   10.0754  -15.0373    0.0000 C   0  0  0  0  0  0  0  0  0  0  0  0
    9.5961  -14.3743    0.0000 C   0  0  0  0  0  0  0  0  0  0  0  0
    8.7793  -14.4612    0.0000 C   0  0  0  0  0  0  0  0  0  0  0  0
    8.4493  -15.2065    0.0000 C   0  0  0  0  0  0  0  0  0  0  0  0
    7.9243  -18.1020    0.0000 C   0  0  0  0  0  0  0  0  0  0  0  0
    7.5889  -18.8484    0.0000 C   0  0  0  0  0  0  0  0  0  0  0  0
    8.0672  -19.5100    0.0000 C   0  0  0  0  0  0  0  0  0  0  0  0
    8.8810  -19.4265    0.0000 C   0  0  0  0  0  0  0  0  0  0  0  0
    9.2141  -18.6756    0.0000 C   0  0  0  0  0  0  0  0  0  0  0  0
    8.7337  -18.0172    0.0000 C   0  0  0  0  0  0  0  0  0  0  0  0
    7.7331  -20.2558    0.0000 Cl  0  0  0  0  0  0  0  0  0  0  0  0
  1  2  2  0
  2  3  1  0
  3  6  2  0
  5  4  2  0
  4  1  1  0
  5  6  1  0
  6  7  1  0
  7  9  1  0
  8  5  1  0
  8  9  2  0
  8 13  1  0
  9 10  1  0
 10 11  1  0
 11 12  1  0
 12 13  1  0
 11 14  1  0
 14 15  2  0
 14 16  1  0
 16 17  2  0
 17 18  1  0
 18 19  2  0
 19 20  1  0
 20 21  2  0
 21 16  1  0
 22 23  2  0
 23 24  1  0
 24 25  2  0
 25 26  1  0
 26 27  2  0
 27 22  1  0
 10 22  1  0
 24 28  1  0
M  END
>  <Classification>  (728) 
1

>  <pchembl>  (728) 
6.09

>  <InChI_steorem>  (728) 
InChI=1S/C24H19ClN2O/c25-18-10-6-9-17(15-18)23-22-20(19-11-4-5-12-21(19)26-22)13-14-27(23)24(28)16-7-2-1-3-8-16/h1-12,15,23,26H,13-14H2

>  <source>  (728) 
ChEMBL28

>  <source_id>  (728) 
28

>  <optional_reference>  (728) 
10.1021/acs.jmedchem.6b00035

>  <optional_origin>  (728) 
None

>  <target>  (728) 
BCRP

$$$$

     RDKit          2D

 29 33  0  0  0  0  0  0  0  0999 V2000
   12.9044  -19.9303    0.0000 C   0  0  0  0  0  0  0  0  0  0  0  0
   12.9033  -20.7499    0.0000 C   0  0  0  0  0  0  0  0  0  0  0  0
   13.6113  -21.1589    0.0000 C   0  0  0  0  0  0  0  0  0  0  0  0
   13.6095  -19.5215    0.0000 C   0  0  0  0  0  0  0  0  0  0  0  0
   14.3182  -19.9267    0.0000 C   0  0  0  0  0  0  0  0  0  0  0  0
   14.3184  -20.7499    0.0000 C   0  0  0  0  0  0  0  0  0  0  0  0
   15.1014  -21.0041    0.0000 N   0  0  0  0  0  0  0  0  0  0  0  0
   15.1010  -19.6722    0.0000 C   0  0  0  0  0  0  0  0  0  0  0  0
   15.5852  -20.3393    0.0000 C   0  0  0  0  0  0  0  0  0  0  0  0
   16.4005  -20.2540    0.0000 C   0  0  0  0  0  0  0  0  0  0  0  0
   16.7379  -19.5026    0.0000 N   0  0  0  0  0  0  0  0  0  0  0  0
   16.2537  -18.8355    0.0000 C   0  0  0  0  0  0  0  0  0  0  0  0
   15.4321  -18.9198    0.0000 C   0  0  0  0  0  0  0  0  0  0  0  0
   17.5508  -19.4187    0.0000 C   0  0  0  0  0  0  0  0  0  0  0  0
   18.0299  -20.0808    0.0000 O   0  0  0  0  0  0  0  0  0  0  0  0
   17.8846  -18.6728    0.0000 C   0  0  0  0  0  0  0  0  0  0  0  0
   18.6977  -18.5930    0.0000 C   0  0  0  0  0  0  0  0  0  0  0  0
   19.0315  -17.8479    0.0000 C   0  0  0  0  0  0  0  0  0  0  0  0
   18.5522  -17.1849    0.0000 C   0  0  0  0  0  0  0  0  0  0  0  0
   17.7354  -17.2719    0.0000 C   0  0  0  0  0  0  0  0  0  0  0  0
   17.4054  -18.0171    0.0000 C   0  0  0  0  0  0  0  0  0  0  0  0
   16.8804  -20.9127    0.0000 C   0  0  0  0  0  0  0  0  0  0  0  0
   16.5449  -21.6591    0.0000 C   0  0  0  0  0  0  0  0  0  0  0  0
   17.0233  -22.3207    0.0000 C   0  0  0  0  0  0  0  0  0  0  0  0
   17.8371  -22.2371    0.0000 C   0  0  0  0  0  0  0  0  0  0  0  0
   18.1702  -21.4863    0.0000 C   0  0  0  0  0  0  0  0  0  0  0  0
   17.6898  -20.8278    0.0000 C   0  0  0  0  0  0  0  0  0  0  0  0
   18.9805  -21.3954    0.0000 C   0  0  0  0  0  0  0  0  0  0  0  0
   19.7931  -21.3086    0.0000 N   0  0  0  0  0  0  0  0  0  0  0  0
  1  2  2  0
  2  3  1  0
  3  6  2  0
  5  4  2  0
  4  1  1  0
  5  6  1  0
  6  7  1  0
  7  9  1  0
  8  5  1  0
  8  9  2  0
  8 13  1  0
  9 10  1  0
 10 11  1  0
 11 12  1  0
 12 13  1  0
 11 14  1  0
 14 15  2  0
 14 16  1  0
 16 17  2  0
 17 18  1  0
 18 19  2  0
 19 20  1  0
 20 21  2  0
 21 16  1  0
 22 23  2  0
 23 24  1  0
 24 25  2  0
 25 26  1  0
 26 27  2  0
 27 22  1  0
 10 22  1  0
 28 29  3  0
 26 28  1  0
M  END
>  <Classification>  (729) 
1

>  <pchembl>  (729) 
5.7

>  <InChI_steorem>  (729) 
InChI=1S/C25H19N3O/c26-16-17-7-6-10-19(15-17)24-23-21(20-11-4-5-12-22(20)27-23)13-14-28(24)25(29)18-8-2-1-3-9-18/h1-12,15,24,27H,13-14H2

>  <source>  (729) 
ChEMBL28

>  <source_id>  (729) 
28

>  <optional_reference>  (729) 
10.1021/acs.jmedchem.6b00035

>  <optional_origin>  (729) 
None

>  <target>  (729) 
BCRP

$$$$

     RDKit          2D

 29 33  0  0  0  0  0  0  0  0999 V2000
   13.0406   -9.9713    0.0000 C   0  0  0  0  0  0  0  0  0  0  0  0
   13.0395  -10.7909    0.0000 C   0  0  0  0  0  0  0  0  0  0  0  0
   13.7475  -11.1998    0.0000 C   0  0  0  0  0  0  0  0  0  0  0  0
   13.7457   -9.5625    0.0000 C   0  0  0  0  0  0  0  0  0  0  0  0
   14.4544   -9.9677    0.0000 C   0  0  0  0  0  0  0  0  0  0  0  0
   14.4546  -10.7909    0.0000 C   0  0  0  0  0  0  0  0  0  0  0  0
   15.2376  -11.0451    0.0000 N   0  0  0  0  0  0  0  0  0  0  0  0
   15.2372   -9.7132    0.0000 C   0  0  0  0  0  0  0  0  0  0  0  0
   15.7214  -10.3803    0.0000 C   0  0  0  0  0  0  0  0  0  0  0  0
   16.5367  -10.2950    0.0000 C   0  0  0  0  0  0  0  0  0  0  0  0
   16.8741   -9.5436    0.0000 N   0  0  0  0  0  0  0  0  0  0  0  0
   16.3899   -8.8765    0.0000 C   0  0  0  0  0  0  0  0  0  0  0  0
   15.5683   -8.9608    0.0000 C   0  0  0  0  0  0  0  0  0  0  0  0
   17.6870   -9.4597    0.0000 C   0  0  0  0  0  0  0  0  0  0  0  0
   18.1661  -10.1218    0.0000 O   0  0  0  0  0  0  0  0  0  0  0  0
   18.0208   -8.7138    0.0000 C   0  0  0  0  0  0  0  0  0  0  0  0
   18.8339   -8.6340    0.0000 C   0  0  0  0  0  0  0  0  0  0  0  0
   19.1677   -7.8889    0.0000 C   0  0  0  0  0  0  0  0  0  0  0  0
   18.6884   -7.2259    0.0000 C   0  0  0  0  0  0  0  0  0  0  0  0
   17.8716   -7.3128    0.0000 C   0  0  0  0  0  0  0  0  0  0  0  0
   17.5416   -8.0581    0.0000 C   0  0  0  0  0  0  0  0  0  0  0  0
   17.0166  -10.9537    0.0000 C   0  0  0  0  0  0  0  0  0  0  0  0
   16.6811  -11.7001    0.0000 C   0  0  0  0  0  0  0  0  0  0  0  0
   17.1595  -12.3617    0.0000 C   0  0  0  0  0  0  0  0  0  0  0  0
   17.9733  -12.2781    0.0000 C   0  0  0  0  0  0  0  0  0  0  0  0
   18.3064  -11.5273    0.0000 C   0  0  0  0  0  0  0  0  0  0  0  0
   17.8260  -10.8688    0.0000 C   0  0  0  0  0  0  0  0  0  0  0  0
   16.8254  -13.1074    0.0000 Cl  0  0  0  0  0  0  0  0  0  0  0  0
   18.4533  -12.9395    0.0000 Cl  0  0  0  0  0  0  0  0  0  0  0  0
  1  2  2  0
  2  3  1  0
  3  6  2  0
  5  4  2  0
  4  1  1  0
  5  6  1  0
  6  7  1  0
  7  9  1  0
  8  5  1  0
  8  9  2  0
  8 13  1  0
  9 10  1  0
 10 11  1  0
 11 12  1  0
 12 13  1  0
 11 14  1  0
 14 15  2  0
 14 16  1  0
 16 17  2  0
 17 18  1  0
 18 19  2  0
 19 20  1  0
 20 21  2  0
 21 16  1  0
 22 23  2  0
 23 24  1  0
 24 25  2  0
 25 26  1  0
 26 27  2  0
 27 22  1  0
 10 22  1  0
 24 28  1  0
 25 29  1  0
M  END
>  <Classification>  (730) 
1

>  <pchembl>  (730) 
6.44

>  <InChI_steorem>  (730) 
InChI=1S/C24H18Cl2N2O/c25-19-11-10-16(14-20(19)26)23-22-18(17-8-4-5-9-21(17)27-22)12-13-28(23)24(29)15-6-2-1-3-7-15/h1-11,14,23,27H,12-13H2

>  <source>  (730) 
ChEMBL28

>  <source_id>  (730) 
28

>  <optional_reference>  (730) 
10.1021/acs.jmedchem.6b00035

>  <optional_origin>  (730) 
None

>  <target>  (730) 
BCRP

$$$$

     RDKit          2D

 29 33  0  0  0  0  0  0  0  0999 V2000
   16.6891  -24.2970    0.0000 C   0  0  0  0  0  0  0  0  0  0  0  0
   16.6880  -25.1165    0.0000 C   0  0  0  0  0  0  0  0  0  0  0  0
   17.3960  -25.5255    0.0000 C   0  0  0  0  0  0  0  0  0  0  0  0
   17.3942  -23.8881    0.0000 N   0  0  0  0  0  0  0  0  0  0  0  0
   18.1033  -24.2924    0.0000 C   0  0  0  0  0  0  0  0  0  0  0  0
   18.1036  -25.1124    0.0000 C   0  0  0  0  0  0  0  0  0  0  0  0
   18.8831  -24.0389    0.0000 S   0  0  0  0  0  0  0  0  0  0  0  0
   19.3653  -24.7020    0.0000 C   0  0  0  0  0  0  0  0  0  0  0  0
   18.8811  -25.3621    0.0000 C   0  0  0  0  0  0  0  0  0  0  0  0
   19.2108  -26.1093    0.0000 N   0  0  0  0  0  0  0  0  0  0  0  0
   20.0244  -26.1976    0.0000 C   0  0  0  0  0  0  0  0  0  0  0  0
   20.5072  -25.5327    0.0000 N   0  0  0  0  0  0  0  0  0  0  0  0
   20.1748  -24.7882    0.0000 C   0  0  0  0  0  0  0  0  0  0  0  0
   15.9813  -23.8885    0.0000 C   0  0  0  0  0  0  0  0  0  0  0  0
   17.3979  -26.3426    0.0000 C   0  0  0  0  0  0  0  0  0  0  0  0
   20.6553  -24.1271    0.0000 N   0  0  0  0  0  0  0  0  0  0  0  0
   21.4646  -24.2172    0.0000 C   0  0  0  0  0  0  0  0  0  0  0  0
   21.9446  -23.5602    0.0000 C   0  0  0  0  0  0  0  0  0  0  0  0
   21.6160  -22.8116    0.0000 N   0  0  0  0  0  0  0  0  0  0  0  0
   20.8026  -22.7240    0.0000 C   0  0  0  0  0  0  0  0  0  0  0  0
   20.3177  -23.3850    0.0000 C   0  0  0  0  0  0  0  0  0  0  0  0
   22.0990  -22.1524    0.0000 C   0  0  0  0  0  0  0  0  0  0  0  0
   22.9114  -22.2410    0.0000 C   0  0  0  0  0  0  0  0  0  0  0  0
   23.2363  -22.9882    0.0000 C   0  0  0  0  0  0  0  0  0  0  0  0
   24.0478  -23.0771    0.0000 C   0  0  0  0  0  0  0  0  0  0  0  0
   24.5317  -22.4175    0.0000 C   0  0  0  0  0  0  0  0  0  0  0  0
   24.1981  -21.6668    0.0000 C   0  0  0  0  0  0  0  0  0  0  0  0
   23.3875  -21.5815    0.0000 C   0  0  0  0  0  0  0  0  0  0  0  0
   22.7516  -23.6462    0.0000 Cl  0  0  0  0  0  0  0  0  0  0  0  0
  1  2  2  0
  2  3  1  0
  3  6  2  0
  5  4  2  0
  4  1  1  0
  5  6  1  0
  6  9  1  0
  8  7  1  0
  7  5  1  0
  8  9  2  0
  9 10  1  0
 10 11  2  0
 11 12  1  0
 12 13  2  0
 13  8  1  0
  1 14  1  0
  3 15  1  0
 13 16  1  0
 16 17  1  0
 16 21  1  0
 17 18  1  0
 18 19  1  0
 19 20  1  0
 20 21  1  0
 19 22  1  0
 22 23  1  0
 23 24  2  0
 24 25  1  0
 25 26  2  0
 26 27  1  0
 27 28  2  0
 28 23  1  0
 24 29  1  0
M  END
>  <Classification>  (731) 
1

>  <pchembl>  (731) 
5.06

>  <InChI_steorem>  (731) 
InChI=1S/C22H22ClN5S/c1-14-11-15(2)26-22-18(14)19-20(29-22)21(25-13-24-19)28-9-7-27(8-10-28)12-16-5-3-4-6-17(16)23/h3-6,11,13H,7-10,12H2,1-2H3

>  <source>  (731) 
ChEMBL28

>  <source_id>  (731) 
28

>  <optional_reference>  (731) 
10.1021/acs.jmedchem.8b01821

>  <optional_origin>  (731) 
None

>  <target>  (731) 
BCRP

$$$$

     RDKit          2D

 29 33  0  0  0  0  0  0  0  0999 V2000
   21.7573   -4.0900    0.0000 C   0  0  0  0  0  0  0  0  0  0  0  0
   21.7562   -4.9096    0.0000 C   0  0  0  0  0  0  0  0  0  0  0  0
   22.4642   -5.3185    0.0000 C   0  0  0  0  0  0  0  0  0  0  0  0
   22.4624   -3.6812    0.0000 C   0  0  0  0  0  0  0  0  0  0  0  0
   23.1711   -4.0864    0.0000 C   0  0  0  0  0  0  0  0  0  0  0  0
   23.1713   -4.9096    0.0000 C   0  0  0  0  0  0  0  0  0  0  0  0
   23.9543   -5.1638    0.0000 N   0  0  0  0  0  0  0  0  0  0  0  0
   23.9539   -3.8319    0.0000 C   0  0  0  0  0  0  0  0  0  0  0  0
   24.4381   -4.4990    0.0000 C   0  0  0  0  0  0  0  0  0  0  0  0
   25.2534   -4.4137    0.0000 C   0  0  0  0  0  0  0  0  0  0  0  0
   25.5908   -3.6623    0.0000 N   0  0  0  0  0  0  0  0  0  0  0  0
   25.1066   -2.9952    0.0000 C   0  0  0  0  0  0  0  0  0  0  0  0
   24.2850   -3.0795    0.0000 C   0  0  0  0  0  0  0  0  0  0  0  0
   26.4037   -3.5784    0.0000 C   0  0  0  0  0  0  0  0  0  0  0  0
   26.8828   -4.2405    0.0000 O   0  0  0  0  0  0  0  0  0  0  0  0
   26.7375   -2.8325    0.0000 C   0  0  0  0  0  0  0  0  0  0  0  0
   27.5506   -2.7527    0.0000 C   0  0  0  0  0  0  0  0  0  0  0  0
   27.8844   -2.0076    0.0000 C   0  0  0  0  0  0  0  0  0  0  0  0
   27.4051   -1.3446    0.0000 C   0  0  0  0  0  0  0  0  0  0  0  0
   26.5883   -1.4315    0.0000 C   0  0  0  0  0  0  0  0  0  0  0  0
   26.2583   -2.1768    0.0000 C   0  0  0  0  0  0  0  0  0  0  0  0
   25.7333   -5.0724    0.0000 C   0  0  0  0  0  0  0  0  0  0  0  0
   25.3978   -5.8188    0.0000 C   0  0  0  0  0  0  0  0  0  0  0  0
   25.8762   -6.4804    0.0000 C   0  0  0  0  0  0  0  0  0  0  0  0
   26.6900   -6.3968    0.0000 C   0  0  0  0  0  0  0  0  0  0  0  0
   27.0231   -5.6460    0.0000 C   0  0  0  0  0  0  0  0  0  0  0  0
   26.5427   -4.9875    0.0000 C   0  0  0  0  0  0  0  0  0  0  0  0
   27.7379   -0.5982    0.0000 Cl  0  0  0  0  0  0  0  0  0  0  0  0
   27.1700   -7.0582    0.0000 Br  0  0  0  0  0  0  0  0  0  0  0  0
  1  2  2  0
  2  3  1  0
  3  6  2  0
  5  4  2  0
  4  1  1  0
  5  6  1  0
  6  7  1  0
  7  9  1  0
  8  5  1  0
  8  9  2  0
  8 13  1  0
  9 10  1  0
 10 11  1  0
 11 12  1  0
 12 13  1  0
 11 14  1  0
 14 15  2  0
 14 16  1  0
 16 17  2  0
 17 18  1  0
 18 19  2  0
 19 20  1  0
 20 21  2  0
 21 16  1  0
 22 23  2  0
 23 24  1  0
 24 25  2  0
 25 26  1  0
 26 27  2  0
 27 22  1  0
 10 22  1  0
 19 28  1  0
 25 29  1  0
M  END
>  <Classification>  (732) 
1

>  <pchembl>  (732) 
5.75

>  <InChI_steorem>  (732) 
InChI=1S/C24H18BrClN2O/c25-17-9-5-15(6-10-17)23-22-20(19-3-1-2-4-21(19)27-22)13-14-28(23)24(29)16-7-11-18(26)12-8-16/h1-12,23,27H,13-14H2

>  <source>  (732) 
ChEMBL28

>  <source_id>  (732) 
28

>  <optional_reference>  (732) 
10.1021/acs.jmedchem.6b00035

>  <optional_origin>  (732) 
None

>  <target>  (732) 
BCRP

$$$$

     RDKit          2D

 29 33  0  0  0  0  0  0  0  0999 V2000
   25.2366  -19.2452    0.0000 C   0  0  0  0  0  0  0  0  0  0  0  0
   25.2354  -20.0648    0.0000 C   0  0  0  0  0  0  0  0  0  0  0  0
   25.9435  -20.4737    0.0000 C   0  0  0  0  0  0  0  0  0  0  0  0
   25.9417  -18.8364    0.0000 C   0  0  0  0  0  0  0  0  0  0  0  0
   26.6503  -19.2416    0.0000 C   0  0  0  0  0  0  0  0  0  0  0  0
   26.6506  -20.0648    0.0000 C   0  0  0  0  0  0  0  0  0  0  0  0
   27.4335  -20.3190    0.0000 N   0  0  0  0  0  0  0  0  0  0  0  0
   27.4331  -18.9871    0.0000 C   0  0  0  0  0  0  0  0  0  0  0  0
   27.9173  -19.6542    0.0000 C   0  0  0  0  0  0  0  0  0  0  0  0
   28.7326  -19.5689    0.0000 C   0  0  0  0  0  0  0  0  0  0  0  0
   29.0701  -18.8175    0.0000 N   0  0  0  0  0  0  0  0  0  0  0  0
   28.5859  -18.1504    0.0000 C   0  0  0  0  0  0  0  0  0  0  0  0
   27.7642  -18.2347    0.0000 C   0  0  0  0  0  0  0  0  0  0  0  0
   29.8830  -18.7336    0.0000 C   0  0  0  0  0  0  0  0  0  0  0  0
   30.3621  -19.3956    0.0000 O   0  0  0  0  0  0  0  0  0  0  0  0
   30.2167  -17.9877    0.0000 C   0  0  0  0  0  0  0  0  0  0  0  0
   31.0299  -17.9079    0.0000 C   0  0  0  0  0  0  0  0  0  0  0  0
   31.3636  -17.1628    0.0000 C   0  0  0  0  0  0  0  0  0  0  0  0
   30.8844  -16.4998    0.0000 C   0  0  0  0  0  0  0  0  0  0  0  0
   30.0676  -16.5867    0.0000 C   0  0  0  0  0  0  0  0  0  0  0  0
   29.7375  -17.3320    0.0000 C   0  0  0  0  0  0  0  0  0  0  0  0
   29.2126  -20.2276    0.0000 C   0  0  0  0  0  0  0  0  0  0  0  0
   28.8771  -20.9739    0.0000 C   0  0  0  0  0  0  0  0  0  0  0  0
   29.3555  -21.6356    0.0000 C   0  0  0  0  0  0  0  0  0  0  0  0
   30.1693  -21.5520    0.0000 C   0  0  0  0  0  0  0  0  0  0  0  0
   30.5024  -20.8012    0.0000 C   0  0  0  0  0  0  0  0  0  0  0  0
   30.0220  -20.1427    0.0000 C   0  0  0  0  0  0  0  0  0  0  0  0
   27.6859  -21.0962    0.0000 C   0  0  0  0  0  0  0  0  0  0  0  0
   27.1389  -21.7034    0.0000 C   0  0  0  0  0  0  0  0  0  0  0  0
  1  2  2  0
  2  3  1  0
  3  6  2  0
  5  4  2  0
  4  1  1  0
  5  6  1  0
  6  7  1  0
  7  9  1  0
  8  5  1  0
  8  9  2  0
  8 13  1  0
  9 10  1  0
 10 11  1  0
 11 12  1  0
 12 13  1  0
 11 14  1  0
 14 15  2  0
 14 16  1  0
 16 17  2  0
 17 18  1  0
 18 19  2  0
 19 20  1  0
 20 21  2  0
 21 16  1  0
 22 23  2  0
 23 24  1  0
 24 25  2  0
 25 26  1  0
 26 27  2  0
 27 22  1  0
 10 22  1  0
  7 28  1  0
 28 29  1  0
M  END
>  <Classification>  (733) 
0

>  <pchembl>  (733) 
4.98

>  <InChI_steorem>  (733) 
InChI=1S/C26H24N2O/c1-2-27-23-16-10-9-15-21(23)22-17-18-28(26(29)20-13-7-4-8-14-20)24(25(22)27)19-11-5-3-6-12-19/h3-16,24H,2,17-18H2,1H3

>  <source>  (733) 
ChEMBL28

>  <source_id>  (733) 
28

>  <optional_reference>  (733) 
10.1021/acs.jmedchem.6b00035

>  <optional_origin>  (733) 
None

>  <target>  (733) 
BCRP

$$$$

     RDKit          2D

 29 33  0  0  0  0  0  0  0  0999 V2000
    2.7886  -14.1110    0.0000 C   0  0  0  0  0  0  0  0  0  0  0  0
    2.7874  -14.9305    0.0000 C   0  0  0  0  0  0  0  0  0  0  0  0
    3.4955  -15.3395    0.0000 C   0  0  0  0  0  0  0  0  0  0  0  0
    3.4937  -13.7021    0.0000 C   0  0  0  0  0  0  0  0  0  0  0  0
    4.2023  -14.1074    0.0000 C   0  0  0  0  0  0  0  0  0  0  0  0
    4.2026  -14.9305    0.0000 C   0  0  0  0  0  0  0  0  0  0  0  0
    4.9855  -15.1847    0.0000 N   0  0  0  0  0  0  0  0  0  0  0  0
    4.9851  -13.8528    0.0000 C   0  0  0  0  0  0  0  0  0  0  0  0
    5.4693  -14.5199    0.0000 C   0  0  0  0  0  0  0  0  0  0  0  0
    6.2846  -14.4346    0.0000 C   0  0  0  0  0  0  0  0  0  0  0  0
    6.6221  -13.6832    0.0000 N   0  0  0  0  0  0  0  0  0  0  0  0
    6.1379  -13.0161    0.0000 C   0  0  0  0  0  0  0  0  0  0  0  0
    5.3162  -13.1004    0.0000 C   0  0  0  0  0  0  0  0  0  0  0  0
    7.4350  -13.5994    0.0000 C   0  0  0  0  0  0  0  0  0  0  0  0
    7.9141  -14.2614    0.0000 O   0  0  0  0  0  0  0  0  0  0  0  0
    7.7687  -12.8534    0.0000 C   0  0  0  0  0  0  0  0  0  0  0  0
    8.5819  -12.7736    0.0000 C   0  0  0  0  0  0  0  0  0  0  0  0
    8.9156  -12.0285    0.0000 C   0  0  0  0  0  0  0  0  0  0  0  0
    8.4364  -11.3655    0.0000 C   0  0  0  0  0  0  0  0  0  0  0  0
    7.6196  -11.4525    0.0000 C   0  0  0  0  0  0  0  0  0  0  0  0
    7.2895  -12.1977    0.0000 C   0  0  0  0  0  0  0  0  0  0  0  0
    6.7646  -15.0933    0.0000 C   0  0  0  0  0  0  0  0  0  0  0  0
    6.4291  -15.8397    0.0000 C   0  0  0  0  0  0  0  0  0  0  0  0
    6.9075  -16.5013    0.0000 C   0  0  0  0  0  0  0  0  0  0  0  0
    7.7213  -16.4177    0.0000 C   0  0  0  0  0  0  0  0  0  0  0  0
    8.0544  -15.6669    0.0000 C   0  0  0  0  0  0  0  0  0  0  0  0
    7.5740  -15.0084    0.0000 C   0  0  0  0  0  0  0  0  0  0  0  0
    8.8669  -15.5801    0.0000 O   0  0  0  0  0  0  0  0  0  0  0  0
    9.3484  -16.2404    0.0000 C   0  0  0  0  0  0  0  0  0  0  0  0
  1  2  2  0
  2  3  1  0
  3  6  2  0
  5  4  2  0
  4  1  1  0
  5  6  1  0
  6  7  1  0
  7  9  1  0
  8  5  1  0
  8  9  2  0
  8 13  1  0
  9 10  1  0
 10 11  1  0
 11 12  1  0
 12 13  1  0
 11 14  1  0
 14 15  2  0
 14 16  1  0
 16 17  2  0
 17 18  1  0
 18 19  2  0
 19 20  1  0
 20 21  2  0
 21 16  1  0
 22 23  2  0
 23 24  1  0
 24 25  2  0
 25 26  1  0
 26 27  2  0
 27 22  1  0
 10 22  1  0
 26 28  1  0
 28 29  1  0
M  END
>  <Classification>  (734) 
1

>  <pchembl>  (734) 
5.72

>  <InChI_steorem>  (734) 
InChI=1S/C25H22N2O2/c1-29-19-11-7-10-18(16-19)24-23-21(20-12-5-6-13-22(20)26-23)14-15-27(24)25(28)17-8-3-2-4-9-17/h2-13,16,24,26H,14-15H2,1H3

>  <source>  (734) 
ChEMBL28

>  <source_id>  (734) 
28

>  <optional_reference>  (734) 
10.1021/acs.jmedchem.6b00035

>  <optional_origin>  (734) 
None

>  <target>  (734) 
BCRP

$$$$

     RDKit          2D

 29 33  0  0  0  0  0  0  0  0999 V2000
   31.6173  -12.0845    0.0000 C   0  0  0  0  0  0  0  0  0  0  0  0
   31.6161  -12.9040    0.0000 C   0  0  0  0  0  0  0  0  0  0  0  0
   32.3242  -13.3130    0.0000 C   0  0  0  0  0  0  0  0  0  0  0  0
   32.3224  -11.6756    0.0000 C   0  0  0  0  0  0  0  0  0  0  0  0
   33.0310  -12.0809    0.0000 C   0  0  0  0  0  0  0  0  0  0  0  0
   33.0313  -12.9041    0.0000 C   0  0  0  0  0  0  0  0  0  0  0  0
   33.8142  -13.1582    0.0000 N   0  0  0  0  0  0  0  0  0  0  0  0
   33.8138  -11.8263    0.0000 C   0  0  0  0  0  0  0  0  0  0  0  0
   34.2980  -12.4935    0.0000 C   0  0  0  0  0  0  0  0  0  0  0  0
   35.1133  -12.4082    0.0000 C   0  0  0  0  0  0  0  0  0  0  0  0
   35.4508  -11.6568    0.0000 N   0  0  0  0  0  0  0  0  0  0  0  0
   34.9666  -10.9897    0.0000 C   0  0  0  0  0  0  0  0  0  0  0  0
   34.1449  -11.0739    0.0000 C   0  0  0  0  0  0  0  0  0  0  0  0
   36.2637  -11.5729    0.0000 C   0  0  0  0  0  0  0  0  0  0  0  0
   36.7427  -12.2349    0.0000 O   0  0  0  0  0  0  0  0  0  0  0  0
   36.5974  -10.8270    0.0000 C   0  0  0  0  0  0  0  0  0  0  0  0
   37.4106  -10.7471    0.0000 C   0  0  0  0  0  0  0  0  0  0  0  0
   37.7443  -10.0020    0.0000 C   0  0  0  0  0  0  0  0  0  0  0  0
   37.2651   -9.3390    0.0000 C   0  0  0  0  0  0  0  0  0  0  0  0
   36.4483   -9.4260    0.0000 C   0  0  0  0  0  0  0  0  0  0  0  0
   36.1182  -10.1713    0.0000 C   0  0  0  0  0  0  0  0  0  0  0  0
   35.5932  -13.0668    0.0000 C   0  0  0  0  0  0  0  0  0  0  0  0
   35.2578  -13.8132    0.0000 C   0  0  0  0  0  0  0  0  0  0  0  0
   35.7362  -14.4748    0.0000 C   0  0  0  0  0  0  0  0  0  0  0  0
   36.5500  -14.3913    0.0000 C   0  0  0  0  0  0  0  0  0  0  0  0
   36.8831  -13.6404    0.0000 C   0  0  0  0  0  0  0  0  0  0  0  0
   36.4027  -12.9819    0.0000 C   0  0  0  0  0  0  0  0  0  0  0  0
   35.4020  -15.2206    0.0000 F   0  0  0  0  0  0  0  0  0  0  0  0
   37.0299  -15.0526    0.0000 F   0  0  0  0  0  0  0  0  0  0  0  0
  1  2  2  0
  2  3  1  0
  3  6  2  0
  5  4  2  0
  4  1  1  0
  5  6  1  0
  6  7  1  0
  7  9  1  0
  8  5  1  0
  8  9  2  0
  8 13  1  0
  9 10  1  0
 10 11  1  0
 11 12  1  0
 12 13  1  0
 11 14  1  0
 14 15  2  0
 14 16  1  0
 16 17  2  0
 17 18  1  0
 18 19  2  0
 19 20  1  0
 20 21  2  0
 21 16  1  0
 22 23  2  0
 23 24  1  0
 24 25  2  0
 25 26  1  0
 26 27  2  0
 27 22  1  0
 10 22  1  0
 24 28  1  0
 25 29  1  0
M  END
>  <Classification>  (735) 
1

>  <pchembl>  (735) 
5.75

>  <InChI_steorem>  (735) 
InChI=1S/C24H18F2N2O/c25-19-11-10-16(14-20(19)26)23-22-18(17-8-4-5-9-21(17)27-22)12-13-28(23)24(29)15-6-2-1-3-7-15/h1-11,14,23,27H,12-13H2

>  <source>  (735) 
ChEMBL28

>  <source_id>  (735) 
28

>  <optional_reference>  (735) 
10.1021/acs.jmedchem.6b00035

>  <optional_origin>  (735) 
None

>  <target>  (735) 
BCRP

$$$$

     RDKit          2D

 29 33  0  0  0  0  0  0  0  0999 V2000
   33.7758  -19.2163    0.0000 C   0  0  0  0  0  0  0  0  0  0  0  0
   33.7747  -20.0359    0.0000 C   0  0  0  0  0  0  0  0  0  0  0  0
   34.4827  -20.4448    0.0000 C   0  0  0  0  0  0  0  0  0  0  0  0
   34.4809  -18.8075    0.0000 C   0  0  0  0  0  0  0  0  0  0  0  0
   35.1896  -19.2127    0.0000 C   0  0  0  0  0  0  0  0  0  0  0  0
   35.1898  -20.0359    0.0000 C   0  0  0  0  0  0  0  0  0  0  0  0
   35.9728  -20.2901    0.0000 N   0  0  0  0  0  0  0  0  0  0  0  0
   35.9724  -18.9582    0.0000 C   0  0  0  0  0  0  0  0  0  0  0  0
   36.4566  -19.6253    0.0000 C   0  0  0  0  0  0  0  0  0  0  0  0
   37.2718  -19.5400    0.0000 C   0  0  0  0  0  0  0  0  0  0  0  0
   37.6093  -18.7886    0.0000 N   0  0  0  0  0  0  0  0  0  0  0  0
   37.1251  -18.1215    0.0000 C   0  0  0  0  0  0  0  0  0  0  0  0
   36.3035  -18.2058    0.0000 C   0  0  0  0  0  0  0  0  0  0  0  0
   38.4222  -18.7047    0.0000 C   0  0  0  0  0  0  0  0  0  0  0  0
   38.9013  -19.3668    0.0000 O   0  0  0  0  0  0  0  0  0  0  0  0
   38.7560  -17.9588    0.0000 C   0  0  0  0  0  0  0  0  0  0  0  0
   39.5691  -17.8790    0.0000 C   0  0  0  0  0  0  0  0  0  0  0  0
   39.9029  -17.1339    0.0000 C   0  0  0  0  0  0  0  0  0  0  0  0
   39.4236  -16.4709    0.0000 C   0  0  0  0  0  0  0  0  0  0  0  0
   38.6068  -16.5578    0.0000 C   0  0  0  0  0  0  0  0  0  0  0  0
   38.2768  -17.3031    0.0000 C   0  0  0  0  0  0  0  0  0  0  0  0
   37.7518  -20.1987    0.0000 C   0  0  0  0  0  0  0  0  0  0  0  0
   37.4163  -20.9451    0.0000 C   0  0  0  0  0  0  0  0  0  0  0  0
   37.8947  -21.6067    0.0000 C   0  0  0  0  0  0  0  0  0  0  0  0
   38.7085  -21.5231    0.0000 C   0  0  0  0  0  0  0  0  0  0  0  0
   39.0416  -20.7723    0.0000 C   0  0  0  0  0  0  0  0  0  0  0  0
   38.5612  -20.1138    0.0000 C   0  0  0  0  0  0  0  0  0  0  0  0
   39.7564  -15.7245    0.0000 O   0  0  0  0  0  0  0  0  0  0  0  0
   40.5692  -15.6396    0.0000 C   0  0  0  0  0  0  0  0  0  0  0  0
  1  2  2  0
  2  3  1  0
  3  6  2  0
  5  4  2  0
  4  1  1  0
  5  6  1  0
  6  7  1  0
  7  9  1  0
  8  5  1  0
  8  9  2  0
  8 13  1  0
  9 10  1  0
 10 11  1  0
 11 12  1  0
 12 13  1  0
 11 14  1  0
 14 15  2  0
 14 16  1  0
 16 17  2  0
 17 18  1  0
 18 19  2  0
 19 20  1  0
 20 21  2  0
 21 16  1  0
 22 23  2  0
 23 24  1  0
 24 25  2  0
 25 26  1  0
 26 27  2  0
 27 22  1  0
 10 22  1  0
 19 28  1  0
 28 29  1  0
M  END
>  <Classification>  (736) 
1

>  <pchembl>  (736) 
5.76

>  <InChI_steorem>  (736) 
InChI=1S/C25H22N2O2/c1-29-19-13-11-18(12-14-19)25(28)27-16-15-21-20-9-5-6-10-22(20)26-23(21)24(27)17-7-3-2-4-8-17/h2-14,24,26H,15-16H2,1H3

>  <source>  (736) 
ChEMBL28

>  <source_id>  (736) 
28

>  <optional_reference>  (736) 
10.1021/acs.jmedchem.6b00035

>  <optional_origin>  (736) 
None

>  <target>  (736) 
BCRP

$$$$

     RDKit          2D

 29 33  0  0  0  0  0  0  0  0999 V2000
    3.5026  -19.9551    0.0000 C   0  0  0  0  0  0  0  0  0  0  0  0
    3.5015  -20.7746    0.0000 C   0  0  0  0  0  0  0  0  0  0  0  0
    4.2095  -21.1836    0.0000 C   0  0  0  0  0  0  0  0  0  0  0  0
    4.2077  -19.5463    0.0000 C   0  0  0  0  0  0  0  0  0  0  0  0
    4.9163  -19.9515    0.0000 C   0  0  0  0  0  0  0  0  0  0  0  0
    4.9166  -20.7747    0.0000 C   0  0  0  0  0  0  0  0  0  0  0  0
    5.6996  -21.0289    0.0000 N   0  0  0  0  0  0  0  0  0  0  0  0
    5.6991  -19.6970    0.0000 C   0  0  0  0  0  0  0  0  0  0  0  0
    6.1833  -20.3641    0.0000 C   0  0  0  0  0  0  0  0  0  0  0  0
    6.9986  -20.2788    0.0000 C   0  0  0  0  0  0  0  0  0  0  0  0
    7.3361  -19.5274    0.0000 N   0  0  0  0  0  0  0  0  0  0  0  0
    6.8519  -18.8603    0.0000 C   0  0  0  0  0  0  0  0  0  0  0  0
    6.0303  -18.9446    0.0000 C   0  0  0  0  0  0  0  0  0  0  0  0
    8.1490  -19.4435    0.0000 C   0  0  0  0  0  0  0  0  0  0  0  0
    8.6281  -20.1055    0.0000 O   0  0  0  0  0  0  0  0  0  0  0  0
    8.4828  -18.6976    0.0000 C   0  0  0  0  0  0  0  0  0  0  0  0
    9.2959  -18.6177    0.0000 C   0  0  0  0  0  0  0  0  0  0  0  0
    9.6297  -17.8727    0.0000 C   0  0  0  0  0  0  0  0  0  0  0  0
    9.1504  -17.2097    0.0000 C   0  0  0  0  0  0  0  0  0  0  0  0
    8.3336  -17.2966    0.0000 C   0  0  0  0  0  0  0  0  0  0  0  0
    8.0035  -18.0419    0.0000 C   0  0  0  0  0  0  0  0  0  0  0  0
    7.4786  -20.9375    0.0000 C   0  0  0  0  0  0  0  0  0  0  0  0
    7.1431  -21.6838    0.0000 C   0  0  0  0  0  0  0  0  0  0  0  0
    7.6215  -22.3454    0.0000 C   0  0  0  0  0  0  0  0  0  0  0  0
    8.4353  -22.2619    0.0000 C   0  0  0  0  0  0  0  0  0  0  0  0
    8.7684  -21.5110    0.0000 C   0  0  0  0  0  0  0  0  0  0  0  0
    8.2880  -20.8526    0.0000 C   0  0  0  0  0  0  0  0  0  0  0  0
    8.9152  -22.9233    0.0000 O   0  0  0  0  0  0  0  0  0  0  0  0
    8.5825  -23.6696    0.0000 C   0  0  0  0  0  0  0  0  0  0  0  0
  1  2  2  0
  2  3  1  0
  3  6  2  0
  5  4  2  0
  4  1  1  0
  5  6  1  0
  6  7  1  0
  7  9  1  0
  8  5  1  0
  8  9  2  0
  8 13  1  0
  9 10  1  0
 10 11  1  0
 11 12  1  0
 12 13  1  0
 11 14  1  0
 14 15  2  0
 14 16  1  0
 16 17  2  0
 17 18  1  0
 18 19  2  0
 19 20  1  0
 20 21  2  0
 21 16  1  0
 22 23  2  0
 23 24  1  0
 24 25  2  0
 25 26  1  0
 26 27  2  0
 27 22  1  0
 10 22  1  0
 25 28  1  0
 28 29  1  0
M  END
>  <Classification>  (737) 
1

>  <pchembl>  (737) 
5.66

>  <InChI_steorem>  (737) 
InChI=1S/C25H22N2O2/c1-29-19-13-11-17(12-14-19)24-23-21(20-9-5-6-10-22(20)26-23)15-16-27(24)25(28)18-7-3-2-4-8-18/h2-14,24,26H,15-16H2,1H3

>  <source>  (737) 
ChEMBL28

>  <source_id>  (737) 
28

>  <optional_reference>  (737) 
10.1021/acs.jmedchem.6b00035

>  <optional_origin>  (737) 
None

>  <target>  (737) 
BCRP

$$$$

     RDKit          2D

 30 32  0  0  0  0  0  0  0  0999 V2000
   30.6158  -28.7461    0.0000 C   0  0  0  0  0  0  0  0  0  0  0  0
   30.6199  -29.5716    0.0000 C   0  0  0  0  0  0  0  0  0  0  0  0
   31.3257  -28.3376    0.0000 C   0  0  0  0  0  0  0  0  0  0  0  0
   32.0314  -28.7461    0.0000 C   0  0  0  0  0  0  0  0  0  0  0  0
   32.0314  -29.5716    0.0000 C   0  0  0  0  0  0  0  0  0  0  0  0
   31.3257  -29.9802    0.0000 C   0  0  0  0  0  0  0  0  0  0  0  0
   32.7394  -29.9798    0.0000 N   0  0  0  0  0  0  0  0  0  0  0  0
   33.4468  -29.5707    0.0000 C   0  0  0  0  0  0  0  0  0  0  0  0
   34.1548  -29.9789    0.0000 C   0  0  0  0  0  0  0  0  0  0  0  0
   33.4463  -28.7536    0.0000 O   0  0  0  0  0  0  0  0  0  0  0  0
   34.8623  -29.5699    0.0000 O   0  0  0  0  0  0  0  0  0  0  0  0
   35.5702  -29.9781    0.0000 C   0  0  0  0  0  0  0  0  0  0  0  0
   35.5662  -30.7943    0.0000 C   0  0  0  0  0  0  0  0  0  0  0  0
   36.2733  -31.2024    0.0000 C   0  0  0  0  0  0  0  0  0  0  0  0
   36.9818  -30.7933    0.0000 C   0  0  0  0  0  0  0  0  0  0  0  0
   36.9786  -29.9719    0.0000 C   0  0  0  0  0  0  0  0  0  0  0  0
   36.2709  -29.5675    0.0000 C   0  0  0  0  0  0  0  0  0  0  0  0
   37.6903  -31.2006    0.0000 C   0  0  0  0  0  0  0  0  0  0  0  0
   37.6918  -32.0178    0.0000 O   0  0  0  0  0  0  0  0  0  0  0  0
   38.3972  -30.7906    0.0000 C   0  0  0  0  0  0  0  0  0  0  0  0
   39.1057  -31.1978    0.0000 C   0  0  0  0  0  0  0  0  0  0  0  0
   39.8126  -30.7879    0.0000 C   0  0  0  0  0  0  0  0  0  0  0  0
   29.9073  -28.3389    0.0000 O   0  0  0  0  0  0  0  0  0  0  0  0
   29.9130  -29.9815    0.0000 O   0  0  0  0  0  0  0  0  0  0  0  0
   29.9058  -27.5217    0.0000 C   0  0  0  0  0  0  0  0  0  0  0  0
   29.2045  -29.5743    0.0000 C   0  0  0  0  0  0  0  0  0  0  0  0
   40.5597  -31.1153    0.0000 O   0  0  0  0  0  0  0  0  0  0  0  0
   41.1053  -30.5070    0.0000 C   0  0  0  0  0  0  0  0  0  0  0  0
   40.6953  -29.8000    0.0000 C   0  0  0  0  0  0  0  0  0  0  0  0
   39.8964  -29.9716    0.0000 C   0  0  0  0  0  0  0  0  0  0  0  0
  2  1  2  0
  3  1  1  0
  4  3  2  0
  5  4  1  0
  6  2  1  0
  6  5  2  0
  5  7  1  0
  7  8  1  0
  8  9  1  0
  8 10  2  0
  9 11  1  0
 11 12  1  0
 12 13  2  0
 13 14  1  0
 14 15  2  0
 15 16  1  0
 16 17  2  0
 17 12  1  0
 15 18  1  0
 18 19  2  0
 18 20  1  0
 20 21  2  3
 21 22  1  0
  1 23  1  0
  2 24  1  0
 23 25  1  0
 24 26  1  0
 22 27  1  0
 27 28  1  0
 28 29  2  0
 29 30  1  0
 30 22  2  0
M  END
>  <Classification>  (738) 
1

>  <pchembl>  (738) 
5.27

>  <InChI_steorem>  (738) 
InChI=1S/C23H21NO6/c1-27-21-12-7-17(14-22(21)28-2)24-23(26)15-30-19-8-5-16(6-9-19)20(25)11-10-18-4-3-13-29-18/h3-14H,15H2,1-2H3,(H,24,26)

>  <source>  (738) 
ChEMBL28

>  <source_id>  (738) 
28

>  <optional_reference>  (738) 
10.1016/j.ejmech.2018.12.019

>  <optional_origin>  (738) 
None

>  <target>  (738) 
BCRP

$$$$

     RDKit          2D

 30 33  0  0  0  0  0  0  0  0999 V2000
   10.8986  -19.6992    0.0000 C   0  0  0  0  0  0  0  0  0  0  0  0
   10.8974  -20.5188    0.0000 C   0  0  0  0  0  0  0  0  0  0  0  0
   11.6055  -20.9277    0.0000 C   0  0  0  0  0  0  0  0  0  0  0  0
   11.6037  -19.2904    0.0000 C   0  0  0  0  0  0  0  0  0  0  0  0
   12.3123  -19.6956    0.0000 C   0  0  0  0  0  0  0  0  0  0  0  0
   12.3131  -20.5146    0.0000 C   0  0  0  0  0  0  0  0  0  0  0  0
   13.0216  -20.9217    0.0000 N   0  0  0  0  0  0  0  0  0  0  0  0
   13.7299  -20.5109    0.0000 C   0  0  0  0  0  0  0  0  0  0  0  0
   13.7251  -19.6888    0.0000 N   0  0  0  0  0  0  0  0  0  0  0  0
   13.0160  -19.2854    0.0000 C   0  0  0  0  0  0  0  0  0  0  0  0
   13.0117  -18.4682    0.0000 N   0  0  0  0  0  0  0  0  0  0  0  0
   13.7172  -18.0559    0.0000 C   0  0  0  0  0  0  0  0  0  0  0  0
   14.4225  -18.4641    0.0000 C   0  0  0  0  0  0  0  0  0  0  0  0
   15.1276  -18.0524    0.0000 C   0  0  0  0  0  0  0  0  0  0  0  0
   15.1237  -17.2344    0.0000 C   0  0  0  0  0  0  0  0  0  0  0  0
   14.4088  -16.8297    0.0000 C   0  0  0  0  0  0  0  0  0  0  0  0
   13.7067  -17.2437    0.0000 C   0  0  0  0  0  0  0  0  0  0  0  0
   14.4356  -20.9126    0.0000 C   0  0  0  0  0  0  0  0  0  0  0  0
   14.4375  -21.7309    0.0000 C   0  0  0  0  0  0  0  0  0  0  0  0
   15.1459  -22.1367    0.0000 C   0  0  0  0  0  0  0  0  0  0  0  0
   15.8530  -21.7253    0.0000 C   0  0  0  0  0  0  0  0  0  0  0  0
   15.8472  -20.9039    0.0000 C   0  0  0  0  0  0  0  0  0  0  0  0
   15.1382  -20.5018    0.0000 C   0  0  0  0  0  0  0  0  0  0  0  0
   15.8287  -16.8211    0.0000 C   0  0  0  0  0  0  0  0  0  0  0  0
   16.5391  -17.2250    0.0000 O   0  0  0  0  0  0  0  0  0  0  0  0
   15.8232  -16.0039    0.0000 O   0  0  0  0  0  0  0  0  0  0  0  0
   17.2440  -16.8117    0.0000 C   0  0  0  0  0  0  0  0  0  0  0  0
   17.9545  -17.2156    0.0000 C   0  0  0  0  0  0  0  0  0  0  0  0
   17.2386  -15.9945    0.0000 C   0  0  0  0  0  0  0  0  0  0  0  0
   17.9493  -16.3975    0.0000 C   0  0  0  0  0  0  0  0  0  0  0  0
  1  2  2  0
  2  3  1  0
  3  6  2  0
  5  4  2  0
  4  1  1  0
  5  6  1  0
  6  7  1  0
  7  8  2  0
  8  9  1  0
  9 10  2  0
 10  5  1  0
 10 11  1  0
 11 12  1  0
 12 13  2  0
 13 14  1  0
 14 15  2  0
 15 16  1  0
 16 17  2  0
 17 12  1  0
 18 19  2  0
 19 20  1  0
 20 21  2  0
 21 22  1  0
 22 23  2  0
 23 18  1  0
  8 18  1  0
 15 24  1  0
 24 25  1  0
 24 26  2  0
 25 27  1  0
 27 28  1  0
 27 29  1  0
 27 30  1  0
M  END
>  <Classification>  (739) 
1

>  <pchembl>  (739) 
5.25

>  <InChI_steorem>  (739) 
InChI=1S/C25H23N3O2/c1-25(2,3)30-24(29)18-13-15-19(16-14-18)26-23-20-11-7-8-12-21(20)27-22(28-23)17-9-5-4-6-10-17/h4-16H,1-3H3,(H,26,27,28)

>  <source>  (739) 
ChEMBL28

>  <source_id>  (739) 
28

>  <optional_reference>  (739) 
10.1021/acs.jmedchem.6b00330

>  <optional_origin>  (739) 
None

>  <target>  (739) 
BCRP

$$$$

     RDKit          2D

 30 34  0  0  0  0  0  0  0  0999 V2000
   12.0666   -4.3212    0.0000 C   0  0  0  0  0  0  0  0  0  0  0  0
   12.0655   -5.1407    0.0000 C   0  0  0  0  0  0  0  0  0  0  0  0
   12.7735   -5.5497    0.0000 C   0  0  0  0  0  0  0  0  0  0  0  0
   12.7717   -3.9123    0.0000 C   0  0  0  0  0  0  0  0  0  0  0  0
   13.4803   -4.3176    0.0000 C   0  0  0  0  0  0  0  0  0  0  0  0
   13.4806   -5.1407    0.0000 C   0  0  0  0  0  0  0  0  0  0  0  0
   14.2636   -5.3949    0.0000 N   0  0  0  0  0  0  0  0  0  0  0  0
   14.2631   -4.0630    0.0000 C   0  0  0  0  0  0  0  0  0  0  0  0
   14.7473   -4.7301    0.0000 C   0  0  0  0  0  0  0  0  0  0  0  0
   15.5626   -4.6448    0.0000 C   0  0  0  0  0  0  0  0  0  0  0  0
   15.9001   -3.8935    0.0000 N   0  0  0  0  0  0  0  0  0  0  0  0
   15.4159   -3.2264    0.0000 C   0  0  0  0  0  0  0  0  0  0  0  0
   14.5943   -3.3106    0.0000 C   0  0  0  0  0  0  0  0  0  0  0  0
   16.7130   -3.8096    0.0000 C   0  0  0  0  0  0  0  0  0  0  0  0
   17.1921   -4.4716    0.0000 O   0  0  0  0  0  0  0  0  0  0  0  0
   17.0468   -3.0636    0.0000 C   0  0  0  0  0  0  0  0  0  0  0  0
   17.8599   -2.9838    0.0000 C   0  0  0  0  0  0  0  0  0  0  0  0
   18.1937   -2.2387    0.0000 C   0  0  0  0  0  0  0  0  0  0  0  0
   17.7144   -1.5757    0.0000 C   0  0  0  0  0  0  0  0  0  0  0  0
   16.8976   -1.6627    0.0000 C   0  0  0  0  0  0  0  0  0  0  0  0
   16.5675   -2.4079    0.0000 C   0  0  0  0  0  0  0  0  0  0  0  0
   16.0426   -5.3035    0.0000 C   0  0  0  0  0  0  0  0  0  0  0  0
   15.7071   -6.0499    0.0000 C   0  0  0  0  0  0  0  0  0  0  0  0
   16.1855   -6.7115    0.0000 C   0  0  0  0  0  0  0  0  0  0  0  0
   16.9993   -6.6280    0.0000 C   0  0  0  0  0  0  0  0  0  0  0  0
   17.3324   -5.8771    0.0000 C   0  0  0  0  0  0  0  0  0  0  0  0
   16.8520   -5.2186    0.0000 C   0  0  0  0  0  0  0  0  0  0  0  0
   18.0472   -0.8294    0.0000 O   0  0  0  0  0  0  0  0  0  0  0  0
   18.8600   -0.7444    0.0000 C   0  0  0  0  0  0  0  0  0  0  0  0
   15.8513   -7.4573    0.0000 Cl  0  0  0  0  0  0  0  0  0  0  0  0
  1  2  2  0
  2  3  1  0
  3  6  2  0
  5  4  2  0
  4  1  1  0
  5  6  1  0
  6  7  1  0
  7  9  1  0
  8  5  1  0
  8  9  2  0
  8 13  1  0
  9 10  1  0
 10 11  1  0
 11 12  1  0
 12 13  1  0
 11 14  1  0
 14 15  2  0
 14 16  1  0
 16 17  2  0
 17 18  1  0
 18 19  2  0
 19 20  1  0
 20 21  2  0
 21 16  1  0
 22 23  2  0
 23 24  1  0
 24 25  2  0
 25 26  1  0
 26 27  2  0
 27 22  1  0
 10 22  1  0
 19 28  1  0
 28 29  1  0
 24 30  1  0
M  END
>  <Classification>  (740) 
1

>  <pchembl>  (740) 
6.05

>  <InChI_steorem>  (740) 
InChI=1S/C25H21ClN2O2/c1-30-19-11-9-16(10-12-19)25(29)28-14-13-21-20-7-2-3-8-22(20)27-23(21)24(28)17-5-4-6-18(26)15-17/h2-12,15,24,27H,13-14H2,1H3

>  <source>  (740) 
ChEMBL28

>  <source_id>  (740) 
28

>  <optional_reference>  (740) 
10.1021/acs.jmedchem.6b00035

>  <optional_origin>  (740) 
None

>  <target>  (740) 
BCRP

$$$$

     RDKit          2D

 30 34  0  0  0  0  0  0  0  0999 V2000
   13.6597  -18.0442    0.0000 C   0  0  0  0  0  0  0  0  0  0  0  0
   13.6586  -18.8637    0.0000 C   0  0  0  0  0  0  0  0  0  0  0  0
   14.3666  -19.2727    0.0000 C   0  0  0  0  0  0  0  0  0  0  0  0
   14.3648  -17.6353    0.0000 C   0  0  0  0  0  0  0  0  0  0  0  0
   15.0734  -18.0406    0.0000 C   0  0  0  0  0  0  0  0  0  0  0  0
   15.0737  -18.8638    0.0000 C   0  0  0  0  0  0  0  0  0  0  0  0
   15.8567  -19.1180    0.0000 N   0  0  0  0  0  0  0  0  0  0  0  0
   15.8563  -17.7861    0.0000 C   0  0  0  0  0  0  0  0  0  0  0  0
   16.3404  -18.4532    0.0000 C   0  0  0  0  0  0  0  0  0  0  0  0
   17.1557  -18.3679    0.0000 C   0  0  0  0  0  0  0  0  0  0  0  0
   17.4932  -17.6165    0.0000 N   0  0  0  0  0  0  0  0  0  0  0  0
   17.0090  -16.9494    0.0000 C   0  0  0  0  0  0  0  0  0  0  0  0
   16.1874  -17.0337    0.0000 C   0  0  0  0  0  0  0  0  0  0  0  0
   18.3061  -17.5326    0.0000 C   0  0  0  0  0  0  0  0  0  0  0  0
   18.7852  -18.1946    0.0000 O   0  0  0  0  0  0  0  0  0  0  0  0
   18.6399  -16.7867    0.0000 C   0  0  0  0  0  0  0  0  0  0  0  0
   19.4530  -16.7068    0.0000 C   0  0  0  0  0  0  0  0  0  0  0  0
   19.7868  -15.9618    0.0000 C   0  0  0  0  0  0  0  0  0  0  0  0
   19.3075  -15.2988    0.0000 C   0  0  0  0  0  0  0  0  0  0  0  0
   18.4907  -15.3857    0.0000 C   0  0  0  0  0  0  0  0  0  0  0  0
   18.1607  -16.1310    0.0000 C   0  0  0  0  0  0  0  0  0  0  0  0
   17.6357  -19.0265    0.0000 C   0  0  0  0  0  0  0  0  0  0  0  0
   17.3002  -19.7729    0.0000 C   0  0  0  0  0  0  0  0  0  0  0  0
   17.7786  -20.4345    0.0000 C   0  0  0  0  0  0  0  0  0  0  0  0
   18.5924  -20.3510    0.0000 C   0  0  0  0  0  0  0  0  0  0  0  0
   18.9255  -19.6001    0.0000 C   0  0  0  0  0  0  0  0  0  0  0  0
   18.4451  -18.9417    0.0000 C   0  0  0  0  0  0  0  0  0  0  0  0
   19.6403  -14.5524    0.0000 Cl  0  0  0  0  0  0  0  0  0  0  0  0
   17.4445  -21.1803    0.0000 F   0  0  0  0  0  0  0  0  0  0  0  0
   19.0724  -21.0124    0.0000 F   0  0  0  0  0  0  0  0  0  0  0  0
  1  2  2  0
  2  3  1  0
  3  6  2  0
  5  4  2  0
  4  1  1  0
  5  6  1  0
  6  7  1  0
  7  9  1  0
  8  5  1  0
  8  9  2  0
  8 13  1  0
  9 10  1  0
 10 11  1  0
 11 12  1  0
 12 13  1  0
 11 14  1  0
 14 15  2  0
 14 16  1  0
 16 17  2  0
 17 18  1  0
 18 19  2  0
 19 20  1  0
 20 21  2  0
 21 16  1  0
 22 23  2  0
 23 24  1  0
 24 25  2  0
 25 26  1  0
 26 27  2  0
 27 22  1  0
 10 22  1  0
 19 28  1  0
 24 29  1  0
 25 30  1  0
M  END
>  <Classification>  (741) 
1

>  <pchembl>  (741) 
5.9

>  <InChI_steorem>  (741) 
InChI=1S/C24H17ClF2N2O/c25-16-8-5-14(6-9-16)24(30)29-12-11-18-17-3-1-2-4-21(17)28-22(18)23(29)15-7-10-19(26)20(27)13-15/h1-10,13,23,28H,11-12H2

>  <source>  (741) 
ChEMBL28

>  <source_id>  (741) 
28

>  <optional_reference>  (741) 
10.1021/acs.jmedchem.6b00035

>  <optional_origin>  (741) 
None

>  <target>  (741) 
BCRP

$$$$

     RDKit          2D

 30 34  0  0  0  0  0  0  0  0999 V2000
   23.0244  -10.8670    0.0000 C   0  0  0  0  0  0  0  0  0  0  0  0
   23.0232  -11.6865    0.0000 C   0  0  0  0  0  0  0  0  0  0  0  0
   23.7313  -12.0955    0.0000 C   0  0  0  0  0  0  0  0  0  0  0  0
   23.7295  -10.4581    0.0000 C   0  0  0  0  0  0  0  0  0  0  0  0
   24.4381  -10.8634    0.0000 C   0  0  0  0  0  0  0  0  0  0  0  0
   24.4384  -11.6865    0.0000 C   0  0  0  0  0  0  0  0  0  0  0  0
   25.2213  -11.9407    0.0000 N   0  0  0  0  0  0  0  0  0  0  0  0
   25.2209  -10.6088    0.0000 C   0  0  0  0  0  0  0  0  0  0  0  0
   25.7051  -11.2759    0.0000 C   0  0  0  0  0  0  0  0  0  0  0  0
   26.5204  -11.1906    0.0000 C   0  0  0  0  0  0  0  0  0  0  0  0
   26.8579  -10.4392    0.0000 N   0  0  0  0  0  0  0  0  0  0  0  0
   26.3737   -9.7721    0.0000 C   0  0  0  0  0  0  0  0  0  0  0  0
   25.5521   -9.8564    0.0000 C   0  0  0  0  0  0  0  0  0  0  0  0
   27.6708  -10.3553    0.0000 C   0  0  0  0  0  0  0  0  0  0  0  0
   28.1499  -11.0174    0.0000 O   0  0  0  0  0  0  0  0  0  0  0  0
   28.0045   -9.6094    0.0000 C   0  0  0  0  0  0  0  0  0  0  0  0
   28.8177   -9.5296    0.0000 C   0  0  0  0  0  0  0  0  0  0  0  0
   29.1514   -8.7845    0.0000 C   0  0  0  0  0  0  0  0  0  0  0  0
   28.6722   -8.1215    0.0000 C   0  0  0  0  0  0  0  0  0  0  0  0
   27.8554   -8.2085    0.0000 C   0  0  0  0  0  0  0  0  0  0  0  0
   27.5253   -8.9537    0.0000 C   0  0  0  0  0  0  0  0  0  0  0  0
   27.0004  -11.8493    0.0000 C   0  0  0  0  0  0  0  0  0  0  0  0
   26.6649  -12.5957    0.0000 C   0  0  0  0  0  0  0  0  0  0  0  0
   27.1433  -13.2573    0.0000 C   0  0  0  0  0  0  0  0  0  0  0  0
   27.9571  -13.1737    0.0000 C   0  0  0  0  0  0  0  0  0  0  0  0
   28.2902  -12.4229    0.0000 C   0  0  0  0  0  0  0  0  0  0  0  0
   27.8098  -11.7644    0.0000 C   0  0  0  0  0  0  0  0  0  0  0  0
   29.0050   -7.3751    0.0000 Cl  0  0  0  0  0  0  0  0  0  0  0  0
   26.8091  -14.0030    0.0000 Cl  0  0  0  0  0  0  0  0  0  0  0  0
   28.4370  -13.8351    0.0000 Cl  0  0  0  0  0  0  0  0  0  0  0  0
  1  2  2  0
  2  3  1  0
  3  6  2  0
  5  4  2  0
  4  1  1  0
  5  6  1  0
  6  7  1  0
  7  9  1  0
  8  5  1  0
  8  9  2  0
  8 13  1  0
  9 10  1  0
 10 11  1  0
 11 12  1  0
 12 13  1  0
 11 14  1  0
 14 15  2  0
 14 16  1  0
 16 17  2  0
 17 18  1  0
 18 19  2  0
 19 20  1  0
 20 21  2  0
 21 16  1  0
 22 23  2  0
 23 24  1  0
 24 25  2  0
 25 26  1  0
 26 27  2  0
 27 22  1  0
 10 22  1  0
 19 28  1  0
 24 29  1  0
 25 30  1  0
M  END
>  <Classification>  (742) 
1

>  <pchembl>  (742) 
5.99

>  <InChI_steorem>  (742) 
InChI=1S/C24H17Cl3N2O/c25-16-8-5-14(6-9-16)24(30)29-12-11-18-17-3-1-2-4-21(17)28-22(18)23(29)15-7-10-19(26)20(27)13-15/h1-10,13,23,28H,11-12H2

>  <source>  (742) 
ChEMBL28

>  <source_id>  (742) 
28

>  <optional_reference>  (742) 
10.1021/acs.jmedchem.6b00035

>  <optional_origin>  (742) 
None

>  <target>  (742) 
BCRP

$$$$

     RDKit          2D

 30 34  0  0  0  0  0  0  0  0999 V2000
    2.8092   -3.3595    0.0000 C   0  0  0  0  0  0  0  0  0  0  0  0
    2.8081   -4.1791    0.0000 C   0  0  0  0  0  0  0  0  0  0  0  0
    3.5161   -4.5880    0.0000 C   0  0  0  0  0  0  0  0  0  0  0  0
    3.5143   -2.9507    0.0000 C   0  0  0  0  0  0  0  0  0  0  0  0
    4.2230   -3.3559    0.0000 C   0  0  0  0  0  0  0  0  0  0  0  0
    4.2237   -4.1749    0.0000 C   0  0  0  0  0  0  0  0  0  0  0  0
    4.9323   -4.5820    0.0000 C   0  0  0  0  0  0  0  0  0  0  0  0
    5.6405   -4.1712    0.0000 C   0  0  0  0  0  0  0  0  0  0  0  0
    5.6358   -3.3491    0.0000 C   0  0  0  0  0  0  0  0  0  0  0  0
    4.9267   -2.9457    0.0000 N   0  0  0  0  0  0  0  0  0  0  0  0
    6.3380   -2.9379    0.0000 C   0  0  0  0  0  0  0  0  0  0  0  0
    7.0485   -3.3439    0.0000 C   0  0  0  0  0  0  0  0  0  0  0  0
    7.7532   -2.9317    0.0000 N   0  0  0  0  0  0  0  0  0  0  0  0
    7.7487   -2.1136    0.0000 C   0  0  0  0  0  0  0  0  0  0  0  0
    7.0335   -1.7095    0.0000 C   0  0  0  0  0  0  0  0  0  0  0  0
    6.3317   -2.1241    0.0000 C   0  0  0  0  0  0  0  0  0  0  0  0
    4.9339   -5.3992    0.0000 C   0  0  0  0  0  0  0  0  0  0  0  0
    4.2271   -5.8093    0.0000 O   0  0  0  0  0  0  0  0  0  0  0  0
    5.6425   -5.8063    0.0000 N   0  0  0  0  0  0  0  0  0  0  0  0
    5.6416   -6.6207    0.0000 C   0  0  0  0  0  0  0  0  0  0  0  0
    6.3461   -7.0277    0.0000 C   0  0  0  0  0  0  0  0  0  0  0  0
    7.0554   -6.6212    0.0000 N   0  0  0  0  0  0  0  0  0  0  0  0
    7.0556   -5.8030    0.0000 C   0  0  0  0  0  0  0  0  0  0  0  0
    6.3466   -5.3915    0.0000 C   0  0  0  0  0  0  0  0  0  0  0  0
    7.7624   -7.0310    0.0000 C   0  0  0  0  0  0  0  0  0  0  0  0
    8.4708   -6.6236    0.0000 C   0  0  0  0  0  0  0  0  0  0  0  0
    9.2166   -6.9529    0.0000 S   0  0  0  0  0  0  0  0  0  0  0  0
    9.7644   -6.3466    0.0000 C   0  0  0  0  0  0  0  0  0  0  0  0
    9.3570   -5.6381    0.0000 C   0  0  0  0  0  0  0  0  0  0  0  0
    8.5574   -5.8068    0.0000 C   0  0  0  0  0  0  0  0  0  0  0  0
  1  2  2  0
  2  3  1  0
  3  6  2  0
  5  4  2  0
  4  1  1  0
  5  6  1  0
  6  7  1  0
  7  8  2  0
  8  9  1  0
  9 10  2  0
 10  5  1  0
 11 12  2  0
 12 13  1  0
 13 14  2  0
 14 15  1  0
 15 16  2  0
 16 11  1  0
  9 11  1  0
  7 17  1  0
 17 18  2  0
 17 19  1  0
 19 20  1  0
 19 24  1  0
 20 21  1  0
 21 22  1  0
 22 23  1  0
 23 24  1  0
 22 25  1  0
 25 26  1  0
 26 27  1  0
 27 28  1  0
 28 29  2  0
 29 30  1  0
 30 26  2  0
M  END
>  <Classification>  (743) 
0

>  <pchembl>  (743) 
4.8

>  <InChI_steorem>  (743) 
InChI=1S/C24H22N4OS/c29-24(28-12-10-27(11-13-28)17-19-6-4-14-30-19)21-15-23(18-5-3-9-25-16-18)26-22-8-2-1-7-20(21)22/h1-9,14-16H,10-13,17H2

>  <source>  (743) 
ChEMBL28

>  <source_id>  (743) 
28

>  <optional_reference>  (743) 
10.1021/acs.jmedchem.8b01821

>  <optional_origin>  (743) 
None

>  <target>  (743) 
BCRP

$$$$

     RDKit          2D

 30 34  0  0  0  0  0  0  0  0999 V2000
   35.0275   -6.1481    0.0000 C   0  0  0  0  0  0  0  0  0  0  0  0
   35.7372   -5.7387    0.0000 C   0  0  0  0  0  0  0  0  0  0  0  0
   35.7343   -4.9160    0.0000 C   0  0  0  0  0  0  0  0  0  0  0  0
   35.0257   -4.5108    0.0000 C   0  0  0  0  0  0  0  0  0  0  0  0
   34.3195   -5.7392    0.0000 C   0  0  0  0  0  0  0  0  0  0  0  0
   34.3207   -4.9226    0.0000 C   0  0  0  0  0  0  0  0  0  0  0  0
   33.5445   -4.6691    0.0000 S   0  0  0  0  0  0  0  0  0  0  0  0
   33.0635   -5.3290    0.0000 C   0  0  0  0  0  0  0  0  0  0  0  0
   33.5425   -5.9902    0.0000 N   0  0  0  0  0  0  0  0  0  0  0  0
   36.4455   -6.1462    0.0000 N   0  0  0  0  0  0  0  0  0  0  0  0
   37.1526   -5.7365    0.0000 C   0  0  0  0  0  0  0  0  0  0  0  0
   37.8609   -6.1439    0.0000 C   0  0  0  0  0  0  0  0  0  0  0  0
   37.1513   -4.9193    0.0000 O   0  0  0  0  0  0  0  0  0  0  0  0
   37.8582   -6.9592    0.0000 C   0  0  0  0  0  0  0  0  0  0  0  0
   38.5625   -7.3666    0.0000 C   0  0  0  0  0  0  0  0  0  0  0  0
   39.2720   -6.9604    0.0000 C   0  0  0  0  0  0  0  0  0  0  0  0
   39.2726   -6.1422    0.0000 N   0  0  0  0  0  0  0  0  0  0  0  0
   38.5639   -5.7303    0.0000 C   0  0  0  0  0  0  0  0  0  0  0  0
   39.9811   -5.7349    0.0000 C   0  0  0  0  0  0  0  0  0  0  0  0
   40.6854   -6.1472    0.0000 C   0  0  0  0  0  0  0  0  0  0  0  0
   41.3933   -5.7406    0.0000 C   0  0  0  0  0  0  0  0  0  0  0  0
   41.3953   -4.9225    0.0000 N   0  0  0  0  0  0  0  0  0  0  0  0
   40.6833   -4.5128    0.0000 C   0  0  0  0  0  0  0  0  0  0  0  0
   39.9783   -4.9217    0.0000 N   0  0  0  0  0  0  0  0  0  0  0  0
   42.1012   -6.1481    0.0000 N   0  0  0  0  0  0  0  0  0  0  0  0
   42.1847   -6.9610    0.0000 C   0  0  0  0  0  0  0  0  0  0  0  0
   42.9837   -7.1327    0.0000 C   0  0  0  0  0  0  0  0  0  0  0  0
   43.3939   -6.4259    0.0000 C   0  0  0  0  0  0  0  0  0  0  0  0
   42.8485   -5.8175    0.0000 N   0  0  0  0  0  0  0  0  0  0  0  0
   32.2463   -5.3278    0.0000 C   0  0  0  0  0  0  0  0  0  0  0  0
  5  1  2  0
  1  2  1  0
  2  3  2  0
  3  4  1  0
  4  6  2  0
  5  6  1  0
  6  7  1  0
  7  8  1  0
  8  9  2  0
  9  5  1  0
  2 10  1  0
 10 11  1  0
 11 12  1  0
 11 13  2  0
 12 14  1  0
 12 18  1  0
 14 15  1  0
 15 16  1  0
 16 17  1  0
 17 18  1  0
 17 19  1  0
 19 20  2  0
 20 21  1  0
 21 22  2  0
 22 23  1  0
 23 24  2  0
 24 19  1  0
 25 26  1  0
 26 27  2  0
 27 28  1  0
 28 29  2  0
 29 25  1  0
 21 25  1  0
  8 30  1  0
M  END
>  <Classification>  (744) 
1

>  <pchembl>  (744) 
5.86

>  <InChI_steorem>  (744) 
InChI=1S/C21H21N7OS/c1-14-25-17-10-16(5-6-18(17)30-14)26-21(29)15-4-2-8-27(12-15)19-11-20(23-13-22-19)28-9-3-7-24-28/h3,5-7,9-11,13,15H,2,4,8,12H2,1H3,(H,26,29)

>  <source>  (744) 
ChEMBL28

>  <source_id>  (744) 
28

>  <optional_reference>  (744) 
10.1021/acs.jmedchem.8b01821

>  <optional_origin>  (744) 
None

>  <target>  (744) 
BCRP

$$$$

     RDKit          2D

 31 34  0  0  0  0  0  0  0  0999 V2000
   19.3650  -26.5216    0.0000 C   0  0  0  0  0  0  0  0  0  0  0  0
   19.3691  -27.3470    0.0000 C   0  0  0  0  0  0  0  0  0  0  0  0
   20.0748  -26.1130    0.0000 C   0  0  0  0  0  0  0  0  0  0  0  0
   20.7806  -26.5216    0.0000 C   0  0  0  0  0  0  0  0  0  0  0  0
   20.7806  -27.3470    0.0000 C   0  0  0  0  0  0  0  0  0  0  0  0
   20.0748  -27.7556    0.0000 C   0  0  0  0  0  0  0  0  0  0  0  0
   18.5767  -26.2739    0.0000 C   0  0  0  0  0  0  0  0  0  0  0  0
   18.0938  -26.9425    0.0000 O   0  0  0  0  0  0  0  0  0  0  0  0
   18.5890  -27.5988    0.0000 C   0  0  0  0  0  0  0  0  0  0  0  0
   18.3290  -25.4939    0.0000 O   0  0  0  0  0  0  0  0  0  0  0  0
   21.4885  -27.7552    0.0000 N   0  0  0  0  0  0  0  0  0  0  0  0
   22.1960  -27.3462    0.0000 C   0  0  0  0  0  0  0  0  0  0  0  0
   22.9040  -27.7543    0.0000 C   0  0  0  0  0  0  0  0  0  0  0  0
   22.1955  -26.5290    0.0000 O   0  0  0  0  0  0  0  0  0  0  0  0
   23.6114  -27.3453    0.0000 O   0  0  0  0  0  0  0  0  0  0  0  0
   24.3194  -27.7535    0.0000 C   0  0  0  0  0  0  0  0  0  0  0  0
   24.3154  -28.5697    0.0000 C   0  0  0  0  0  0  0  0  0  0  0  0
   25.0225  -28.9778    0.0000 C   0  0  0  0  0  0  0  0  0  0  0  0
   25.7309  -28.5688    0.0000 C   0  0  0  0  0  0  0  0  0  0  0  0
   25.7278  -27.7473    0.0000 C   0  0  0  0  0  0  0  0  0  0  0  0
   25.0201  -27.3430    0.0000 C   0  0  0  0  0  0  0  0  0  0  0  0
   26.4338  -27.3358    0.0000 C   0  0  0  0  0  0  0  0  0  0  0  0
   27.1432  -27.7415    0.0000 C   0  0  0  0  0  0  0  0  0  0  0  0
   26.4305  -26.5187    0.0000 O   0  0  0  0  0  0  0  0  0  0  0  0
   27.8492  -27.3300    0.0000 C   0  0  0  0  0  0  0  0  0  0  0  0
   28.5586  -27.7357    0.0000 C   0  0  0  0  0  0  0  0  0  0  0  0
   28.5569  -28.5532    0.0000 C   0  0  0  0  0  0  0  0  0  0  0  0
   29.2655  -28.9588    0.0000 C   0  0  0  0  0  0  0  0  0  0  0  0
   29.9725  -28.5473    0.0000 C   0  0  0  0  0  0  0  0  0  0  0  0
   29.9664  -27.7259    0.0000 C   0  0  0  0  0  0  0  0  0  0  0  0
   29.2573  -27.3240    0.0000 C   0  0  0  0  0  0  0  0  0  0  0  0
  2  1  1  0
  3  1  2  0
  4  3  1  0
  5  4  2  0
  6  2  2  0
  7  1  1  0
  8  7  1  0
  9  2  1  0
 10  7  2  0
  8  9  1  0
  6  5  1  0
  5 11  1  0
 11 12  1  0
 12 13  1  0
 12 14  2  0
 13 15  1  0
 15 16  1  0
 16 17  2  0
 17 18  1  0
 18 19  2  0
 19 20  1  0
 20 21  2  0
 21 16  1  0
 20 22  1  0
 22 23  1  0
 22 24  2  0
 23 25  2  3
 25 26  1  0
 26 27  2  0
 27 28  1  0
 28 29  2  0
 29 30  1  0
 30 31  2  0
 31 26  1  0
M  END
>  <Classification>  (745) 
1

>  <pchembl>  (745) 
5.22

>  <InChI_steorem>  (745) 
InChI=1S/C25H19NO5/c27-23(12-9-17-5-2-1-3-6-17)18-7-4-8-21(14-18)30-16-24(28)26-20-10-11-22-19(13-20)15-31-25(22)29/h1-14H,15-16H2,(H,26,28)

>  <source>  (745) 
ChEMBL28

>  <source_id>  (745) 
28

>  <optional_reference>  (745) 
10.1016/j.ejmech.2018.12.019

>  <optional_origin>  (745) 
None

>  <target>  (745) 
BCRP

$$$$

     RDKit          2D

 31 35  0  0  0  0  0  0  0  0999 V2000
   11.7282   -3.6608    0.0000 C   0  0  0  0  0  0  0  0  0  0  0  0
   11.7270   -4.4803    0.0000 C   0  0  0  0  0  0  0  0  0  0  0  0
   12.4351   -4.8893    0.0000 C   0  0  0  0  0  0  0  0  0  0  0  0
   12.4333   -3.2520    0.0000 C   0  0  0  0  0  0  0  0  0  0  0  0
   13.1419   -3.6572    0.0000 C   0  0  0  0  0  0  0  0  0  0  0  0
   13.1422   -4.4804    0.0000 C   0  0  0  0  0  0  0  0  0  0  0  0
   13.9251   -4.7346    0.0000 N   0  0  0  0  0  0  0  0  0  0  0  0
   13.9247   -3.4027    0.0000 C   0  0  0  0  0  0  0  0  0  0  0  0
   14.4089   -4.0698    0.0000 C   0  0  0  0  0  0  0  0  0  0  0  0
   15.2242   -3.9845    0.0000 C   0  0  0  0  0  0  0  0  0  0  0  0
   15.5617   -3.2331    0.0000 N   0  0  0  0  0  0  0  0  0  0  0  0
   15.0775   -2.5660    0.0000 C   0  0  0  0  0  0  0  0  0  0  0  0
   14.2558   -2.6503    0.0000 C   0  0  0  0  0  0  0  0  0  0  0  0
   16.3745   -3.1492    0.0000 C   0  0  0  0  0  0  0  0  0  0  0  0
   16.8536   -3.8112    0.0000 O   0  0  0  0  0  0  0  0  0  0  0  0
   16.7083   -2.4033    0.0000 C   0  0  0  0  0  0  0  0  0  0  0  0
   17.5214   -2.3234    0.0000 C   0  0  0  0  0  0  0  0  0  0  0  0
   17.8552   -1.5784    0.0000 C   0  0  0  0  0  0  0  0  0  0  0  0
   17.3760   -0.9154    0.0000 C   0  0  0  0  0  0  0  0  0  0  0  0
   16.5592   -1.0023    0.0000 C   0  0  0  0  0  0  0  0  0  0  0  0
   16.2291   -1.7476    0.0000 C   0  0  0  0  0  0  0  0  0  0  0  0
   15.7041   -4.6432    0.0000 C   0  0  0  0  0  0  0  0  0  0  0  0
   15.3687   -5.3895    0.0000 C   0  0  0  0  0  0  0  0  0  0  0  0
   15.8470   -6.0511    0.0000 C   0  0  0  0  0  0  0  0  0  0  0  0
   16.6608   -5.9676    0.0000 C   0  0  0  0  0  0  0  0  0  0  0  0
   16.9939   -5.2167    0.0000 C   0  0  0  0  0  0  0  0  0  0  0  0
   16.5135   -4.5583    0.0000 C   0  0  0  0  0  0  0  0  0  0  0  0
   17.8065   -5.1300    0.0000 O   0  0  0  0  0  0  0  0  0  0  0  0
   18.2879   -5.7903    0.0000 C   0  0  0  0  0  0  0  0  0  0  0  0
   17.1408   -6.6290    0.0000 O   0  0  0  0  0  0  0  0  0  0  0  0
   16.8080   -7.3753    0.0000 C   0  0  0  0  0  0  0  0  0  0  0  0
  1  2  2  0
  2  3  1  0
  3  6  2  0
  5  4  2  0
  4  1  1  0
  5  6  1  0
  6  7  1  0
  7  9  1  0
  8  5  1  0
  8  9  2  0
  8 13  1  0
  9 10  1  0
 10 11  1  0
 11 12  1  0
 12 13  1  0
 11 14  1  0
 14 15  2  0
 14 16  1  0
 16 17  2  0
 17 18  1  0
 18 19  2  0
 19 20  1  0
 20 21  2  0
 21 16  1  0
 22 23  2  0
 23 24  1  0
 24 25  2  0
 25 26  1  0
 26 27  2  0
 27 22  1  0
 10 22  1  0
 26 28  1  0
 28 29  1  0
 25 30  1  0
 30 31  1  0
M  END
>  <Classification>  (746) 
1

>  <pchembl>  (746) 
5.44

>  <InChI_steorem>  (746) 
InChI=1S/C26H24N2O3/c1-30-22-13-12-18(16-23(22)31-2)25-24-20(19-10-6-7-11-21(19)27-24)14-15-28(25)26(29)17-8-4-3-5-9-17/h3-13,16,25,27H,14-15H2,1-2H3

>  <source>  (746) 
ChEMBL28

>  <source_id>  (746) 
28

>  <optional_reference>  (746) 
10.1021/acs.jmedchem.6b00035

>  <optional_origin>  (746) 
None

>  <target>  (746) 
BCRP

$$$$

     RDKit          2D

 31 35  0  0  0  0  0  0  0  0999 V2000
   12.5288  -11.9689    0.0000 C   0  0  0  0  0  0  0  0  0  0  0  0
   12.5277  -12.7885    0.0000 C   0  0  0  0  0  0  0  0  0  0  0  0
   13.2357  -13.1974    0.0000 C   0  0  0  0  0  0  0  0  0  0  0  0
   13.2340  -11.5601    0.0000 C   0  0  0  0  0  0  0  0  0  0  0  0
   13.9426  -11.9653    0.0000 C   0  0  0  0  0  0  0  0  0  0  0  0
   13.9428  -12.7885    0.0000 C   0  0  0  0  0  0  0  0  0  0  0  0
   14.7258  -13.0427    0.0000 N   0  0  0  0  0  0  0  0  0  0  0  0
   14.7254  -11.7108    0.0000 C   0  0  0  0  0  0  0  0  0  0  0  0
   15.2096  -12.3779    0.0000 C   0  0  0  0  0  0  0  0  0  0  0  0
   16.0249  -12.2926    0.0000 C   0  0  0  0  0  0  0  0  0  0  0  0
   16.3623  -11.5412    0.0000 N   0  0  0  0  0  0  0  0  0  0  0  0
   15.8782  -10.8741    0.0000 C   0  0  0  0  0  0  0  0  0  0  0  0
   15.0565  -10.9584    0.0000 C   0  0  0  0  0  0  0  0  0  0  0  0
   17.1752  -11.4573    0.0000 C   0  0  0  0  0  0  0  0  0  0  0  0
   17.6543  -12.1193    0.0000 O   0  0  0  0  0  0  0  0  0  0  0  0
   17.5090  -10.7114    0.0000 C   0  0  0  0  0  0  0  0  0  0  0  0
   18.3221  -10.6316    0.0000 C   0  0  0  0  0  0  0  0  0  0  0  0
   18.6559   -9.8865    0.0000 C   0  0  0  0  0  0  0  0  0  0  0  0
   18.1767   -9.2235    0.0000 C   0  0  0  0  0  0  0  0  0  0  0  0
   17.3598   -9.3104    0.0000 C   0  0  0  0  0  0  0  0  0  0  0  0
   17.0298  -10.0557    0.0000 C   0  0  0  0  0  0  0  0  0  0  0  0
   16.5048  -12.9513    0.0000 C   0  0  0  0  0  0  0  0  0  0  0  0
   16.1694  -13.6976    0.0000 C   0  0  0  0  0  0  0  0  0  0  0  0
   16.6477  -14.3593    0.0000 C   0  0  0  0  0  0  0  0  0  0  0  0
   17.4615  -14.2757    0.0000 C   0  0  0  0  0  0  0  0  0  0  0  0
   17.7946  -13.5249    0.0000 C   0  0  0  0  0  0  0  0  0  0  0  0
   17.3142  -12.8664    0.0000 C   0  0  0  0  0  0  0  0  0  0  0  0
   18.5094   -8.4771    0.0000 O   0  0  0  0  0  0  0  0  0  0  0  0
   19.3222   -8.3921    0.0000 C   0  0  0  0  0  0  0  0  0  0  0  0
   16.3136  -15.1050    0.0000 Cl  0  0  0  0  0  0  0  0  0  0  0  0
   17.9415  -14.9371    0.0000 Cl  0  0  0  0  0  0  0  0  0  0  0  0
  1  2  2  0
  2  3  1  0
  3  6  2  0
  5  4  2  0
  4  1  1  0
  5  6  1  0
  6  7  1  0
  7  9  1  0
  8  5  1  0
  8  9  2  0
  8 13  1  0
  9 10  1  0
 10 11  1  0
 11 12  1  0
 12 13  1  0
 11 14  1  0
 14 15  2  0
 14 16  1  0
 16 17  2  0
 17 18  1  0
 18 19  2  0
 19 20  1  0
 20 21  2  0
 21 16  1  0
 22 23  2  0
 23 24  1  0
 24 25  2  0
 25 26  1  0
 26 27  2  0
 27 22  1  0
 10 22  1  0
 19 28  1  0
 28 29  1  0
 24 30  1  0
 25 31  1  0
M  END
>  <Classification>  (747) 
1

>  <pchembl>  (747) 
6.62

>  <InChI_steorem>  (747) 
InChI=1S/C25H20Cl2N2O2/c1-31-17-9-6-15(7-10-17)25(30)29-13-12-19-18-4-2-3-5-22(18)28-23(19)24(29)16-8-11-20(26)21(27)14-16/h2-11,14,24,28H,12-13H2,1H3

>  <source>  (747) 
ChEMBL28

>  <source_id>  (747) 
28

>  <optional_reference>  (747) 
10.1021/acs.jmedchem.6b00035

>  <optional_origin>  (747) 
None

>  <target>  (747) 
BCRP

$$$$

     RDKit          2D

 31 35  0  0  0  0  0  0  0  0999 V2000
    1.2656   -5.0558    0.0000 C   0  0  0  0  0  0  0  0  0  0  0  0
    1.2645   -5.8754    0.0000 C   0  0  0  0  0  0  0  0  0  0  0  0
    1.9725   -6.2843    0.0000 C   0  0  0  0  0  0  0  0  0  0  0  0
    1.9708   -4.6470    0.0000 C   0  0  0  0  0  0  0  0  0  0  0  0
    2.6794   -5.0522    0.0000 C   0  0  0  0  0  0  0  0  0  0  0  0
    2.6796   -5.8754    0.0000 C   0  0  0  0  0  0  0  0  0  0  0  0
    3.4626   -6.1296    0.0000 N   0  0  0  0  0  0  0  0  0  0  0  0
    3.4622   -4.7977    0.0000 C   0  0  0  0  0  0  0  0  0  0  0  0
    3.9464   -5.4648    0.0000 C   0  0  0  0  0  0  0  0  0  0  0  0
    4.7617   -5.3795    0.0000 C   0  0  0  0  0  0  0  0  0  0  0  0
    5.0991   -4.6281    0.0000 N   0  0  0  0  0  0  0  0  0  0  0  0
    4.6150   -3.9610    0.0000 C   0  0  0  0  0  0  0  0  0  0  0  0
    3.7933   -4.0453    0.0000 C   0  0  0  0  0  0  0  0  0  0  0  0
    5.9120   -4.5442    0.0000 C   0  0  0  0  0  0  0  0  0  0  0  0
    6.3911   -5.2062    0.0000 O   0  0  0  0  0  0  0  0  0  0  0  0
    6.2458   -3.7983    0.0000 C   0  0  0  0  0  0  0  0  0  0  0  0
    7.0589   -3.7184    0.0000 C   0  0  0  0  0  0  0  0  0  0  0  0
    7.3927   -2.9734    0.0000 C   0  0  0  0  0  0  0  0  0  0  0  0
    6.9134   -2.3104    0.0000 C   0  0  0  0  0  0  0  0  0  0  0  0
    6.0966   -2.3973    0.0000 C   0  0  0  0  0  0  0  0  0  0  0  0
    5.7666   -3.1426    0.0000 C   0  0  0  0  0  0  0  0  0  0  0  0
    5.2416   -6.0382    0.0000 C   0  0  0  0  0  0  0  0  0  0  0  0
    4.9062   -6.7845    0.0000 C   0  0  0  0  0  0  0  0  0  0  0  0
    5.3845   -7.4461    0.0000 C   0  0  0  0  0  0  0  0  0  0  0  0
    6.1983   -7.3626    0.0000 C   0  0  0  0  0  0  0  0  0  0  0  0
    6.5314   -6.6117    0.0000 C   0  0  0  0  0  0  0  0  0  0  0  0
    6.0510   -5.9533    0.0000 C   0  0  0  0  0  0  0  0  0  0  0  0
    7.2462   -1.5640    0.0000 O   0  0  0  0  0  0  0  0  0  0  0  0
    8.0590   -1.4790    0.0000 C   0  0  0  0  0  0  0  0  0  0  0  0
    5.0504   -8.1919    0.0000 O   0  0  0  0  0  0  0  0  0  0  0  0
    4.2375   -8.2754    0.0000 C   0  0  0  0  0  0  0  0  0  0  0  0
  1  2  2  0
  2  3  1  0
  3  6  2  0
  5  4  2  0
  4  1  1  0
  5  6  1  0
  6  7  1  0
  7  9  1  0
  8  5  1  0
  8  9  2  0
  8 13  1  0
  9 10  1  0
 10 11  1  0
 11 12  1  0
 12 13  1  0
 11 14  1  0
 14 15  2  0
 14 16  1  0
 16 17  2  0
 17 18  1  0
 18 19  2  0
 19 20  1  0
 20 21  2  0
 21 16  1  0
 22 23  2  0
 23 24  1  0
 24 25  2  0
 25 26  1  0
 26 27  2  0
 27 22  1  0
 10 22  1  0
 19 28  1  0
 28 29  1  0
 24 30  1  0
 30 31  1  0
M  END
>  <Classification>  (748) 
1

>  <pchembl>  (748) 
5.84

>  <InChI_steorem>  (748) 
InChI=1S/C26H24N2O3/c1-30-19-12-10-17(11-13-19)26(29)28-15-14-22-21-8-3-4-9-23(21)27-24(22)25(28)18-6-5-7-20(16-18)31-2/h3-13,16,25,27H,14-15H2,1-2H3

>  <source>  (748) 
ChEMBL28

>  <source_id>  (748) 
28

>  <optional_reference>  (748) 
10.1021/acs.jmedchem.6b00035

>  <optional_origin>  (748) 
None

>  <target>  (748) 
BCRP

$$$$

     RDKit          2D

 31 35  0  0  0  0  0  0  0  0999 V2000
   13.7629  -19.0636    0.0000 C   0  0  0  0  0  0  0  0  0  0  0  0
   13.7617  -19.8832    0.0000 C   0  0  0  0  0  0  0  0  0  0  0  0
   14.4698  -20.2921    0.0000 C   0  0  0  0  0  0  0  0  0  0  0  0
   14.4680  -18.6548    0.0000 C   0  0  0  0  0  0  0  0  0  0  0  0
   15.1766  -19.0600    0.0000 C   0  0  0  0  0  0  0  0  0  0  0  0
   15.1769  -19.8832    0.0000 C   0  0  0  0  0  0  0  0  0  0  0  0
   15.9598  -20.1374    0.0000 N   0  0  0  0  0  0  0  0  0  0  0  0
   15.9594  -18.8055    0.0000 C   0  0  0  0  0  0  0  0  0  0  0  0
   16.4436  -19.4726    0.0000 C   0  0  0  0  0  0  0  0  0  0  0  0
   17.2589  -19.3873    0.0000 C   0  0  0  0  0  0  0  0  0  0  0  0
   17.5964  -18.6359    0.0000 N   0  0  0  0  0  0  0  0  0  0  0  0
   17.1122  -17.9688    0.0000 C   0  0  0  0  0  0  0  0  0  0  0  0
   16.2906  -18.0531    0.0000 C   0  0  0  0  0  0  0  0  0  0  0  0
   18.4093  -18.5520    0.0000 C   0  0  0  0  0  0  0  0  0  0  0  0
   18.8884  -19.2140    0.0000 O   0  0  0  0  0  0  0  0  0  0  0  0
   18.7430  -17.8061    0.0000 C   0  0  0  0  0  0  0  0  0  0  0  0
   19.5562  -17.7263    0.0000 C   0  0  0  0  0  0  0  0  0  0  0  0
   19.8899  -16.9812    0.0000 C   0  0  0  0  0  0  0  0  0  0  0  0
   19.4107  -16.3182    0.0000 C   0  0  0  0  0  0  0  0  0  0  0  0
   18.5939  -16.4051    0.0000 C   0  0  0  0  0  0  0  0  0  0  0  0
   18.2638  -17.1504    0.0000 C   0  0  0  0  0  0  0  0  0  0  0  0
   17.7389  -20.0460    0.0000 C   0  0  0  0  0  0  0  0  0  0  0  0
   17.4034  -20.7923    0.0000 C   0  0  0  0  0  0  0  0  0  0  0  0
   17.8818  -21.4540    0.0000 C   0  0  0  0  0  0  0  0  0  0  0  0
   18.6956  -21.3704    0.0000 C   0  0  0  0  0  0  0  0  0  0  0  0
   19.0287  -20.6196    0.0000 C   0  0  0  0  0  0  0  0  0  0  0  0
   18.5483  -19.9611    0.0000 C   0  0  0  0  0  0  0  0  0  0  0  0
   17.5476  -22.1997    0.0000 Cl  0  0  0  0  0  0  0  0  0  0  0  0
   19.1755  -22.0318    0.0000 Cl  0  0  0  0  0  0  0  0  0  0  0  0
   20.7029  -16.8977    0.0000 O   0  0  0  0  0  0  0  0  0  0  0  0
   21.1816  -17.5599    0.0000 C   0  0  0  0  0  0  0  0  0  0  0  0
  1  2  2  0
  2  3  1  0
  3  6  2  0
  5  4  2  0
  4  1  1  0
  5  6  1  0
  6  7  1  0
  7  9  1  0
  8  5  1  0
  8  9  2  0
  8 13  1  0
  9 10  1  0
 10 11  1  0
 11 12  1  0
 12 13  1  0
 11 14  1  0
 14 15  2  0
 14 16  1  0
 16 17  2  0
 17 18  1  0
 18 19  2  0
 19 20  1  0
 20 21  2  0
 21 16  1  0
 22 23  2  0
 23 24  1  0
 24 25  2  0
 25 26  1  0
 26 27  2  0
 27 22  1  0
 10 22  1  0
 24 28  1  0
 25 29  1  0
 18 30  1  0
 30 31  1  0
M  END
>  <Classification>  (749) 
1

>  <pchembl>  (749) 
6.69

>  <InChI_steorem>  (749) 
InChI=1S/C25H20Cl2N2O2/c1-31-17-6-4-5-16(13-17)25(30)29-12-11-19-18-7-2-3-8-22(18)28-23(19)24(29)15-9-10-20(26)21(27)14-15/h2-10,13-14,24,28H,11-12H2,1H3

>  <source>  (749) 
ChEMBL28

>  <source_id>  (749) 
28

>  <optional_reference>  (749) 
10.1021/acs.jmedchem.6b00035

>  <optional_origin>  (749) 
None

>  <target>  (749) 
BCRP

$$$$

     RDKit          2D

 31 35  0  0  0  0  0  0  0  0999 V2000
   15.8752   -3.5390    0.0000 O   0  0  0  0  0  0  0  0  0  0  0  0
   15.4689   -2.8307    0.0000 C   0  0  0  0  0  0  0  0  0  0  0  0
   14.6517   -2.8307    0.0000 C   0  0  0  0  0  0  0  0  0  0  0  0
   14.2408   -3.5390    0.0000 O   0  0  0  0  0  0  0  0  0  0  0  0
   15.4689   -4.2428    0.0000 C   0  0  0  0  0  0  0  0  0  0  0  0
   14.6535   -4.2402    0.0000 C   0  0  0  0  0  0  0  0  0  0  0  0
   14.2454   -4.9440    0.0000 C   0  0  0  0  0  0  0  0  0  0  0  0
   14.6515   -5.6508    0.0000 C   0  0  0  0  0  0  0  0  0  0  0  0
   15.4700   -5.6494    0.0000 C   0  0  0  0  0  0  0  0  0  0  0  0
   15.8744   -4.9450    0.0000 C   0  0  0  0  0  0  0  0  0  0  0  0
   15.8800   -6.3562    0.0000 C   0  0  0  0  0  0  0  0  0  0  0  0
   15.4729   -7.0648    0.0000 O   0  0  0  0  0  0  0  0  0  0  0  0
   16.6972   -6.3546    0.0000 C   0  0  0  0  0  0  0  0  0  0  0  0
   17.1021   -7.0620    0.0000 C   0  0  0  0  0  0  0  0  0  0  0  0
   17.9157   -7.0623    0.0000 C   0  0  0  0  0  0  0  0  0  0  0  0
   18.3267   -6.3556    0.0000 N   0  0  0  0  0  0  0  0  0  0  0  0
   17.9179   -5.6469    0.0000 C   0  0  0  0  0  0  0  0  0  0  0  0
   17.0981   -5.6450    0.0000 C   0  0  0  0  0  0  0  0  0  0  0  0
   19.1439   -6.3570    0.0000 C   0  0  0  0  0  0  0  0  0  0  0  0
   19.5512   -7.0654    0.0000 O   0  0  0  0  0  0  0  0  0  0  0  0
   19.5537   -5.6500    0.0000 C   0  0  0  0  0  0  0  0  0  0  0  0
   20.3680   -5.6531    0.0000 C   0  0  0  0  0  0  0  0  0  0  0  0
   20.7777   -4.9469    0.0000 C   0  0  0  0  0  0  0  0  0  0  0  0
   20.3703   -4.2375    0.0000 C   0  0  0  0  0  0  0  0  0  0  0  0
   19.5489   -4.2387    0.0000 C   0  0  0  0  0  0  0  0  0  0  0  0
   19.1428   -4.9455    0.0000 C   0  0  0  0  0  0  0  0  0  0  0  0
   20.7765   -3.5335    0.0000 N   0  0  0  0  0  0  0  0  0  0  0  0
   21.5892   -3.4484    0.0000 N   0  0  0  0  0  0  0  0  0  0  0  0
   21.7595   -2.6491    0.0000 C   0  0  0  0  0  0  0  0  0  0  0  0
   21.0519   -2.2402    0.0000 C   0  0  0  0  0  0  0  0  0  0  0  0
   20.4445   -2.7869    0.0000 C   0  0  0  0  0  0  0  0  0  0  0  0
  6  4  1  0
  5  1  1  0
  1  2  1  0
  2  3  1  0
  3  4  1  0
  5  6  2  0
  6  7  1  0
  7  8  2  0
  8  9  1  0
  9 10  2  0
 10  5  1  0
  9 11  1  0
 11 12  2  0
 11 13  1  0
 13 14  1  0
 13 18  1  0
 14 15  1  0
 15 16  1  0
 16 17  1  0
 17 18  1  0
 16 19  1  0
 19 20  2  0
 19 21  1  0
 21 22  2  0
 22 23  1  0
 23 24  2  0
 24 25  1  0
 25 26  2  0
 26 21  1  0
 27 28  1  0
 28 29  2  0
 29 30  1  0
 30 31  2  0
 31 27  1  0
 24 27  1  0
M  END
>  <Classification>  (750) 
0

>  <pchembl>  (750) 
4.98

>  <InChI_steorem>  (750) 
InChI=1S/C24H23N3O4/c28-23(19-4-7-21-22(16-19)31-15-14-30-21)17-8-12-26(13-9-17)24(29)18-2-5-20(6-3-18)27-11-1-10-25-27/h1-7,10-11,16-17H,8-9,12-15H2

>  <source>  (750) 
ChEMBL28

>  <source_id>  (750) 
28

>  <optional_reference>  (750) 
10.1021/acs.jmedchem.8b01821

>  <optional_origin>  (750) 
None

>  <target>  (750) 
BCRP

$$$$

     RDKit          2D

 31 35  0  0  0  0  0  0  0  0999 V2000
   21.8646  -10.9000    0.0000 C   0  0  0  0  0  0  0  0  0  0  0  0
   21.8635  -11.7195    0.0000 C   0  0  0  0  0  0  0  0  0  0  0  0
   22.5715  -12.1285    0.0000 C   0  0  0  0  0  0  0  0  0  0  0  0
   22.5698  -10.4911    0.0000 C   0  0  0  0  0  0  0  0  0  0  0  0
   23.2784  -10.8964    0.0000 C   0  0  0  0  0  0  0  0  0  0  0  0
   23.2786  -11.7195    0.0000 C   0  0  0  0  0  0  0  0  0  0  0  0
   24.0616  -11.9737    0.0000 N   0  0  0  0  0  0  0  0  0  0  0  0
   24.0612  -10.6418    0.0000 C   0  0  0  0  0  0  0  0  0  0  0  0
   24.5454  -11.3089    0.0000 C   0  0  0  0  0  0  0  0  0  0  0  0
   25.3607  -11.2237    0.0000 C   0  0  0  0  0  0  0  0  0  0  0  0
   25.6981  -10.4723    0.0000 N   0  0  0  0  0  0  0  0  0  0  0  0
   25.2140   -9.8052    0.0000 C   0  0  0  0  0  0  0  0  0  0  0  0
   24.3923   -9.8894    0.0000 C   0  0  0  0  0  0  0  0  0  0  0  0
   26.5110  -10.3884    0.0000 C   0  0  0  0  0  0  0  0  0  0  0  0
   26.9901  -11.0504    0.0000 O   0  0  0  0  0  0  0  0  0  0  0  0
   26.8448   -9.6424    0.0000 C   0  0  0  0  0  0  0  0  0  0  0  0
   27.6579   -9.5626    0.0000 C   0  0  0  0  0  0  0  0  0  0  0  0
   27.9917   -8.8175    0.0000 C   0  0  0  0  0  0  0  0  0  0  0  0
   27.5124   -8.1545    0.0000 C   0  0  0  0  0  0  0  0  0  0  0  0
   26.6956   -8.2415    0.0000 C   0  0  0  0  0  0  0  0  0  0  0  0
   26.3656   -8.9868    0.0000 C   0  0  0  0  0  0  0  0  0  0  0  0
   25.8406  -11.8823    0.0000 C   0  0  0  0  0  0  0  0  0  0  0  0
   25.5052  -12.6287    0.0000 C   0  0  0  0  0  0  0  0  0  0  0  0
   25.9835  -13.2903    0.0000 C   0  0  0  0  0  0  0  0  0  0  0  0
   26.7973  -13.2068    0.0000 C   0  0  0  0  0  0  0  0  0  0  0  0
   27.1304  -12.4559    0.0000 C   0  0  0  0  0  0  0  0  0  0  0  0
   26.6500  -11.7974    0.0000 C   0  0  0  0  0  0  0  0  0  0  0  0
   27.2773  -13.8681    0.0000 N   0  0  0  0  0  0  0  0  0  0  0  0
   26.9445  -14.6145    0.0000 C   0  0  0  0  0  0  0  0  0  0  0  0
   27.4245  -15.2759    0.0000 O   0  0  0  0  0  0  0  0  0  0  0  0
   26.1317  -14.6995    0.0000 C   0  0  0  0  0  0  0  0  0  0  0  0
  1  2  2  0
  2  3  1  0
  3  6  2  0
  5  4  2  0
  4  1  1  0
  5  6  1  0
  6  7  1  0
  7  9  1  0
  8  5  1  0
  8  9  2  0
  8 13  1  0
  9 10  1  0
 10 11  1  0
 11 12  1  0
 12 13  1  0
 11 14  1  0
 14 15  2  0
 14 16  1  0
 16 17  2  0
 17 18  1  0
 18 19  2  0
 19 20  1  0
 20 21  2  0
 21 16  1  0
 22 23  2  0
 23 24  1  0
 24 25  2  0
 25 26  1  0
 26 27  2  0
 27 22  1  0
 10 22  1  0
 25 28  1  0
 28 29  1  0
 29 30  2  0
 29 31  1  0
M  END
>  <Classification>  (751) 
1

>  <pchembl>  (751) 
5.11

>  <InChI_steorem>  (751) 
InChI=1S/C26H23N3O2/c1-17(30)27-20-13-11-18(12-14-20)25-24-22(21-9-5-6-10-23(21)28-24)15-16-29(25)26(31)19-7-3-2-4-8-19/h2-14,25,28H,15-16H2,1H3,(H,27,30)

>  <source>  (751) 
ChEMBL28

>  <source_id>  (751) 
28

>  <optional_reference>  (751) 
10.1021/acs.jmedchem.6b00035

>  <optional_origin>  (751) 
None

>  <target>  (751) 
BCRP

$$$$

     RDKit          2D

 31 35  0  0  0  0  0  0  0  0999 V2000
   23.3174   -4.7710    0.0000 C   0  0  0  0  0  0  0  0  0  0  0  0
   23.3163   -5.5906    0.0000 C   0  0  0  0  0  0  0  0  0  0  0  0
   24.0243   -5.9995    0.0000 C   0  0  0  0  0  0  0  0  0  0  0  0
   24.0225   -4.3622    0.0000 C   0  0  0  0  0  0  0  0  0  0  0  0
   24.7312   -4.7674    0.0000 C   0  0  0  0  0  0  0  0  0  0  0  0
   24.7314   -5.5906    0.0000 C   0  0  0  0  0  0  0  0  0  0  0  0
   25.5144   -5.8448    0.0000 N   0  0  0  0  0  0  0  0  0  0  0  0
   25.5140   -4.5129    0.0000 C   0  0  0  0  0  0  0  0  0  0  0  0
   25.9982   -5.1800    0.0000 C   0  0  0  0  0  0  0  0  0  0  0  0
   26.8135   -5.0947    0.0000 C   0  0  0  0  0  0  0  0  0  0  0  0
   27.1509   -4.3433    0.0000 N   0  0  0  0  0  0  0  0  0  0  0  0
   26.6667   -3.6762    0.0000 C   0  0  0  0  0  0  0  0  0  0  0  0
   25.8451   -3.7605    0.0000 C   0  0  0  0  0  0  0  0  0  0  0  0
   27.9638   -4.2594    0.0000 C   0  0  0  0  0  0  0  0  0  0  0  0
   28.4429   -4.9215    0.0000 O   0  0  0  0  0  0  0  0  0  0  0  0
   28.2976   -3.5135    0.0000 C   0  0  0  0  0  0  0  0  0  0  0  0
   29.1107   -3.4337    0.0000 C   0  0  0  0  0  0  0  0  0  0  0  0
   29.4445   -2.6886    0.0000 C   0  0  0  0  0  0  0  0  0  0  0  0
   28.9652   -2.0256    0.0000 C   0  0  0  0  0  0  0  0  0  0  0  0
   28.1484   -2.1125    0.0000 C   0  0  0  0  0  0  0  0  0  0  0  0
   27.8184   -2.8578    0.0000 C   0  0  0  0  0  0  0  0  0  0  0  0
   27.2934   -5.7534    0.0000 C   0  0  0  0  0  0  0  0  0  0  0  0
   26.9579   -6.4998    0.0000 C   0  0  0  0  0  0  0  0  0  0  0  0
   27.4363   -7.1614    0.0000 C   0  0  0  0  0  0  0  0  0  0  0  0
   28.2501   -7.0778    0.0000 C   0  0  0  0  0  0  0  0  0  0  0  0
   28.5832   -6.3270    0.0000 C   0  0  0  0  0  0  0  0  0  0  0  0
   28.1028   -5.6685    0.0000 C   0  0  0  0  0  0  0  0  0  0  0  0
   27.1022   -7.9071    0.0000 Cl  0  0  0  0  0  0  0  0  0  0  0  0
   28.7301   -7.7392    0.0000 Cl  0  0  0  0  0  0  0  0  0  0  0  0
   22.6096   -4.3626    0.0000 O   0  0  0  0  0  0  0  0  0  0  0  0
   22.6094   -3.5454    0.0000 C   0  0  0  0  0  0  0  0  0  0  0  0
  1  2  2  0
  2  3  1  0
  3  6  2  0
  5  4  2  0
  4  1  1  0
  5  6  1  0
  6  7  1  0
  7  9  1  0
  8  5  1  0
  8  9  2  0
  8 13  1  0
  9 10  1  0
 10 11  1  0
 11 12  1  0
 12 13  1  0
 11 14  1  0
 14 15  2  0
 14 16  1  0
 16 17  2  0
 17 18  1  0
 18 19  2  0
 19 20  1  0
 20 21  2  0
 21 16  1  0
 22 23  2  0
 23 24  1  0
 24 25  2  0
 25 26  1  0
 26 27  2  0
 27 22  1  0
 10 22  1  0
 24 28  1  0
 25 29  1  0
  1 30  1  0
 30 31  1  0
M  END
>  <Classification>  (752) 
1

>  <pchembl>  (752) 
6.42

>  <InChI_steorem>  (752) 
InChI=1S/C25H20Cl2N2O2/c1-31-17-8-10-22-19(14-17)18-11-12-29(25(30)15-5-3-2-4-6-15)24(23(18)28-22)16-7-9-20(26)21(27)13-16/h2-10,13-14,24,28H,11-12H2,1H3

>  <source>  (752) 
ChEMBL28

>  <source_id>  (752) 
28

>  <optional_reference>  (752) 
10.1021/acs.jmedchem.6b00035

>  <optional_origin>  (752) 
None

>  <target>  (752) 
BCRP

$$$$

     RDKit          2D

 31 35  0  0  0  0  0  0  0  0999 V2000
    2.6276  -19.4392    0.0000 C   0  0  0  0  0  0  0  0  0  0  0  0
    2.6265  -20.2587    0.0000 C   0  0  0  0  0  0  0  0  0  0  0  0
    3.3345  -20.6677    0.0000 C   0  0  0  0  0  0  0  0  0  0  0  0
    3.3327  -19.0303    0.0000 C   0  0  0  0  0  0  0  0  0  0  0  0
    4.0414  -19.4356    0.0000 C   0  0  0  0  0  0  0  0  0  0  0  0
    4.0416  -20.2588    0.0000 C   0  0  0  0  0  0  0  0  0  0  0  0
    4.8246  -20.5130    0.0000 N   0  0  0  0  0  0  0  0  0  0  0  0
    4.8242  -19.1811    0.0000 C   0  0  0  0  0  0  0  0  0  0  0  0
    5.3084  -19.8482    0.0000 C   0  0  0  0  0  0  0  0  0  0  0  0
    6.1237  -19.7629    0.0000 C   0  0  0  0  0  0  0  0  0  0  0  0
    6.4611  -19.0115    0.0000 N   0  0  0  0  0  0  0  0  0  0  0  0
    5.9769  -18.3444    0.0000 C   0  0  0  0  0  0  0  0  0  0  0  0
    5.1553  -18.4287    0.0000 C   0  0  0  0  0  0  0  0  0  0  0  0
    7.2740  -18.9276    0.0000 C   0  0  0  0  0  0  0  0  0  0  0  0
    7.7531  -19.5896    0.0000 O   0  0  0  0  0  0  0  0  0  0  0  0
    7.6078  -18.1817    0.0000 C   0  0  0  0  0  0  0  0  0  0  0  0
    8.4209  -18.1018    0.0000 C   0  0  0  0  0  0  0  0  0  0  0  0
    8.7547  -17.3568    0.0000 C   0  0  0  0  0  0  0  0  0  0  0  0
    8.2754  -16.6938    0.0000 C   0  0  0  0  0  0  0  0  0  0  0  0
    7.4586  -16.7807    0.0000 C   0  0  0  0  0  0  0  0  0  0  0  0
    7.1286  -17.5260    0.0000 C   0  0  0  0  0  0  0  0  0  0  0  0
    6.6036  -20.4215    0.0000 C   0  0  0  0  0  0  0  0  0  0  0  0
    6.2681  -21.1679    0.0000 C   0  0  0  0  0  0  0  0  0  0  0  0
    6.7465  -21.8295    0.0000 C   0  0  0  0  0  0  0  0  0  0  0  0
    7.5603  -21.7460    0.0000 C   0  0  0  0  0  0  0  0  0  0  0  0
    7.8934  -20.9951    0.0000 C   0  0  0  0  0  0  0  0  0  0  0  0
    7.4130  -20.3367    0.0000 C   0  0  0  0  0  0  0  0  0  0  0  0
    8.6082  -15.9474    0.0000 O   0  0  0  0  0  0  0  0  0  0  0  0
    9.4210  -15.8624    0.0000 C   0  0  0  0  0  0  0  0  0  0  0  0
    6.4124  -22.5753    0.0000 F   0  0  0  0  0  0  0  0  0  0  0  0
    8.0403  -22.4074    0.0000 F   0  0  0  0  0  0  0  0  0  0  0  0
  1  2  2  0
  2  3  1  0
  3  6  2  0
  5  4  2  0
  4  1  1  0
  5  6  1  0
  6  7  1  0
  7  9  1  0
  8  5  1  0
  8  9  2  0
  8 13  1  0
  9 10  1  0
 10 11  1  0
 11 12  1  0
 12 13  1  0
 11 14  1  0
 14 15  2  0
 14 16  1  0
 16 17  2  0
 17 18  1  0
 18 19  2  0
 19 20  1  0
 20 21  2  0
 21 16  1  0
 22 23  2  0
 23 24  1  0
 24 25  2  0
 25 26  1  0
 26 27  2  0
 27 22  1  0
 10 22  1  0
 19 28  1  0
 28 29  1  0
 24 30  1  0
 25 31  1  0
M  END
>  <Classification>  (753) 
1

>  <pchembl>  (753) 
6.09

>  <InChI_steorem>  (753) 
InChI=1S/C25H20F2N2O2/c1-31-17-9-6-15(7-10-17)25(30)29-13-12-19-18-4-2-3-5-22(18)28-23(19)24(29)16-8-11-20(26)21(27)14-16/h2-11,14,24,28H,12-13H2,1H3

>  <source>  (753) 
ChEMBL28

>  <source_id>  (753) 
28

>  <optional_reference>  (753) 
10.1021/acs.jmedchem.6b00035

>  <optional_origin>  (753) 
None

>  <target>  (753) 
BCRP

$$$$

     RDKit          2D

 32 34  0  0  0  0  0  0  0  0999 V2000
    2.1090  -27.9661    0.0000 C   0  0  0  0  0  0  0  0  0  0  0  0
    2.1131  -28.7915    0.0000 C   0  0  0  0  0  0  0  0  0  0  0  0
    2.8189  -27.5575    0.0000 C   0  0  0  0  0  0  0  0  0  0  0  0
    3.5247  -27.9661    0.0000 C   0  0  0  0  0  0  0  0  0  0  0  0
    3.5247  -28.7915    0.0000 C   0  0  0  0  0  0  0  0  0  0  0  0
    2.8189  -29.2001    0.0000 C   0  0  0  0  0  0  0  0  0  0  0  0
    4.2326  -29.1997    0.0000 N   0  0  0  0  0  0  0  0  0  0  0  0
    4.9401  -28.7907    0.0000 C   0  0  0  0  0  0  0  0  0  0  0  0
    5.6480  -29.1989    0.0000 C   0  0  0  0  0  0  0  0  0  0  0  0
    4.9396  -27.9735    0.0000 O   0  0  0  0  0  0  0  0  0  0  0  0
    6.3555  -28.7899    0.0000 O   0  0  0  0  0  0  0  0  0  0  0  0
    7.0634  -29.1980    0.0000 C   0  0  0  0  0  0  0  0  0  0  0  0
    7.0594  -30.0143    0.0000 C   0  0  0  0  0  0  0  0  0  0  0  0
    7.7665  -30.4224    0.0000 C   0  0  0  0  0  0  0  0  0  0  0  0
    8.4750  -30.0133    0.0000 C   0  0  0  0  0  0  0  0  0  0  0  0
    8.4719  -29.1919    0.0000 C   0  0  0  0  0  0  0  0  0  0  0  0
    7.7642  -28.7875    0.0000 C   0  0  0  0  0  0  0  0  0  0  0  0
    9.1835  -30.4205    0.0000 C   0  0  0  0  0  0  0  0  0  0  0  0
    9.1851  -31.2377    0.0000 O   0  0  0  0  0  0  0  0  0  0  0  0
    9.8904  -30.0106    0.0000 C   0  0  0  0  0  0  0  0  0  0  0  0
   10.5989  -30.4178    0.0000 C   0  0  0  0  0  0  0  0  0  0  0  0
   11.3058  -30.0078    0.0000 C   0  0  0  0  0  0  0  0  0  0  0  0
   12.0107  -30.4177    0.0000 C   0  0  0  0  0  0  0  0  0  0  0  0
   12.7171  -30.0084    0.0000 C   0  0  0  0  0  0  0  0  0  0  0  0
   12.7160  -29.1904    0.0000 C   0  0  0  0  0  0  0  0  0  0  0  0
   12.0025  -28.7833    0.0000 C   0  0  0  0  0  0  0  0  0  0  0  0
   11.2990  -29.1949    0.0000 C   0  0  0  0  0  0  0  0  0  0  0  0
    1.4006  -27.5588    0.0000 O   0  0  0  0  0  0  0  0  0  0  0  0
    1.4062  -29.2015    0.0000 O   0  0  0  0  0  0  0  0  0  0  0  0
    1.3991  -26.7416    0.0000 C   0  0  0  0  0  0  0  0  0  0  0  0
    0.6977  -28.7942    0.0000 C   0  0  0  0  0  0  0  0  0  0  0  0
   13.4224  -28.7795    0.0000 Cl  0  0  0  0  0  0  0  0  0  0  0  0
  2  1  2  0
  3  1  1  0
  4  3  2  0
  5  4  1  0
  6  2  1  0
  6  5  2  0
  5  7  1  0
  7  8  1  0
  8  9  1  0
  8 10  2  0
  9 11  1  0
 11 12  1  0
 12 13  2  0
 13 14  1  0
 14 15  2  0
 15 16  1  0
 16 17  2  0
 17 12  1  0
 15 18  1  0
 18 19  2  0
 18 20  1  0
 20 21  2  3
 21 22  1  0
 22 23  2  0
 23 24  1  0
 24 25  2  0
 25 26  1  0
 26 27  2  0
 27 22  1  0
  1 28  1  0
  2 29  1  0
 28 30  1  0
 29 31  1  0
 25 32  1  0
M  END
>  <Classification>  (754) 
1

>  <pchembl>  (754) 
5.16

>  <InChI_steorem>  (754) 
InChI=1S/C25H22ClNO5/c1-30-23-14-10-20(15-24(23)31-2)27-25(29)16-32-21-11-6-18(7-12-21)22(28)13-5-17-3-8-19(26)9-4-17/h3-15H,16H2,1-2H3,(H,27,29)

>  <source>  (754) 
ChEMBL28

>  <source_id>  (754) 
28

>  <optional_reference>  (754) 
10.1016/j.ejmech.2018.12.019

>  <optional_origin>  (754) 
None

>  <target>  (754) 
BCRP

$$$$

     RDKit          2D

 32 34  0  0  0  0  0  0  0  0999 V2000
    3.7667   -0.4542    0.0000 C   0  0  0  0  0  0  0  0  0  0  0  0
    3.7667   -1.1667    0.0000 C   0  0  0  0  0  0  0  0  0  0  0  0
    2.5292   -0.4542    0.0000 C   0  0  0  0  0  0  0  0  0  0  0  0
    2.5292   -1.1667    0.0000 C   0  0  0  0  0  0  0  0  0  0  0  0
    3.1500   -0.0958    0.0000 C   0  0  0  0  0  0  0  0  0  0  0  0
    3.1500   -1.5292    0.0000 C   0  0  0  0  0  0  0  0  0  0  0  0
    4.3792   -1.5292    0.0000 C   0  0  0  0  0  0  0  0  0  0  0  0
    4.3792   -0.0958    0.0000 C   0  0  0  0  0  0  0  0  0  0  0  0
    1.9167   -0.0958    0.0000 C   0  0  0  0  0  0  0  0  0  0  0  0
    1.9167   -1.5292    0.0000 C   0  0  0  0  0  0  0  0  0  0  0  0
    3.1500    0.6083    0.0000 O   0  0  0  0  0  0  0  0  0  0  0  0
    3.1500   -2.2375    0.0000 O   0  0  0  0  0  0  0  0  0  0  0  0
    4.9917   -0.4542    0.0000 C   0  0  0  0  0  0  0  0  0  0  0  0
    4.9917   -1.1667    0.0000 C   0  0  0  0  0  0  0  0  0  0  0  0
    1.3042   -0.4542    0.0000 C   0  0  0  0  0  0  0  0  0  0  0  0
    1.3042   -1.1667    0.0000 C   0  0  0  0  0  0  0  0  0  0  0  0
    4.3792    0.6083    0.0000 N   0  0  0  0  0  0  0  0  0  0  0  0
    4.3792   -2.2375    0.0000 N   0  0  0  0  0  0  0  0  0  0  0  0
    1.9167    0.6083    0.0000 O   0  0  0  0  0  0  0  0  0  0  0  0
    1.9167   -2.2375    0.0000 O   0  0  0  0  0  0  0  0  0  0  0  0
    6.2292    0.9625    0.0000 N   0  0  0  0  0  0  0  0  0  0  0  0
    6.2292   -2.5917    0.0000 N   0  0  0  0  0  0  0  0  0  0  0  0
    8.0750   -2.2375    0.0000 O   0  0  0  0  0  0  0  0  0  0  0  0
    8.0750    0.6083    0.0000 O   0  0  0  0  0  0  0  0  0  0  0  0
    4.9917    0.9625    0.0000 C   0  0  0  0  0  0  0  0  0  0  0  0
    4.9917   -2.5917    0.0000 C   0  0  0  0  0  0  0  0  0  0  0  0
    5.6125   -2.2375    0.0000 C   0  0  0  0  0  0  0  0  0  0  0  0
    5.6125    0.6083    0.0000 C   0  0  0  0  0  0  0  0  0  0  0  0
    6.8417   -2.2375    0.0000 C   0  0  0  0  0  0  0  0  0  0  0  0
    6.8417    0.6083    0.0000 C   0  0  0  0  0  0  0  0  0  0  0  0
    7.4625   -2.5917    0.0000 C   0  0  0  0  0  0  0  0  0  0  0  0
    7.4625    0.9625    0.0000 C   0  0  0  0  0  0  0  0  0  0  0  0
  2  1  2  0
  3  5  1  0
  4  3  2  0
  5  1  1  0
  6  2  1  0
  7  2  1  0
  8  1  1  0
  9  3  1  0
 10  4  1  0
 11  5  2  0
 12  6  2  0
 13  8  2  0
 14 13  1  0
 15  9  2  0
 16 15  1  0
 17  8  1  0
 18  7  1  0
 19  9  1  0
 20 10  1  0
 21 28  1  0
 22 27  1  0
 23 31  1  0
 24 32  1  0
 25 17  1  0
 26 18  1  0
 27 26  1  0
 28 25  1  0
 29 22  1  0
 30 21  1  0
 31 29  1  0
 32 30  1  0
  4  6  1  0
 14  7  2  0
 16 10  2  0
M  END
>  <Classification>  (755) 
1

>  <pchembl>  (755) 
6.04

>  <InChI_steorem>  (755) 
InChI=1S/C22H28N4O6/c27-11-9-23-5-7-25-13-1-2-14(26-8-6-24-10-12-28)18-17(13)21(31)19-15(29)3-4-16(30)20(19)22(18)32/h1-4,23-30H,5-12H2

>  <source>  (755) 
ChEMBL28

>  <source_id>  (755) 
28

>  <optional_reference>  (755) 
10.1021/acs.jmedchem.9b00963

>  <optional_origin>  (755) 
None

>  <target>  (755) 
BCRP

$$$$

     RDKit          2D

 32 36  0  0  0  0  0  0  0  0999 V2000
   15.2457  -16.9780    0.0000 C   0  0  0  0  0  0  0  0  0  0  0  0
   15.9554  -16.5685    0.0000 C   0  0  0  0  0  0  0  0  0  0  0  0
   15.9525  -15.7459    0.0000 C   0  0  0  0  0  0  0  0  0  0  0  0
   15.2439  -15.3406    0.0000 C   0  0  0  0  0  0  0  0  0  0  0  0
   14.5377  -16.5690    0.0000 C   0  0  0  0  0  0  0  0  0  0  0  0
   14.5344  -15.7525    0.0000 C   0  0  0  0  0  0  0  0  0  0  0  0
   13.7568  -15.5033    0.0000 C   0  0  0  0  0  0  0  0  0  0  0  0
   13.2795  -16.1658    0.0000 C   0  0  0  0  0  0  0  0  0  0  0  0
   13.7621  -16.8244    0.0000 O   0  0  0  0  0  0  0  0  0  0  0  0
   16.6587  -15.3346    0.0000 C   0  0  0  0  0  0  0  0  0  0  0  0
   17.3679  -15.7405    0.0000 N   0  0  0  0  0  0  0  0  0  0  0  0
   17.3684  -16.5549    0.0000 C   0  0  0  0  0  0  0  0  0  0  0  0
   18.0736  -16.9608    0.0000 C   0  0  0  0  0  0  0  0  0  0  0  0
   18.7822  -16.5530    0.0000 N   0  0  0  0  0  0  0  0  0  0  0  0
   18.7811  -15.7349    0.0000 C   0  0  0  0  0  0  0  0  0  0  0  0
   18.0714  -15.3245    0.0000 C   0  0  0  0  0  0  0  0  0  0  0  0
   19.4899  -16.9616    0.0000 C   0  0  0  0  0  0  0  0  0  0  0  0
   19.4899  -17.7788    0.0000 O   0  0  0  0  0  0  0  0  0  0  0  0
   20.1976  -16.5530    0.0000 C   0  0  0  0  0  0  0  0  0  0  0  0
   20.9053  -16.9616    0.0000 S   0  0  0  0  0  0  0  0  0  0  0  0
   21.6130  -16.5530    0.0000 C   0  0  0  0  0  0  0  0  0  0  0  0
   22.3579  -16.8813    0.0000 N   0  0  0  0  0  0  0  0  0  0  0  0
   22.9047  -16.2740    0.0000 N   0  0  0  0  0  0  0  0  0  0  0  0
   22.4961  -15.5662    0.0000 C   0  0  0  0  0  0  0  0  0  0  0  0
   21.6968  -15.7362    0.0000 O   0  0  0  0  0  0  0  0  0  0  0  0
   22.8258  -14.8221    0.0000 C   0  0  0  0  0  0  0  0  0  0  0  0
   23.6397  -14.7379    0.0000 C   0  0  0  0  0  0  0  0  0  0  0  0
   23.9721  -13.9921    0.0000 C   0  0  0  0  0  0  0  0  0  0  0  0
   23.4915  -13.3301    0.0000 C   0  0  0  0  0  0  0  0  0  0  0  0
   22.6749  -13.4186    0.0000 C   0  0  0  0  0  0  0  0  0  0  0  0
   22.3463  -14.1645    0.0000 C   0  0  0  0  0  0  0  0  0  0  0  0
   23.8229  -12.5831    0.0000 F   0  0  0  0  0  0  0  0  0  0  0  0
  5  1  2  0
  1  2  1  0
  2  3  2  0
  3  4  1  0
  4  6  2  0
  5  6  1  0
  6  7  1  0
  7  8  1  0
  8  9  1  0
  9  5  1  0
  3 10  1  0
 10 11  1  0
 11 12  1  0
 11 16  1  0
 12 13  1  0
 13 14  1  0
 14 15  1  0
 15 16  1  0
 14 17  1  0
 17 18  2  0
 17 19  1  0
 19 20  1  0
 20 21  1  0
 21 22  2  0
 22 23  1  0
 23 24  2  0
 24 25  1  0
 25 21  1  0
 26 27  2  0
 27 28  1  0
 28 29  2  0
 29 30  1  0
 30 31  2  0
 31 26  1  0
 24 26  1  0
 29 32  1  0
M  END
>  <Classification>  (756) 
0

>  <pchembl>  (756) 
4.84

>  <InChI_steorem>  (756) 
InChI=1S/C23H23FN4O3S/c24-19-4-2-17(3-5-19)22-25-26-23(31-22)32-15-21(29)28-10-8-27(9-11-28)14-16-1-6-20-18(13-16)7-12-30-20/h1-6,13H,7-12,14-15H2

>  <source>  (756) 
ChEMBL28

>  <source_id>  (756) 
28

>  <optional_reference>  (756) 
10.1021/acs.jmedchem.8b01821

>  <optional_origin>  (756) 
None

>  <target>  (756) 
BCRP

$$$$

     RDKit          2D

 32 36  0  0  0  0  0  0  0  0999 V2000
    8.4484  -17.9452    0.0000 C   0  0  0  0  0  0  0  0  0  0  0  0
    8.4484  -18.7624    0.0000 C   0  0  0  0  0  0  0  0  0  0  0  0
    9.1537  -19.1668    0.0000 O   0  0  0  0  0  0  0  0  0  0  0  0
    9.1537  -17.5325    0.0000 C   0  0  0  0  0  0  0  0  0  0  0  0
    9.8590  -17.9452    0.0000 C   0  0  0  0  0  0  0  0  0  0  0  0
    9.8574  -18.7606    0.0000 C   0  0  0  0  0  0  0  0  0  0  0  0
   10.5616  -19.1679    0.0000 C   0  0  0  0  0  0  0  0  0  0  0  0
   11.2679  -18.7609    0.0000 C   0  0  0  0  0  0  0  0  0  0  0  0
   11.2656  -17.9424    0.0000 C   0  0  0  0  0  0  0  0  0  0  0  0
   10.5608  -17.5388    0.0000 C   0  0  0  0  0  0  0  0  0  0  0  0
    9.1537  -16.7153    0.0000 O   0  0  0  0  0  0  0  0  0  0  0  0
    7.7395  -17.5387    0.0000 O   0  0  0  0  0  0  0  0  0  0  0  0
    7.0330  -17.9493    0.0000 C   0  0  0  0  0  0  0  0  0  0  0  0
    6.3241  -17.5428    0.0000 C   0  0  0  0  0  0  0  0  0  0  0  0
    5.6176  -17.9535    0.0000 N   0  0  0  0  0  0  0  0  0  0  0  0
    6.3217  -16.7256    0.0000 O   0  0  0  0  0  0  0  0  0  0  0  0
    4.9087  -17.5470    0.0000 C   0  0  0  0  0  0  0  0  0  0  0  0
    4.9105  -16.7308    0.0000 C   0  0  0  0  0  0  0  0  0  0  0  0
    4.2024  -16.3244    0.0000 C   0  0  0  0  0  0  0  0  0  0  0  0
    4.2086  -17.9592    0.0000 C   0  0  0  0  0  0  0  0  0  0  0  0
    3.5000  -17.5565    0.0000 C   0  0  0  0  0  0  0  0  0  0  0  0
    3.4913  -16.7343    0.0000 C   0  0  0  0  0  0  0  0  0  0  0  0
    2.7067  -16.4884    0.0000 C   0  0  0  0  0  0  0  0  0  0  0  0
    2.2303  -17.1587    0.0000 O   0  0  0  0  0  0  0  0  0  0  0  0
    2.7207  -17.8188    0.0000 C   0  0  0  0  0  0  0  0  0  0  0  0
    2.4460  -15.7139    0.0000 O   0  0  0  0  0  0  0  0  0  0  0  0
    7.7423  -19.1725    0.0000 C   0  0  0  0  0  0  0  0  0  0  0  0
    7.0337  -18.7632    0.0000 C   0  0  0  0  0  0  0  0  0  0  0  0
    6.3271  -19.1721    0.0000 C   0  0  0  0  0  0  0  0  0  0  0  0
    6.3278  -19.9902    0.0000 C   0  0  0  0  0  0  0  0  0  0  0  0
    7.0411  -20.3976    0.0000 C   0  0  0  0  0  0  0  0  0  0  0  0
    7.7448  -19.9863    0.0000 C   0  0  0  0  0  0  0  0  0  0  0  0
  1  2  2  0
  1  4  1  0
  2  3  1  0
  3  6  1  0
  5  4  1  0
  5  6  2  0
  6  7  1  0
  7  8  2  0
  8  9  1  0
  9 10  2  0
 10  5  1  0
  4 11  2  0
  1 12  1  0
 12 13  1  0
 13 14  1  0
 14 15  1  0
 14 16  2  0
 15 17  1  0
 17 18  2  0
 18 19  1  0
 19 22  2  0
 21 20  2  0
 20 17  1  0
 21 22  1  0
 22 23  1  0
 23 24  1  0
 24 25  1  0
 25 21  1  0
 23 26  2  0
 27 28  2  0
 28 29  1  0
 29 30  2  0
 30 31  1  0
 31 32  2  0
 32 27  1  0
  2 27  1  0
M  END
>  <Classification>  (757) 
0

>  <pchembl>  (757) 
4.88

>  <InChI_steorem>  (757) 
InChI=1S/C25H17NO6/c27-21(26-17-10-11-18-16(12-17)13-31-25(18)29)14-30-24-22(28)19-8-4-5-9-20(19)32-23(24)15-6-2-1-3-7-15/h1-12H,13-14H2,(H,26,27)

>  <source>  (757) 
ChEMBL28

>  <source_id>  (757) 
28

>  <optional_reference>  (757) 
10.1016/j.ejmech.2018.12.019

>  <optional_origin>  (757) 
None

>  <target>  (757) 
BCRP

$$$$

     RDKit          2D

 33 35  0  0  0  0  0  0  0  0999 V2000
   17.1074  -28.8081    0.0000 C   0  0  0  0  0  0  0  0  0  0  0  0
   17.1115  -29.6335    0.0000 C   0  0  0  0  0  0  0  0  0  0  0  0
   17.8172  -28.3995    0.0000 C   0  0  0  0  0  0  0  0  0  0  0  0
   18.5230  -28.8081    0.0000 C   0  0  0  0  0  0  0  0  0  0  0  0
   18.5230  -29.6335    0.0000 C   0  0  0  0  0  0  0  0  0  0  0  0
   17.8172  -30.0421    0.0000 C   0  0  0  0  0  0  0  0  0  0  0  0
   19.2310  -30.0417    0.0000 N   0  0  0  0  0  0  0  0  0  0  0  0
   19.9384  -29.6327    0.0000 C   0  0  0  0  0  0  0  0  0  0  0  0
   20.6464  -30.0408    0.0000 C   0  0  0  0  0  0  0  0  0  0  0  0
   19.9379  -28.8155    0.0000 O   0  0  0  0  0  0  0  0  0  0  0  0
   21.3538  -29.6318    0.0000 O   0  0  0  0  0  0  0  0  0  0  0  0
   22.0618  -30.0400    0.0000 C   0  0  0  0  0  0  0  0  0  0  0  0
   22.0578  -30.8562    0.0000 C   0  0  0  0  0  0  0  0  0  0  0  0
   22.7649  -31.2643    0.0000 C   0  0  0  0  0  0  0  0  0  0  0  0
   23.4733  -30.8553    0.0000 C   0  0  0  0  0  0  0  0  0  0  0  0
   23.4702  -30.0338    0.0000 C   0  0  0  0  0  0  0  0  0  0  0  0
   22.7625  -29.6294    0.0000 C   0  0  0  0  0  0  0  0  0  0  0  0
   24.1818  -31.2625    0.0000 C   0  0  0  0  0  0  0  0  0  0  0  0
   24.1834  -32.0797    0.0000 O   0  0  0  0  0  0  0  0  0  0  0  0
   24.8888  -30.8525    0.0000 C   0  0  0  0  0  0  0  0  0  0  0  0
   25.5972  -31.2598    0.0000 C   0  0  0  0  0  0  0  0  0  0  0  0
   26.3042  -30.8498    0.0000 C   0  0  0  0  0  0  0  0  0  0  0  0
   27.0090  -31.2597    0.0000 C   0  0  0  0  0  0  0  0  0  0  0  0
   27.7155  -30.8504    0.0000 C   0  0  0  0  0  0  0  0  0  0  0  0
   27.7143  -30.0323    0.0000 C   0  0  0  0  0  0  0  0  0  0  0  0
   27.0009  -29.6253    0.0000 C   0  0  0  0  0  0  0  0  0  0  0  0
   26.2974  -30.0369    0.0000 C   0  0  0  0  0  0  0  0  0  0  0  0
   16.3989  -28.4008    0.0000 O   0  0  0  0  0  0  0  0  0  0  0  0
   16.4046  -30.0434    0.0000 O   0  0  0  0  0  0  0  0  0  0  0  0
   16.3974  -27.5836    0.0000 C   0  0  0  0  0  0  0  0  0  0  0  0
   15.6961  -29.6362    0.0000 C   0  0  0  0  0  0  0  0  0  0  0  0
   27.0084  -32.0769    0.0000 F   0  0  0  0  0  0  0  0  0  0  0  0
   25.5868  -29.6333    0.0000 F   0  0  0  0  0  0  0  0  0  0  0  0
  2  1  2  0
  3  1  1  0
  4  3  2  0
  5  4  1  0
  6  2  1  0
  6  5  2  0
  5  7  1  0
  7  8  1  0
  8  9  1  0
  8 10  2  0
  9 11  1  0
 11 12  1  0
 12 13  2  0
 13 14  1  0
 14 15  2  0
 15 16  1  0
 16 17  2  0
 17 12  1  0
 15 18  1  0
 18 19  2  0
 18 20  1  0
 20 21  2  3
 21 22  1  0
 22 23  2  0
 23 24  1  0
 24 25  2  0
 25 26  1  0
 26 27  2  0
 27 22  1  0
  1 28  1  0
  2 29  1  0
 28 30  1  0
 29 31  1  0
 23 32  1  0
 27 33  1  0
M  END
>  <Classification>  (758) 
1

>  <pchembl>  (758) 
5.21

>  <InChI_steorem>  (758) 
InChI=1S/C25H21F2NO5/c1-31-23-13-8-17(14-24(23)32-2)28-25(30)15-33-18-9-6-16(7-10-18)22(29)12-11-19-20(26)4-3-5-21(19)27/h3-14H,15H2,1-2H3,(H,28,30)

>  <source>  (758) 
ChEMBL28

>  <source_id>  (758) 
28

>  <optional_reference>  (758) 
10.1016/j.ejmech.2018.12.019

>  <optional_origin>  (758) 
None

>  <target>  (758) 
BCRP

$$$$

     RDKit          2D

 33 35  0  0  0  0  0  0  0  0999 V2000
   18.3455  -19.1792    0.0000 C   0  0  0  0  0  0  0  0  0  0  0  0
   18.3497  -20.0047    0.0000 C   0  0  0  0  0  0  0  0  0  0  0  0
   19.0554  -18.7706    0.0000 C   0  0  0  0  0  0  0  0  0  0  0  0
   19.7612  -19.1792    0.0000 C   0  0  0  0  0  0  0  0  0  0  0  0
   19.7612  -20.0047    0.0000 C   0  0  0  0  0  0  0  0  0  0  0  0
   19.0554  -20.4133    0.0000 C   0  0  0  0  0  0  0  0  0  0  0  0
   20.4691  -20.4128    0.0000 N   0  0  0  0  0  0  0  0  0  0  0  0
   21.1766  -20.0038    0.0000 C   0  0  0  0  0  0  0  0  0  0  0  0
   21.8845  -20.4120    0.0000 C   0  0  0  0  0  0  0  0  0  0  0  0
   21.1761  -19.1866    0.0000 O   0  0  0  0  0  0  0  0  0  0  0  0
   22.5920  -20.0030    0.0000 O   0  0  0  0  0  0  0  0  0  0  0  0
   23.3000  -20.4112    0.0000 C   0  0  0  0  0  0  0  0  0  0  0  0
   23.2959  -21.2274    0.0000 C   0  0  0  0  0  0  0  0  0  0  0  0
   24.0031  -21.6355    0.0000 C   0  0  0  0  0  0  0  0  0  0  0  0
   24.7115  -21.2264    0.0000 C   0  0  0  0  0  0  0  0  0  0  0  0
   24.7084  -20.4050    0.0000 C   0  0  0  0  0  0  0  0  0  0  0  0
   24.0007  -20.0006    0.0000 C   0  0  0  0  0  0  0  0  0  0  0  0
   25.4200  -21.6337    0.0000 C   0  0  0  0  0  0  0  0  0  0  0  0
   25.4216  -22.4508    0.0000 O   0  0  0  0  0  0  0  0  0  0  0  0
   26.1269  -21.2237    0.0000 C   0  0  0  0  0  0  0  0  0  0  0  0
   26.8354  -21.6309    0.0000 C   0  0  0  0  0  0  0  0  0  0  0  0
   27.5423  -21.2210    0.0000 C   0  0  0  0  0  0  0  0  0  0  0  0
   28.2472  -21.6308    0.0000 C   0  0  0  0  0  0  0  0  0  0  0  0
   28.9537  -21.2216    0.0000 C   0  0  0  0  0  0  0  0  0  0  0  0
   28.9525  -20.4035    0.0000 C   0  0  0  0  0  0  0  0  0  0  0  0
   28.2390  -19.9964    0.0000 C   0  0  0  0  0  0  0  0  0  0  0  0
   27.5355  -20.4081    0.0000 C   0  0  0  0  0  0  0  0  0  0  0  0
   17.6371  -18.7719    0.0000 O   0  0  0  0  0  0  0  0  0  0  0  0
   17.6427  -20.4146    0.0000 O   0  0  0  0  0  0  0  0  0  0  0  0
   17.6356  -17.9547    0.0000 C   0  0  0  0  0  0  0  0  0  0  0  0
   16.9342  -20.0074    0.0000 C   0  0  0  0  0  0  0  0  0  0  0  0
   29.6620  -21.6291    0.0000 O   0  0  0  0  0  0  0  0  0  0  0  0
   29.6631  -22.4463    0.0000 C   0  0  0  0  0  0  0  0  0  0  0  0
  2  1  2  0
  3  1  1  0
  4  3  2  0
  5  4  1  0
  6  2  1  0
  6  5  2  0
  5  7  1  0
  7  8  1  0
  8  9  1  0
  8 10  2  0
  9 11  1  0
 11 12  1  0
 12 13  2  0
 13 14  1  0
 14 15  2  0
 15 16  1  0
 16 17  2  0
 17 12  1  0
 15 18  1  0
 18 19  2  0
 18 20  1  0
 20 21  2  3
 21 22  1  0
 22 23  2  0
 23 24  1  0
 24 25  2  0
 25 26  1  0
 26 27  2  0
 27 22  1  0
  1 28  1  0
  2 29  1  0
 28 30  1  0
 29 31  1  0
 24 32  1  0
 32 33  1  0
M  END
>  <Classification>  (759) 
1

>  <pchembl>  (759) 
5.45

>  <InChI_steorem>  (759) 
InChI=1S/C26H25NO6/c1-30-22-6-4-5-18(15-22)7-13-23(28)19-8-11-21(12-9-19)33-17-26(29)27-20-10-14-24(31-2)25(16-20)32-3/h4-16H,17H2,1-3H3,(H,27,29)

>  <source>  (759) 
ChEMBL28

>  <source_id>  (759) 
28

>  <optional_reference>  (759) 
10.1016/j.ejmech.2018.12.019

>  <optional_origin>  (759) 
None

>  <target>  (759) 
BCRP

$$$$

     RDKit          2D

 33 36  0  0  0  0  0  0  0  0999 V2000
   17.1404  -14.4453    0.0000 C   0  0  0  0  0  0  0  0  0  0  0  0
   17.1445  -15.2707    0.0000 C   0  0  0  0  0  0  0  0  0  0  0  0
   17.8503  -14.0367    0.0000 C   0  0  0  0  0  0  0  0  0  0  0  0
   18.5560  -14.4453    0.0000 C   0  0  0  0  0  0  0  0  0  0  0  0
   18.5560  -15.2707    0.0000 C   0  0  0  0  0  0  0  0  0  0  0  0
   17.8503  -15.6793    0.0000 C   0  0  0  0  0  0  0  0  0  0  0  0
   16.3521  -14.1977    0.0000 C   0  0  0  0  0  0  0  0  0  0  0  0
   15.8692  -14.8663    0.0000 O   0  0  0  0  0  0  0  0  0  0  0  0
   16.3645  -15.5225    0.0000 C   0  0  0  0  0  0  0  0  0  0  0  0
   16.1044  -13.4176    0.0000 O   0  0  0  0  0  0  0  0  0  0  0  0
   19.2640  -15.6789    0.0000 N   0  0  0  0  0  0  0  0  0  0  0  0
   19.9714  -15.2699    0.0000 C   0  0  0  0  0  0  0  0  0  0  0  0
   20.6794  -15.6781    0.0000 C   0  0  0  0  0  0  0  0  0  0  0  0
   19.9709  -14.4527    0.0000 O   0  0  0  0  0  0  0  0  0  0  0  0
   21.3869  -15.2691    0.0000 O   0  0  0  0  0  0  0  0  0  0  0  0
   22.0948  -15.6772    0.0000 C   0  0  0  0  0  0  0  0  0  0  0  0
   22.0908  -16.4935    0.0000 C   0  0  0  0  0  0  0  0  0  0  0  0
   22.7979  -16.9016    0.0000 C   0  0  0  0  0  0  0  0  0  0  0  0
   23.5064  -16.4925    0.0000 C   0  0  0  0  0  0  0  0  0  0  0  0
   23.5032  -15.6711    0.0000 C   0  0  0  0  0  0  0  0  0  0  0  0
   22.7955  -15.2667    0.0000 C   0  0  0  0  0  0  0  0  0  0  0  0
   24.2148  -16.8997    0.0000 C   0  0  0  0  0  0  0  0  0  0  0  0
   24.2164  -17.7169    0.0000 O   0  0  0  0  0  0  0  0  0  0  0  0
   24.9218  -16.4898    0.0000 C   0  0  0  0  0  0  0  0  0  0  0  0
   25.6303  -16.8970    0.0000 C   0  0  0  0  0  0  0  0  0  0  0  0
   26.3372  -16.4870    0.0000 C   0  0  0  0  0  0  0  0  0  0  0  0
   27.0421  -16.8969    0.0000 C   0  0  0  0  0  0  0  0  0  0  0  0
   27.7485  -16.4876    0.0000 C   0  0  0  0  0  0  0  0  0  0  0  0
   27.7474  -15.6696    0.0000 C   0  0  0  0  0  0  0  0  0  0  0  0
   27.0339  -15.2625    0.0000 C   0  0  0  0  0  0  0  0  0  0  0  0
   26.3304  -15.6741    0.0000 C   0  0  0  0  0  0  0  0  0  0  0  0
   27.0414  -17.7141    0.0000 F   0  0  0  0  0  0  0  0  0  0  0  0
   25.6198  -15.2706    0.0000 F   0  0  0  0  0  0  0  0  0  0  0  0
  2  1  1  0
  3  1  2  0
  4  3  1  0
  5  4  2  0
  6  2  2  0
  7  1  1  0
  8  7  1  0
  9  2  1  0
 10  7  2  0
  8  9  1  0
  6  5  1  0
  5 11  1  0
 11 12  1  0
 12 13  1  0
 12 14  2  0
 13 15  1  0
 15 16  1  0
 16 17  2  0
 17 18  1  0
 18 19  2  0
 19 20  1  0
 20 21  2  0
 21 16  1  0
 19 22  1  0
 22 23  2  0
 22 24  1  0
 24 25  2  3
 25 26  1  0
 26 27  2  0
 27 28  1  0
 28 29  2  0
 29 30  1  0
 30 31  2  0
 31 26  1  0
 27 32  1  0
 31 33  1  0
M  END
>  <Classification>  (760) 
0

>  <pchembl>  (760) 
4.96

>  <InChI_steorem>  (760) 
InChI=1S/C25H17F2NO5/c26-21-2-1-3-22(27)20(21)10-11-23(29)15-4-7-18(8-5-15)32-14-24(30)28-17-6-9-19-16(12-17)13-33-25(19)31/h1-12H,13-14H2,(H,28,30)

>  <source>  (760) 
ChEMBL28

>  <source_id>  (760) 
28

>  <optional_reference>  (760) 
10.1016/j.ejmech.2018.12.019

>  <optional_origin>  (760) 
None

>  <target>  (760) 
BCRP

$$$$

     RDKit          2D

 33 36  0  0  0  0  0  0  0  0999 V2000
   17.9411   -4.1685    0.0000 C   0  0  0  0  0  0  0  0  0  0  0  0
   17.9452   -4.9939    0.0000 C   0  0  0  0  0  0  0  0  0  0  0  0
   18.6509   -3.7599    0.0000 C   0  0  0  0  0  0  0  0  0  0  0  0
   19.3567   -4.1685    0.0000 C   0  0  0  0  0  0  0  0  0  0  0  0
   19.3567   -4.9939    0.0000 C   0  0  0  0  0  0  0  0  0  0  0  0
   18.6509   -5.4025    0.0000 C   0  0  0  0  0  0  0  0  0  0  0  0
   17.1528   -3.9209    0.0000 O   0  0  0  0  0  0  0  0  0  0  0  0
   16.6699   -4.5895    0.0000 C   0  0  0  0  0  0  0  0  0  0  0  0
   17.1651   -5.2457    0.0000 O   0  0  0  0  0  0  0  0  0  0  0  0
   20.0647   -5.4021    0.0000 C   0  0  0  0  0  0  0  0  0  0  0  0
   20.7721   -4.9931    0.0000 N   0  0  0  0  0  0  0  0  0  0  0  0
   21.4801   -5.4013    0.0000 C   0  0  0  0  0  0  0  0  0  0  0  0
   22.1875   -4.9923    0.0000 C   0  0  0  0  0  0  0  0  0  0  0  0
   21.4806   -6.2185    0.0000 O   0  0  0  0  0  0  0  0  0  0  0  0
   22.8955   -5.4004    0.0000 O   0  0  0  0  0  0  0  0  0  0  0  0
   23.6030   -4.9914    0.0000 C   0  0  0  0  0  0  0  0  0  0  0  0
   24.3094   -5.4011    0.0000 C   0  0  0  0  0  0  0  0  0  0  0  0
   25.0164   -4.9928    0.0000 C   0  0  0  0  0  0  0  0  0  0  0  0
   25.0163   -4.1747    0.0000 C   0  0  0  0  0  0  0  0  0  0  0  0
   24.3034   -3.7667    0.0000 C   0  0  0  0  0  0  0  0  0  0  0  0
   23.5994   -4.1774    0.0000 C   0  0  0  0  0  0  0  0  0  0  0  0
   25.7233   -3.7648    0.0000 C   0  0  0  0  0  0  0  0  0  0  0  0
   26.4318   -4.1720    0.0000 C   0  0  0  0  0  0  0  0  0  0  0  0
   25.7217   -2.9476    0.0000 O   0  0  0  0  0  0  0  0  0  0  0  0
   27.1387   -3.7620    0.0000 C   0  0  0  0  0  0  0  0  0  0  0  0
   27.8472   -4.1693    0.0000 C   0  0  0  0  0  0  0  0  0  0  0  0
   27.8452   -4.9868    0.0000 C   0  0  0  0  0  0  0  0  0  0  0  0
   28.5529   -5.3939    0.0000 C   0  0  0  0  0  0  0  0  0  0  0  0
   29.2608   -4.9839    0.0000 C   0  0  0  0  0  0  0  0  0  0  0  0
   29.2566   -4.1625    0.0000 C   0  0  0  0  0  0  0  0  0  0  0  0
   28.5484   -3.7590    0.0000 C   0  0  0  0  0  0  0  0  0  0  0  0
   29.9698   -5.3902    0.0000 O   0  0  0  0  0  0  0  0  0  0  0  0
   29.9725   -6.2074    0.0000 C   0  0  0  0  0  0  0  0  0  0  0  0
  2  1  1  0
  3  1  2  0
  4  3  1  0
  5  4  2  0
  6  2  2  0
  7  1  1  0
  8  7  1  0
  9  2  1  0
  8  9  1  0
  6  5  1  0
  5 10  1  0
 10 11  1  0
 11 12  1  0
 12 13  1  0
 12 14  2  0
 13 15  1  0
 15 16  1  0
 16 17  2  0
 17 18  1  0
 18 19  2  0
 19 20  1  0
 20 21  2  0
 21 16  1  0
 19 22  1  0
 22 23  1  0
 22 24  2  0
 23 25  2  3
 25 26  1  0
 26 27  2  0
 27 28  1  0
 28 29  2  0
 29 30  1  0
 30 31  2  0
 31 26  1  0
 29 32  1  0
 32 33  1  0
M  END
>  <Classification>  (761) 
1

>  <pchembl>  (761) 
5.0

>  <InChI_steorem>  (761) 
InChI=1S/C26H23NO6/c1-30-21-8-2-18(3-9-21)4-12-23(28)20-6-10-22(11-7-20)31-16-26(29)27-15-19-5-13-24-25(14-19)33-17-32-24/h2-14H,15-17H2,1H3,(H,27,29)

>  <source>  (761) 
ChEMBL28

>  <source_id>  (761) 
28

>  <optional_reference>  (761) 
10.1016/j.ejmech.2018.12.019

>  <optional_origin>  (761) 
None

>  <target>  (761) 
BCRP

$$$$

     RDKit          2D

 33 37  0  0  0  0  0  0  0  0999 V2000
   20.6981  -23.5582    0.0000 C   0  0  0  0  0  0  0  0  0  0  0  0
   20.6981  -24.3754    0.0000 C   0  0  0  0  0  0  0  0  0  0  0  0
   21.4033  -24.7799    0.0000 O   0  0  0  0  0  0  0  0  0  0  0  0
   21.4033  -23.1455    0.0000 C   0  0  0  0  0  0  0  0  0  0  0  0
   22.1086  -23.5582    0.0000 C   0  0  0  0  0  0  0  0  0  0  0  0
   22.1070  -24.3736    0.0000 C   0  0  0  0  0  0  0  0  0  0  0  0
   22.8112  -24.7809    0.0000 C   0  0  0  0  0  0  0  0  0  0  0  0
   23.5175  -24.3739    0.0000 C   0  0  0  0  0  0  0  0  0  0  0  0
   23.5152  -23.5554    0.0000 C   0  0  0  0  0  0  0  0  0  0  0  0
   22.8104  -23.1518    0.0000 C   0  0  0  0  0  0  0  0  0  0  0  0
   21.4033  -22.3283    0.0000 O   0  0  0  0  0  0  0  0  0  0  0  0
   19.9891  -23.1517    0.0000 O   0  0  0  0  0  0  0  0  0  0  0  0
   19.2826  -23.5624    0.0000 C   0  0  0  0  0  0  0  0  0  0  0  0
   18.5737  -23.1558    0.0000 C   0  0  0  0  0  0  0  0  0  0  0  0
   17.8672  -23.5665    0.0000 N   0  0  0  0  0  0  0  0  0  0  0  0
   18.5713  -22.3387    0.0000 O   0  0  0  0  0  0  0  0  0  0  0  0
   17.1583  -23.1600    0.0000 C   0  0  0  0  0  0  0  0  0  0  0  0
   17.1601  -22.3438    0.0000 C   0  0  0  0  0  0  0  0  0  0  0  0
   16.4521  -21.9374    0.0000 C   0  0  0  0  0  0  0  0  0  0  0  0
   16.4582  -23.5723    0.0000 C   0  0  0  0  0  0  0  0  0  0  0  0
   15.7496  -23.1695    0.0000 C   0  0  0  0  0  0  0  0  0  0  0  0
   15.7409  -22.3473    0.0000 C   0  0  0  0  0  0  0  0  0  0  0  0
   14.9563  -22.1014    0.0000 C   0  0  0  0  0  0  0  0  0  0  0  0
   14.4799  -22.7718    0.0000 O   0  0  0  0  0  0  0  0  0  0  0  0
   14.9703  -23.4318    0.0000 C   0  0  0  0  0  0  0  0  0  0  0  0
   14.6956  -21.3269    0.0000 O   0  0  0  0  0  0  0  0  0  0  0  0
   19.9919  -24.7855    0.0000 C   0  0  0  0  0  0  0  0  0  0  0  0
   19.2833  -24.3762    0.0000 C   0  0  0  0  0  0  0  0  0  0  0  0
   18.5767  -24.7852    0.0000 C   0  0  0  0  0  0  0  0  0  0  0  0
   18.5774  -25.6032    0.0000 C   0  0  0  0  0  0  0  0  0  0  0  0
   19.2907  -26.0106    0.0000 C   0  0  0  0  0  0  0  0  0  0  0  0
   19.9944  -25.5994    0.0000 C   0  0  0  0  0  0  0  0  0  0  0  0
   20.7038  -26.0050    0.0000 Cl  0  0  0  0  0  0  0  0  0  0  0  0
  1  2  2  0
  1  4  1  0
  2  3  1  0
  3  6  1  0
  5  4  1  0
  5  6  2  0
  6  7  1  0
  7  8  2  0
  8  9  1  0
  9 10  2  0
 10  5  1  0
  4 11  2  0
  1 12  1  0
 12 13  1  0
 13 14  1  0
 14 15  1  0
 14 16  2  0
 15 17  1  0
 17 18  2  0
 18 19  1  0
 19 22  2  0
 21 20  2  0
 20 17  1  0
 21 22  1  0
 22 23  1  0
 23 24  1  0
 24 25  1  0
 25 21  1  0
 23 26  2  0
 27 28  2  0
 28 29  1  0
 29 30  2  0
 30 31  1  0
 31 32  2  0
 32 27  1  0
  2 27  1  0
 32 33  1  0
M  END
>  <Classification>  (762) 
1

>  <pchembl>  (762) 
5.54

>  <InChI_steorem>  (762) 
InChI=1S/C25H16ClNO6/c26-19-7-3-1-5-17(19)23-24(22(29)18-6-2-4-8-20(18)33-23)31-13-21(28)27-15-9-10-16-14(11-15)12-32-25(16)30/h1-11H,12-13H2,(H,27,28)

>  <source>  (762) 
ChEMBL28

>  <source_id>  (762) 
28

>  <optional_reference>  (762) 
10.1016/j.ejmech.2018.12.019

>  <optional_origin>  (762) 
None

>  <target>  (762) 
BCRP

$$$$

     RDKit          2D

 33 37  0  0  0  0  0  0  0  0999 V2000
    2.1943  -11.9235    0.0000 C   0  0  0  0  0  0  0  0  0  0  0  0
    2.1931  -12.7431    0.0000 C   0  0  0  0  0  0  0  0  0  0  0  0
    2.9012  -13.1520    0.0000 C   0  0  0  0  0  0  0  0  0  0  0  0
    2.8994  -11.5147    0.0000 C   0  0  0  0  0  0  0  0  0  0  0  0
    3.6080  -11.9199    0.0000 C   0  0  0  0  0  0  0  0  0  0  0  0
    3.6083  -12.7431    0.0000 C   0  0  0  0  0  0  0  0  0  0  0  0
    4.3912  -12.9973    0.0000 N   0  0  0  0  0  0  0  0  0  0  0  0
    4.3908  -11.6654    0.0000 C   0  0  0  0  0  0  0  0  0  0  0  0
    4.8750  -12.3325    0.0000 C   0  0  0  0  0  0  0  0  0  0  0  0
    5.6903  -12.2472    0.0000 C   0  0  0  0  0  0  0  0  0  0  0  0
    6.0278  -11.4958    0.0000 N   0  0  0  0  0  0  0  0  0  0  0  0
    5.5436  -10.8287    0.0000 C   0  0  0  0  0  0  0  0  0  0  0  0
    4.7219  -10.9130    0.0000 C   0  0  0  0  0  0  0  0  0  0  0  0
    6.8406  -11.4119    0.0000 C   0  0  0  0  0  0  0  0  0  0  0  0
    7.3197  -12.0739    0.0000 O   0  0  0  0  0  0  0  0  0  0  0  0
    7.1744  -10.6660    0.0000 C   0  0  0  0  0  0  0  0  0  0  0  0
    7.9875  -10.5862    0.0000 C   0  0  0  0  0  0  0  0  0  0  0  0
    8.3213   -9.8411    0.0000 C   0  0  0  0  0  0  0  0  0  0  0  0
    7.8421   -9.1781    0.0000 C   0  0  0  0  0  0  0  0  0  0  0  0
    7.0253   -9.2650    0.0000 C   0  0  0  0  0  0  0  0  0  0  0  0
    6.6952  -10.0103    0.0000 C   0  0  0  0  0  0  0  0  0  0  0  0
    6.1702  -12.9059    0.0000 C   0  0  0  0  0  0  0  0  0  0  0  0
    5.8348  -13.6522    0.0000 C   0  0  0  0  0  0  0  0  0  0  0  0
    6.3131  -14.3139    0.0000 C   0  0  0  0  0  0  0  0  0  0  0  0
    7.1269  -14.2303    0.0000 C   0  0  0  0  0  0  0  0  0  0  0  0
    7.4600  -13.4795    0.0000 C   0  0  0  0  0  0  0  0  0  0  0  0
    6.9796  -12.8210    0.0000 C   0  0  0  0  0  0  0  0  0  0  0  0
    8.1749   -8.4317    0.0000 O   0  0  0  0  0  0  0  0  0  0  0  0
    8.9876   -8.3467    0.0000 C   0  0  0  0  0  0  0  0  0  0  0  0
    7.6069  -14.8917    0.0000 C   0  0  0  0  0  0  0  0  0  0  0  0
    7.2741  -15.6380    0.0000 F   0  0  0  0  0  0  0  0  0  0  0  0
    8.4197  -14.8067    0.0000 F   0  0  0  0  0  0  0  0  0  0  0  0
    8.0110  -15.5968    0.0000 F   0  0  0  0  0  0  0  0  0  0  0  0
  1  2  2  0
  2  3  1  0
  3  6  2  0
  5  4  2  0
  4  1  1  0
  5  6  1  0
  6  7  1  0
  7  9  1  0
  8  5  1  0
  8  9  2  0
  8 13  1  0
  9 10  1  0
 10 11  1  0
 11 12  1  0
 12 13  1  0
 11 14  1  0
 14 15  2  0
 14 16  1  0
 16 17  2  0
 17 18  1  0
 18 19  2  0
 19 20  1  0
 20 21  2  0
 21 16  1  0
 22 23  2  0
 23 24  1  0
 24 25  2  0
 25 26  1  0
 26 27  2  0
 27 22  1  0
 10 22  1  0
 19 28  1  0
 28 29  1  0
 25 30  1  0
 30 31  1  0
 30 32  1  0
 30 33  1  0
M  END
>  <Classification>  (763) 
1

>  <pchembl>  (763) 
5.91

>  <InChI_steorem>  (763) 
InChI=1S/C26H21F3N2O2/c1-33-19-12-8-17(9-13-19)25(32)31-15-14-21-20-4-2-3-5-22(20)30-23(21)24(31)16-6-10-18(11-7-16)26(27,28)29/h2-13,24,30H,14-15H2,1H3

>  <source>  (763) 
ChEMBL28

>  <source_id>  (763) 
28

>  <optional_reference>  (763) 
10.1021/acs.jmedchem.6b00035

>  <optional_origin>  (763) 
None

>  <target>  (763) 
BCRP

$$$$

     RDKit          2D

 33 37  0  0  0  0  0  0  0  0999 V2000
   23.8746  -19.7322    0.0000 C   0  0  0  0  0  0  0  0  0  0  0  0
   23.8735  -20.5518    0.0000 C   0  0  0  0  0  0  0  0  0  0  0  0
   24.5815  -20.9607    0.0000 C   0  0  0  0  0  0  0  0  0  0  0  0
   24.5797  -19.3234    0.0000 C   0  0  0  0  0  0  0  0  0  0  0  0
   25.2883  -19.7286    0.0000 C   0  0  0  0  0  0  0  0  0  0  0  0
   25.2886  -20.5518    0.0000 C   0  0  0  0  0  0  0  0  0  0  0  0
   26.0716  -20.8060    0.0000 N   0  0  0  0  0  0  0  0  0  0  0  0
   26.0711  -19.4741    0.0000 C   0  0  0  0  0  0  0  0  0  0  0  0
   26.5553  -20.1412    0.0000 C   0  0  0  0  0  0  0  0  0  0  0  0
   27.3706  -20.0559    0.0000 C   0  0  0  0  0  0  0  0  0  0  0  0
   27.7081  -19.3045    0.0000 N   0  0  0  0  0  0  0  0  0  0  0  0
   27.2239  -18.6374    0.0000 C   0  0  0  0  0  0  0  0  0  0  0  0
   26.4023  -18.7217    0.0000 C   0  0  0  0  0  0  0  0  0  0  0  0
   28.5210  -19.2206    0.0000 C   0  0  0  0  0  0  0  0  0  0  0  0
   29.0001  -19.8827    0.0000 O   0  0  0  0  0  0  0  0  0  0  0  0
   28.8548  -18.4747    0.0000 C   0  0  0  0  0  0  0  0  0  0  0  0
   29.6679  -18.3949    0.0000 C   0  0  0  0  0  0  0  0  0  0  0  0
   30.0017  -17.6498    0.0000 C   0  0  0  0  0  0  0  0  0  0  0  0
   29.5224  -16.9868    0.0000 C   0  0  0  0  0  0  0  0  0  0  0  0
   28.7056  -17.0737    0.0000 C   0  0  0  0  0  0  0  0  0  0  0  0
   28.3755  -17.8190    0.0000 C   0  0  0  0  0  0  0  0  0  0  0  0
   27.8506  -20.7146    0.0000 C   0  0  0  0  0  0  0  0  0  0  0  0
   27.5151  -21.4610    0.0000 C   0  0  0  0  0  0  0  0  0  0  0  0
   27.9935  -22.1226    0.0000 C   0  0  0  0  0  0  0  0  0  0  0  0
   28.8073  -22.0390    0.0000 C   0  0  0  0  0  0  0  0  0  0  0  0
   29.1404  -21.2882    0.0000 C   0  0  0  0  0  0  0  0  0  0  0  0
   28.6600  -20.6297    0.0000 C   0  0  0  0  0  0  0  0  0  0  0  0
   29.8552  -16.2404    0.0000 O   0  0  0  0  0  0  0  0  0  0  0  0
   30.6680  -16.1555    0.0000 C   0  0  0  0  0  0  0  0  0  0  0  0
   30.8146  -17.5663    0.0000 O   0  0  0  0  0  0  0  0  0  0  0  0
   31.2933  -18.2285    0.0000 C   0  0  0  0  0  0  0  0  0  0  0  0
   27.6593  -22.8683    0.0000 Cl  0  0  0  0  0  0  0  0  0  0  0  0
   29.2872  -22.7004    0.0000 Cl  0  0  0  0  0  0  0  0  0  0  0  0
  1  2  2  0
  2  3  1  0
  3  6  2  0
  5  4  2  0
  4  1  1  0
  5  6  1  0
  6  7  1  0
  7  9  1  0
  8  5  1  0
  8  9  2  0
  8 13  1  0
  9 10  1  0
 10 11  1  0
 11 12  1  0
 12 13  1  0
 11 14  1  0
 14 15  2  0
 14 16  1  0
 16 17  2  0
 17 18  1  0
 18 19  2  0
 19 20  1  0
 20 21  2  0
 21 16  1  0
 22 23  2  0
 23 24  1  0
 24 25  2  0
 25 26  1  0
 26 27  2  0
 27 22  1  0
 10 22  1  0
 19 28  1  0
 28 29  1  0
 18 30  1  0
 30 31  1  0
 24 32  1  0
 25 33  1  0
M  END
>  <Classification>  (764) 
1

>  <pchembl>  (764) 
6.16

>  <InChI_steorem>  (764) 
InChI=1S/C26H22Cl2N2O3/c1-32-22-10-8-16(14-23(22)33-2)26(31)30-12-11-18-17-5-3-4-6-21(17)29-24(18)25(30)15-7-9-19(27)20(28)13-15/h3-10,13-14,25,29H,11-12H2,1-2H3

>  <source>  (764) 
ChEMBL28

>  <source_id>  (764) 
28

>  <optional_reference>  (764) 
10.1021/acs.jmedchem.6b00035

>  <optional_origin>  (764) 
None

>  <target>  (764) 
BCRP

$$$$

     RDKit          2D

 33 37  0  0  0  0  0  0  0  0999 V2000
   31.5719   -4.2015    0.0000 C   0  0  0  0  0  0  0  0  0  0  0  0
   31.5707   -5.0210    0.0000 C   0  0  0  0  0  0  0  0  0  0  0  0
   32.2788   -5.4300    0.0000 C   0  0  0  0  0  0  0  0  0  0  0  0
   32.2770   -3.7926    0.0000 C   0  0  0  0  0  0  0  0  0  0  0  0
   32.9856   -4.1979    0.0000 C   0  0  0  0  0  0  0  0  0  0  0  0
   32.9859   -5.0211    0.0000 C   0  0  0  0  0  0  0  0  0  0  0  0
   33.7688   -5.2752    0.0000 N   0  0  0  0  0  0  0  0  0  0  0  0
   33.7684   -3.9433    0.0000 C   0  0  0  0  0  0  0  0  0  0  0  0
   34.2526   -4.6104    0.0000 C   0  0  0  0  0  0  0  0  0  0  0  0
   35.0679   -4.5252    0.0000 C   0  0  0  0  0  0  0  0  0  0  0  0
   35.4054   -3.7738    0.0000 N   0  0  0  0  0  0  0  0  0  0  0  0
   34.9212   -3.1067    0.0000 C   0  0  0  0  0  0  0  0  0  0  0  0
   34.0995   -3.1909    0.0000 C   0  0  0  0  0  0  0  0  0  0  0  0
   36.2183   -3.6899    0.0000 C   0  0  0  0  0  0  0  0  0  0  0  0
   36.6973   -4.3519    0.0000 O   0  0  0  0  0  0  0  0  0  0  0  0
   36.5520   -2.9440    0.0000 C   0  0  0  0  0  0  0  0  0  0  0  0
   37.3652   -2.8641    0.0000 C   0  0  0  0  0  0  0  0  0  0  0  0
   37.6989   -2.1190    0.0000 C   0  0  0  0  0  0  0  0  0  0  0  0
   37.2197   -1.4560    0.0000 C   0  0  0  0  0  0  0  0  0  0  0  0
   36.4029   -1.5430    0.0000 C   0  0  0  0  0  0  0  0  0  0  0  0
   36.0728   -2.2883    0.0000 C   0  0  0  0  0  0  0  0  0  0  0  0
   35.5478   -5.1838    0.0000 C   0  0  0  0  0  0  0  0  0  0  0  0
   35.2124   -5.9302    0.0000 C   0  0  0  0  0  0  0  0  0  0  0  0
   35.6908   -6.5918    0.0000 C   0  0  0  0  0  0  0  0  0  0  0  0
   36.5046   -6.5083    0.0000 C   0  0  0  0  0  0  0  0  0  0  0  0
   36.8377   -5.7574    0.0000 C   0  0  0  0  0  0  0  0  0  0  0  0
   36.3573   -5.0989    0.0000 C   0  0  0  0  0  0  0  0  0  0  0  0
   37.5525   -0.7097    0.0000 O   0  0  0  0  0  0  0  0  0  0  0  0
   38.3652   -0.6247    0.0000 C   0  0  0  0  0  0  0  0  0  0  0  0
   38.5119   -2.0355    0.0000 O   0  0  0  0  0  0  0  0  0  0  0  0
   38.9906   -2.6978    0.0000 C   0  0  0  0  0  0  0  0  0  0  0  0
   35.3566   -7.3376    0.0000 F   0  0  0  0  0  0  0  0  0  0  0  0
   36.9845   -7.1696    0.0000 F   0  0  0  0  0  0  0  0  0  0  0  0
  1  2  2  0
  2  3  1  0
  3  6  2  0
  5  4  2  0
  4  1  1  0
  5  6  1  0
  6  7  1  0
  7  9  1  0
  8  5  1  0
  8  9  2  0
  8 13  1  0
  9 10  1  0
 10 11  1  0
 11 12  1  0
 12 13  1  0
 11 14  1  0
 14 15  2  0
 14 16  1  0
 16 17  2  0
 17 18  1  0
 18 19  2  0
 19 20  1  0
 20 21  2  0
 21 16  1  0
 22 23  2  0
 23 24  1  0
 24 25  2  0
 25 26  1  0
 26 27  2  0
 27 22  1  0
 10 22  1  0
 19 28  1  0
 28 29  1  0
 18 30  1  0
 30 31  1  0
 24 32  1  0
 25 33  1  0
M  END
>  <Classification>  (765) 
1

>  <pchembl>  (765) 
5.96

>  <InChI_steorem>  (765) 
InChI=1S/C26H22F2N2O3/c1-32-22-10-8-16(14-23(22)33-2)26(31)30-12-11-18-17-5-3-4-6-21(17)29-24(18)25(30)15-7-9-19(27)20(28)13-15/h3-10,13-14,25,29H,11-12H2,1-2H3

>  <source>  (765) 
ChEMBL28

>  <source_id>  (765) 
28

>  <optional_reference>  (765) 
10.1021/acs.jmedchem.6b00035

>  <optional_origin>  (765) 
None

>  <target>  (765) 
BCRP

$$$$

     RDKit          2D

 33 38  0  0  0  0  0  0  0  0999 V2000
   32.8348  -10.9495    0.0000 C   0  0  0  0  0  0  0  0  0  0  0  0
   32.8337  -11.7690    0.0000 C   0  0  0  0  0  0  0  0  0  0  0  0
   33.5417  -12.1780    0.0000 C   0  0  0  0  0  0  0  0  0  0  0  0
   33.5399  -10.5406    0.0000 C   0  0  0  0  0  0  0  0  0  0  0  0
   34.2485  -10.9459    0.0000 C   0  0  0  0  0  0  0  0  0  0  0  0
   34.2488  -11.7691    0.0000 C   0  0  0  0  0  0  0  0  0  0  0  0
   35.0318  -12.0233    0.0000 N   0  0  0  0  0  0  0  0  0  0  0  0
   35.0314  -10.6914    0.0000 C   0  0  0  0  0  0  0  0  0  0  0  0
   35.5155  -11.3585    0.0000 C   0  0  0  0  0  0  0  0  0  0  0  0
   36.3308  -11.2732    0.0000 C   0  0  0  0  0  0  0  0  0  0  0  0
   36.6683  -10.5218    0.0000 N   0  0  0  0  0  0  0  0  0  0  0  0
   36.1841   -9.8547    0.0000 C   0  0  0  0  0  0  0  0  0  0  0  0
   35.3625   -9.9390    0.0000 C   0  0  0  0  0  0  0  0  0  0  0  0
   37.4812  -10.4379    0.0000 C   0  0  0  0  0  0  0  0  0  0  0  0
   37.9603  -11.0999    0.0000 O   0  0  0  0  0  0  0  0  0  0  0  0
   37.8150   -9.6920    0.0000 C   0  0  0  0  0  0  0  0  0  0  0  0
   38.4826   -8.2041    0.0000 C   0  0  0  0  0  0  0  0  0  0  0  0
   37.6658   -8.2910    0.0000 C   0  0  0  0  0  0  0  0  0  0  0  0
   37.3358   -9.0363    0.0000 C   0  0  0  0  0  0  0  0  0  0  0  0
   36.8108  -11.9318    0.0000 C   0  0  0  0  0  0  0  0  0  0  0  0
   36.4753  -12.6782    0.0000 C   0  0  0  0  0  0  0  0  0  0  0  0
   36.9537  -13.3398    0.0000 C   0  0  0  0  0  0  0  0  0  0  0  0
   37.7675  -13.2563    0.0000 C   0  0  0  0  0  0  0  0  0  0  0  0
   38.1006  -12.5054    0.0000 C   0  0  0  0  0  0  0  0  0  0  0  0
   37.6202  -11.8470    0.0000 C   0  0  0  0  0  0  0  0  0  0  0  0
   36.6196  -14.0856    0.0000 Cl  0  0  0  0  0  0  0  0  0  0  0  0
   38.2475  -13.9177    0.0000 Cl  0  0  0  0  0  0  0  0  0  0  0  0
   38.9619   -8.8670    0.0000 C   0  0  0  0  0  0  0  0  0  0  0  0
   38.6252   -9.6090    0.0000 C   0  0  0  0  0  0  0  0  0  0  0  0
   39.0992  -10.2695    0.0000 C   0  0  0  0  0  0  0  0  0  0  0  0
   39.9098  -10.1892    0.0000 C   0  0  0  0  0  0  0  0  0  0  0  0
   40.2441   -9.4428    0.0000 C   0  0  0  0  0  0  0  0  0  0  0  0
   39.7681   -8.7854    0.0000 C   0  0  0  0  0  0  0  0  0  0  0  0
  1  2  2  0
  2  3  1  0
  3  6  2  0
  5  4  2  0
  4  1  1  0
  5  6  1  0
  6  7  1  0
  7  9  1  0
  8  5  1  0
  8  9  2  0
  8 13  1  0
  9 10  1  0
 10 11  1  0
 11 12  1  0
 12 13  1  0
 11 14  1  0
 14 15  2  0
 14 16  1  0
 16 29  2  0
 28 17  2  0
 17 18  1  0
 18 19  2  0
 19 16  1  0
 20 21  2  0
 21 22  1  0
 22 23  2  0
 23 24  1  0
 24 25  2  0
 25 20  1  0
 10 20  1  0
 22 26  1  0
 23 27  1  0
 28 29  1  0
 29 30  1  0
 30 31  2  0
 31 32  1  0
 32 33  2  0
 33 28  1  0
M  END
>  <Classification>  (766) 
1

>  <pchembl>  (766) 
5.88

>  <InChI_steorem>  (766) 
InChI=1S/C28H20Cl2N2O/c29-23-13-12-18(16-24(23)30)27-26-21(20-9-3-4-11-25(20)31-26)14-15-32(27)28(33)22-10-5-7-17-6-1-2-8-19(17)22/h1-13,16,27,31H,14-15H2

>  <source>  (766) 
ChEMBL28

>  <source_id>  (766) 
28

>  <optional_reference>  (766) 
10.1021/acs.jmedchem.6b00035

>  <optional_origin>  (766) 
None

>  <target>  (766) 
BCRP

$$$$

     RDKit          2D

 34 37  0  0  0  0  0  0  0  0999 V2000
    2.6084  -13.4094    0.0000 C   0  0  0  0  0  0  0  0  0  0  0  0
    2.6125  -14.2348    0.0000 C   0  0  0  0  0  0  0  0  0  0  0  0
    3.3183  -13.0008    0.0000 C   0  0  0  0  0  0  0  0  0  0  0  0
    4.0240  -13.4094    0.0000 C   0  0  0  0  0  0  0  0  0  0  0  0
    4.0240  -14.2348    0.0000 C   0  0  0  0  0  0  0  0  0  0  0  0
    3.3183  -14.6434    0.0000 C   0  0  0  0  0  0  0  0  0  0  0  0
    1.8201  -13.1617    0.0000 C   0  0  0  0  0  0  0  0  0  0  0  0
    1.3372  -13.8303    0.0000 O   0  0  0  0  0  0  0  0  0  0  0  0
    1.8325  -14.4866    0.0000 C   0  0  0  0  0  0  0  0  0  0  0  0
    1.5725  -12.3817    0.0000 O   0  0  0  0  0  0  0  0  0  0  0  0
    4.7320  -14.6430    0.0000 N   0  0  0  0  0  0  0  0  0  0  0  0
    5.4395  -14.2340    0.0000 C   0  0  0  0  0  0  0  0  0  0  0  0
    6.1474  -14.6421    0.0000 C   0  0  0  0  0  0  0  0  0  0  0  0
    5.4390  -13.4168    0.0000 O   0  0  0  0  0  0  0  0  0  0  0  0
    6.8549  -14.2331    0.0000 O   0  0  0  0  0  0  0  0  0  0  0  0
    7.5628  -14.6413    0.0000 C   0  0  0  0  0  0  0  0  0  0  0  0
    7.5588  -15.4575    0.0000 C   0  0  0  0  0  0  0  0  0  0  0  0
    8.2659  -15.8656    0.0000 C   0  0  0  0  0  0  0  0  0  0  0  0
    8.9744  -15.4566    0.0000 C   0  0  0  0  0  0  0  0  0  0  0  0
    8.9713  -14.6351    0.0000 C   0  0  0  0  0  0  0  0  0  0  0  0
    8.2636  -14.2308    0.0000 C   0  0  0  0  0  0  0  0  0  0  0  0
    9.6829  -15.8638    0.0000 C   0  0  0  0  0  0  0  0  0  0  0  0
    9.6845  -16.6810    0.0000 O   0  0  0  0  0  0  0  0  0  0  0  0
   10.3898  -15.4538    0.0000 C   0  0  0  0  0  0  0  0  0  0  0  0
   11.0983  -15.8611    0.0000 C   0  0  0  0  0  0  0  0  0  0  0  0
   11.8052  -15.4511    0.0000 C   0  0  0  0  0  0  0  0  0  0  0  0
   12.5101  -15.8610    0.0000 C   0  0  0  0  0  0  0  0  0  0  0  0
   13.2165  -15.4517    0.0000 C   0  0  0  0  0  0  0  0  0  0  0  0
   13.2154  -14.6336    0.0000 C   0  0  0  0  0  0  0  0  0  0  0  0
   12.5019  -14.2266    0.0000 C   0  0  0  0  0  0  0  0  0  0  0  0
   11.7984  -14.6382    0.0000 C   0  0  0  0  0  0  0  0  0  0  0  0
   13.9218  -14.2227    0.0000 O   0  0  0  0  0  0  0  0  0  0  0  0
   14.6308  -14.6290    0.0000 C   0  0  0  0  0  0  0  0  0  0  0  0
   15.3372  -14.2181    0.0000 C   0  0  0  0  0  0  0  0  0  0  0  0
  2  1  1  0
  3  1  2  0
  4  3  1  0
  5  4  2  0
  6  2  2  0
  7  1  1  0
  8  7  1  0
  9  2  1  0
 10  7  2  0
  8  9  1  0
  6  5  1  0
  5 11  1  0
 11 12  1  0
 12 13  1  0
 12 14  2  0
 13 15  1  0
 15 16  1  0
 16 17  2  0
 17 18  1  0
 18 19  2  0
 19 20  1  0
 20 21  2  0
 21 16  1  0
 19 22  1  0
 22 23  2  0
 22 24  1  0
 24 25  2  3
 25 26  1  0
 26 27  2  0
 27 28  1  0
 28 29  2  0
 29 30  1  0
 30 31  2  0
 31 26  1  0
 29 32  1  0
 32 33  1  0
 33 34  1  0
M  END
>  <Classification>  (767) 
0

>  <pchembl>  (767) 
4.7

>  <InChI_steorem>  (767) 
InChI=1S/C27H23NO6/c1-2-32-22-9-3-18(4-10-22)5-14-25(29)19-6-11-23(12-7-19)33-17-26(30)28-21-8-13-24-20(15-21)16-34-27(24)31/h3-15H,2,16-17H2,1H3,(H,28,30)

>  <source>  (767) 
ChEMBL28

>  <source_id>  (767) 
28

>  <optional_reference>  (767) 
10.1016/j.ejmech.2018.12.019

>  <optional_origin>  (767) 
None

>  <target>  (767) 
BCRP

$$$$

     RDKit          2D

 34 38  0  0  0  0  0  0  0  0999 V2000
   18.7500   -3.7888    0.0000 C   0  0  0  0  0  0  0  0  0  0  0  0
   18.7500   -4.6101    0.0000 C   0  0  0  0  0  0  0  0  0  0  0  0
   19.4594   -5.0187    0.0000 O   0  0  0  0  0  0  0  0  0  0  0  0
   19.4594   -3.3761    0.0000 C   0  0  0  0  0  0  0  0  0  0  0  0
   20.1647   -3.7888    0.0000 C   0  0  0  0  0  0  0  0  0  0  0  0
   20.1631   -4.6083    0.0000 C   0  0  0  0  0  0  0  0  0  0  0  0
   20.8714   -5.0197    0.0000 C   0  0  0  0  0  0  0  0  0  0  0  0
   21.5819   -4.6086    0.0000 C   0  0  0  0  0  0  0  0  0  0  0  0
   21.5795   -3.7860    0.0000 C   0  0  0  0  0  0  0  0  0  0  0  0
   20.8706   -3.3824    0.0000 C   0  0  0  0  0  0  0  0  0  0  0  0
   19.4594   -2.5506    0.0000 O   0  0  0  0  0  0  0  0  0  0  0  0
   18.0388   -5.0239    0.0000 O   0  0  0  0  0  0  0  0  0  0  0  0
   17.3263   -4.6122    0.0000 C   0  0  0  0  0  0  0  0  0  0  0  0
   16.6151   -5.0259    0.0000 C   0  0  0  0  0  0  0  0  0  0  0  0
   15.9027   -4.6142    0.0000 N   0  0  0  0  0  0  0  0  0  0  0  0
   16.6163   -5.8472    0.0000 O   0  0  0  0  0  0  0  0  0  0  0  0
   15.1914   -5.0280    0.0000 C   0  0  0  0  0  0  0  0  0  0  0  0
   13.7740   -5.8499    0.0000 C   0  0  0  0  0  0  0  0  0  0  0  0
   14.4914   -6.2573    0.0000 C   0  0  0  0  0  0  0  0  0  0  0  0
   15.1951   -5.8460    0.0000 C   0  0  0  0  0  0  0  0  0  0  0  0
   18.0394   -3.3844    0.0000 C   0  0  0  0  0  0  0  0  0  0  0  0
   18.0383   -2.5620    0.0000 C   0  0  0  0  0  0  0  0  0  0  0  0
   17.3261   -2.1514    0.0000 C   0  0  0  0  0  0  0  0  0  0  0  0
   16.6145   -2.5662    0.0000 C   0  0  0  0  0  0  0  0  0  0  0  0
   16.6195   -3.3918    0.0000 C   0  0  0  0  0  0  0  0  0  0  0  0
   17.3323   -3.7945    0.0000 C   0  0  0  0  0  0  0  0  0  0  0  0
   13.7732   -5.0277    0.0000 C   0  0  0  0  0  0  0  0  0  0  0  0
   14.4841   -4.6193    0.0000 C   0  0  0  0  0  0  0  0  0  0  0  0
   14.4863   -3.8028    0.0000 C   0  0  0  0  0  0  0  0  0  0  0  0
   13.7785   -3.3938    0.0000 C   0  0  0  0  0  0  0  0  0  0  0  0
   13.0669   -3.8031    0.0000 C   0  0  0  0  0  0  0  0  0  0  0  0
   13.0681   -4.6182    0.0000 C   0  0  0  0  0  0  0  0  0  0  0  0
   15.9009   -2.1565    0.0000 O   0  0  0  0  0  0  0  0  0  0  0  0
   15.8975   -1.3352    0.0000 C   0  0  0  0  0  0  0  0  0  0  0  0
  1  2  2  0
  1  4  1  0
  2  3  1  0
  3  6  1  0
  5  4  1  0
  5  6  2  0
  6  7  1  0
  7  8  2  0
  8  9  1  0
  9 10  2  0
 10  5  1  0
  4 11  2  0
  2 12  1  0
 12 13  1  0
 13 14  1  0
 14 15  1  0
 14 16  2  0
 15 17  1  0
 17 28  2  0
 27 18  2  0
 18 19  1  0
 19 20  2  0
 20 17  1  0
 21 22  2  0
 22 23  1  0
 23 24  2  0
 24 25  1  0
 25 26  2  0
 26 21  1  0
  1 21  1  0
 27 28  1  0
 28 29  1  0
 29 30  2  0
 30 31  1  0
 31 32  2  0
 32 27  1  0
 24 33  1  0
 33 34  1  0
M  END
>  <Classification>  (768) 
1

>  <pchembl>  (768) 
5.29

>  <InChI_steorem>  (768) 
InChI=1S/C28H21NO5/c1-32-20-15-13-19(14-16-20)26-27(31)22-10-4-5-12-24(22)34-28(26)33-17-25(30)29-23-11-6-8-18-7-2-3-9-21(18)23/h2-16H,17H2,1H3,(H,29,30)

>  <source>  (768) 
ChEMBL28

>  <source_id>  (768) 
28

>  <optional_reference>  (768) 
10.1016/j.ejmech.2018.12.019

>  <optional_origin>  (768) 
None

>  <target>  (768) 
BCRP

$$$$

     RDKit          2D

 34 39  0  0  0  0  0  0  0  0999 V2000
    3.0437   -0.0963    0.0000 C   0  0  0  0  0  0  0  0  0  0  0  0
    3.9511   -0.8815    0.0000 C   0  0  0  0  0  0  0  0  0  0  0  0
    4.9531   -1.9978    0.0000 C   0  0  0  0  0  0  0  0  0  0  0  0
    4.2010   -3.2956    0.0000 C   0  0  0  0  0  0  0  0  0  0  0  0
    2.7343   -2.9815    0.0000 C   0  0  0  0  0  0  0  0  0  0  0  0
    2.5987   -1.5004    0.0000 N   0  0  0  0  0  0  0  0  0  0  0  0
    1.2990   -0.7500    0.0000 C   0  0  0  0  0  0  0  0  0  0  0  0
    1.2990    0.7500    0.0000 N   0  0  0  0  0  0  0  0  0  0  0  0
    0.0000    1.5000    0.0000 C   0  0  0  0  0  0  0  0  0  0  0  0
    0.0031    3.0008    0.0000 N   0  0  0  0  0  0  0  0  0  0  0  0
    1.3039    3.7494    0.0000 C   0  0  0  0  0  0  0  0  0  0  0  0
    1.4469    5.2298    0.0000 C   0  0  0  0  0  0  0  0  0  0  0  0
    2.9152    5.5365    0.0000 C   0  0  0  0  0  0  0  0  0  0  0  0
    3.6607    4.2349    0.0000 N   0  0  0  0  0  0  0  0  0  0  0  0
    2.6531    3.1237    0.0000 N   0  0  0  0  0  0  0  0  0  0  0  0
    3.5304    6.9054    0.0000 C   0  0  0  0  0  0  0  0  0  0  0  0
    3.4681    8.3217    0.0000 C   0  0  0  0  0  0  0  0  0  0  0  0
    4.7759    7.5871    0.0000 C   0  0  0  0  0  0  0  0  0  0  0  0
   -1.2990    0.7500    0.0000 C   0  0  0  0  0  0  0  0  0  0  0  0
   -2.7248    1.2135    0.0000 C   0  0  0  0  0  0  0  0  0  0  0  0
   -3.6065    0.0000    0.0000 C   0  0  0  0  0  0  0  0  0  0  0  0
   -2.7248   -1.2135    0.0000 C   0  0  0  0  0  0  0  0  0  0  0  0
   -1.2990   -0.7500    0.0000 N   0  0  0  0  0  0  0  0  0  0  0  0
    0.0000   -1.5000    0.0000 N   0  0  0  0  0  0  0  0  0  0  0  0
    5.3712   -0.4376    0.0000 C   0  0  0  0  0  0  0  0  0  0  0  0
    5.6155    0.7373    0.0000 O   0  0  0  0  0  0  0  0  0  0  0  0
    6.4913   -1.4365    0.0000 N   0  0  0  0  0  0  0  0  0  0  0  0
    7.9168   -0.9668    0.0000 C   0  0  0  0  0  0  0  0  0  0  0  0
    9.0377   -1.9636    0.0000 C   0  0  0  0  0  0  0  0  0  0  0  0
   10.4614   -1.4913    0.0000 C   0  0  0  0  0  0  0  0  0  0  0  0
   10.7643   -0.0222    0.0000 C   0  0  0  0  0  0  0  0  0  0  0  0
   11.9032    0.3557    0.0000 F   0  0  0  0  0  0  0  0  0  0  0  0
    9.6434    0.9746    0.0000 N   0  0  0  0  0  0  0  0  0  0  0  0
    8.2197    0.5023    0.0000 C   0  0  0  0  0  0  0  0  0  0  0  0
  2  1  1  0
  2  3  1  0
  3  4  1  0
  4  5  1  0
  5  6  1  0
  6  2  1  0
  6  7  1  0
  7  8  1  0
  8  9  2  0
  9 10  1  0
 10 11  1  0
 11 12  2  0
 12 13  1  0
 13 14  2  0
 14 15  1  0
 15 11  1  0
 13 16  1  0
 16 17  1  0
 17 18  1  0
 18 16  1  0
  9 19  1  0
 19 20  2  0
 20 21  1  0
 21 22  2  0
 22 23  1  0
 23 19  1  0
 23 24  1  0
 24  7  2  0
  2 25  1  0
 25 26  2  0
 25 27  1  0
 27 28  1  0
 28 29  2  0
 29 30  1  0
 30 31  2  0
 31 32  1  0
 31 33  1  0
 33 34  2  0
 34 28  1  0
M  END
>  <Classification>  (769) 
0

>  <pchembl>  (769) 
4.99

>  <InChI_steorem>  (769) 
InChI=1S/C23H24FN9O/c1-23(21(34)26-15-7-8-18(24)25-13-15)9-3-10-32(23)22-28-20(17-4-2-11-33(17)31-22)27-19-12-16(29-30-19)14-5-6-14/h2,4,7-8,11-14H,3,5-6,9-10H2,1H3,(H,26,34)(H2,27,28,29,30,31)

>  <source>  (769) 
ChEMBL28

>  <source_id>  (769) 
28

>  <optional_reference>  (769) 
10.1021/acs.jmedchem.8b01821

>  <optional_origin>  (769) 
None

>  <target>  (769) 
BCRP

$$$$

     RDKit          2D

 35 37  0  0  0  0  0  0  0  0999 V2000
   33.1499  -19.3402    0.0000 C   0  0  0  0  0  0  0  0  0  0  0  0
   33.1540  -20.1656    0.0000 C   0  0  0  0  0  0  0  0  0  0  0  0
   33.8598  -18.9316    0.0000 C   0  0  0  0  0  0  0  0  0  0  0  0
   34.5655  -19.3402    0.0000 C   0  0  0  0  0  0  0  0  0  0  0  0
   34.5655  -20.1656    0.0000 C   0  0  0  0  0  0  0  0  0  0  0  0
   33.8598  -20.5742    0.0000 C   0  0  0  0  0  0  0  0  0  0  0  0
   35.2735  -20.5738    0.0000 N   0  0  0  0  0  0  0  0  0  0  0  0
   35.9810  -20.1648    0.0000 C   0  0  0  0  0  0  0  0  0  0  0  0
   36.6889  -20.5730    0.0000 C   0  0  0  0  0  0  0  0  0  0  0  0
   35.9805  -19.3476    0.0000 O   0  0  0  0  0  0  0  0  0  0  0  0
   37.3964  -20.1639    0.0000 O   0  0  0  0  0  0  0  0  0  0  0  0
   38.1043  -20.5721    0.0000 C   0  0  0  0  0  0  0  0  0  0  0  0
   38.1003  -21.3884    0.0000 C   0  0  0  0  0  0  0  0  0  0  0  0
   38.8074  -21.7965    0.0000 C   0  0  0  0  0  0  0  0  0  0  0  0
   39.5159  -21.3874    0.0000 C   0  0  0  0  0  0  0  0  0  0  0  0
   39.5128  -20.5660    0.0000 C   0  0  0  0  0  0  0  0  0  0  0  0
   38.8051  -20.1616    0.0000 C   0  0  0  0  0  0  0  0  0  0  0  0
   40.2188  -20.1545    0.0000 C   0  0  0  0  0  0  0  0  0  0  0  0
   40.9282  -20.5601    0.0000 C   0  0  0  0  0  0  0  0  0  0  0  0
   40.2154  -19.3373    0.0000 O   0  0  0  0  0  0  0  0  0  0  0  0
   41.6342  -20.1486    0.0000 C   0  0  0  0  0  0  0  0  0  0  0  0
   42.3436  -20.5543    0.0000 C   0  0  0  0  0  0  0  0  0  0  0  0
   42.3419  -21.3719    0.0000 C   0  0  0  0  0  0  0  0  0  0  0  0
   43.0504  -21.7775    0.0000 C   0  0  0  0  0  0  0  0  0  0  0  0
   43.7574  -21.3659    0.0000 C   0  0  0  0  0  0  0  0  0  0  0  0
   43.7514  -20.5445    0.0000 C   0  0  0  0  0  0  0  0  0  0  0  0
   43.0423  -20.1426    0.0000 C   0  0  0  0  0  0  0  0  0  0  0  0
   32.4471  -20.5756    0.0000 O   0  0  0  0  0  0  0  0  0  0  0  0
   32.4414  -18.9329    0.0000 O   0  0  0  0  0  0  0  0  0  0  0  0
   32.4399  -18.1157    0.0000 C   0  0  0  0  0  0  0  0  0  0  0  0
   31.7386  -20.1683    0.0000 C   0  0  0  0  0  0  0  0  0  0  0  0
   44.4560  -20.1305    0.0000 O   0  0  0  0  0  0  0  0  0  0  0  0
   44.4673  -21.7706    0.0000 O   0  0  0  0  0  0  0  0  0  0  0  0
   44.4718  -22.5878    0.0000 C   0  0  0  0  0  0  0  0  0  0  0  0
   45.1668  -20.5337    0.0000 C   0  0  0  0  0  0  0  0  0  0  0  0
  2  1  2  0
  3  1  1  0
  4  3  2  0
  5  4  1  0
  6  2  1  0
  6  5  2  0
  5  7  1  0
  7  8  1  0
  8  9  1  0
  8 10  2  0
  9 11  1  0
 11 12  1  0
 12 13  2  0
 13 14  1  0
 14 15  2  0
 15 16  1  0
 16 17  2  0
 17 12  1  0
 16 18  1  0
 18 19  1  0
 18 20  2  0
 19 21  2  3
 21 22  1  0
 22 23  2  0
 23 24  1  0
 24 25  2  0
 25 26  1  0
 26 27  2  0
 27 22  1  0
  2 28  1  0
  1 29  1  0
 29 30  1  0
 28 31  1  0
 26 32  1  0
 25 33  1  0
 33 34  1  0
 32 35  1  0
M  END
>  <Classification>  (770) 
1

>  <pchembl>  (770) 
5.2

>  <InChI_steorem>  (770) 
InChI=1S/C27H27NO7/c1-31-23-12-9-18(14-25(23)33-3)8-11-22(29)19-6-5-7-21(15-19)35-17-27(30)28-20-10-13-24(32-2)26(16-20)34-4/h5-16H,17H2,1-4H3,(H,28,30)

>  <source>  (770) 
ChEMBL28

>  <source_id>  (770) 
28

>  <optional_reference>  (770) 
10.1016/j.ejmech.2018.12.019

>  <optional_origin>  (770) 
None

>  <target>  (770) 
BCRP

$$$$

     RDKit          2D

 35 38  0  0  0  0  0  0  0  0999 V2000
   12.5750   -2.9667    0.0000 C   0  0  0  0  0  0  0  0  0  0  0  0
   12.5791   -3.7999    0.0000 C   0  0  0  0  0  0  0  0  0  0  0  0
   13.2916   -2.5542    0.0000 C   0  0  0  0  0  0  0  0  0  0  0  0
   14.0041   -2.9667    0.0000 C   0  0  0  0  0  0  0  0  0  0  0  0
   14.0041   -3.7999    0.0000 C   0  0  0  0  0  0  0  0  0  0  0  0
   13.2916   -4.2125    0.0000 C   0  0  0  0  0  0  0  0  0  0  0  0
   11.7791   -2.7167    0.0000 C   0  0  0  0  0  0  0  0  0  0  0  0
   11.2916   -3.3917    0.0000 O   0  0  0  0  0  0  0  0  0  0  0  0
   11.7917   -4.0542    0.0000 C   0  0  0  0  0  0  0  0  0  0  0  0
   11.5291   -1.9292    0.0000 O   0  0  0  0  0  0  0  0  0  0  0  0
   14.7188   -4.2120    0.0000 N   0  0  0  0  0  0  0  0  0  0  0  0
   15.4330   -3.7991    0.0000 C   0  0  0  0  0  0  0  0  0  0  0  0
   16.1478   -4.2112    0.0000 C   0  0  0  0  0  0  0  0  0  0  0  0
   15.4325   -2.9741    0.0000 O   0  0  0  0  0  0  0  0  0  0  0  0
   16.8619   -3.7982    0.0000 O   0  0  0  0  0  0  0  0  0  0  0  0
   17.5767   -4.2103    0.0000 C   0  0  0  0  0  0  0  0  0  0  0  0
   17.5726   -5.0344    0.0000 C   0  0  0  0  0  0  0  0  0  0  0  0
   18.2865   -5.4464    0.0000 C   0  0  0  0  0  0  0  0  0  0  0  0
   19.0017   -5.0334    0.0000 C   0  0  0  0  0  0  0  0  0  0  0  0
   18.9985   -4.2042    0.0000 C   0  0  0  0  0  0  0  0  0  0  0  0
   18.2841   -3.7959    0.0000 C   0  0  0  0  0  0  0  0  0  0  0  0
   19.7169   -5.4445    0.0000 C   0  0  0  0  0  0  0  0  0  0  0  0
   19.7186   -6.2695    0.0000 O   0  0  0  0  0  0  0  0  0  0  0  0
   20.4307   -5.0307    0.0000 C   0  0  0  0  0  0  0  0  0  0  0  0
   21.1460   -5.4418    0.0000 C   0  0  0  0  0  0  0  0  0  0  0  0
   21.8596   -5.0279    0.0000 C   0  0  0  0  0  0  0  0  0  0  0  0
   22.5712   -5.4417    0.0000 C   0  0  0  0  0  0  0  0  0  0  0  0
   23.2844   -5.0285    0.0000 C   0  0  0  0  0  0  0  0  0  0  0  0
   23.2833   -4.2027    0.0000 C   0  0  0  0  0  0  0  0  0  0  0  0
   22.5630   -3.7917    0.0000 C   0  0  0  0  0  0  0  0  0  0  0  0
   21.8527   -4.2072    0.0000 C   0  0  0  0  0  0  0  0  0  0  0  0
   23.9995   -5.4400    0.0000 O   0  0  0  0  0  0  0  0  0  0  0  0
   23.9963   -3.7878    0.0000 O   0  0  0  0  0  0  0  0  0  0  0  0
   24.7122   -4.1979    0.0000 C   0  0  0  0  0  0  0  0  0  0  0  0
   24.7133   -5.0265    0.0000 C   0  0  0  0  0  0  0  0  0  0  0  0
  2  1  1  0
  3  1  2  0
  4  3  1  0
  5  4  2  0
  6  2  2  0
  7  1  1  0
  8  7  1  0
  9  2  1  0
 10  7  2  0
  8  9  1  0
  6  5  1  0
  5 11  1  0
 11 12  1  0
 12 13  1  0
 12 14  2  0
 13 15  1  0
 15 16  1  0
 16 17  2  0
 17 18  1  0
 18 19  2  0
 19 20  1  0
 20 21  2  0
 21 16  1  0
 19 22  1  0
 22 23  2  0
 22 24  1  0
 24 25  2  3
 25 26  1  0
 26 27  2  0
 27 28  1  0
 28 29  2  0
 29 30  1  0
 30 31  2  0
 31 26  1  0
 28 32  1  0
 29 33  1  0
 33 34  1  0
 32 35  1  0
M  END
>  <Classification>  (771) 
1

>  <pchembl>  (771) 
5.18

>  <InChI_steorem>  (771) 
InChI=1S/C27H23NO7/c1-32-24-12-4-17(13-25(24)33-2)3-11-23(29)18-5-8-21(9-6-18)34-16-26(30)28-20-7-10-22-19(14-20)15-35-27(22)31/h3-14H,15-16H2,1-2H3,(H,28,30)

>  <source>  (771) 
ChEMBL28

>  <source_id>  (771) 
28

>  <optional_reference>  (771) 
10.1016/j.ejmech.2018.12.019

>  <optional_origin>  (771) 
None

>  <target>  (771) 
BCRP

$$$$

     RDKit          2D

 35 38  0  0  0  0  0  0  0  0999 V2000
   32.5122  -20.2456    0.0000 C   0  0  0  0  0  0  0  0  0  0  0  0
   32.5163  -21.0789    0.0000 C   0  0  0  0  0  0  0  0  0  0  0  0
   33.2288  -19.8331    0.0000 C   0  0  0  0  0  0  0  0  0  0  0  0
   33.9413  -20.2456    0.0000 C   0  0  0  0  0  0  0  0  0  0  0  0
   33.9413  -21.0789    0.0000 C   0  0  0  0  0  0  0  0  0  0  0  0
   33.2288  -21.4914    0.0000 C   0  0  0  0  0  0  0  0  0  0  0  0
   31.7164  -19.9956    0.0000 C   0  0  0  0  0  0  0  0  0  0  0  0
   31.2288  -20.6706    0.0000 O   0  0  0  0  0  0  0  0  0  0  0  0
   31.7288  -21.3331    0.0000 C   0  0  0  0  0  0  0  0  0  0  0  0
   31.4663  -19.2081    0.0000 O   0  0  0  0  0  0  0  0  0  0  0  0
   34.6561  -21.4910    0.0000 N   0  0  0  0  0  0  0  0  0  0  0  0
   35.3702  -21.0781    0.0000 C   0  0  0  0  0  0  0  0  0  0  0  0
   36.0850  -21.4902    0.0000 C   0  0  0  0  0  0  0  0  0  0  0  0
   35.3697  -20.2531    0.0000 O   0  0  0  0  0  0  0  0  0  0  0  0
   36.7991  -21.0773    0.0000 O   0  0  0  0  0  0  0  0  0  0  0  0
   37.5139  -21.4893    0.0000 C   0  0  0  0  0  0  0  0  0  0  0  0
   37.5098  -22.3134    0.0000 C   0  0  0  0  0  0  0  0  0  0  0  0
   38.2237  -22.7254    0.0000 C   0  0  0  0  0  0  0  0  0  0  0  0
   38.9388  -22.3123    0.0000 C   0  0  0  0  0  0  0  0  0  0  0  0
   38.9357  -21.4831    0.0000 C   0  0  0  0  0  0  0  0  0  0  0  0
   38.2213  -21.0748    0.0000 C   0  0  0  0  0  0  0  0  0  0  0  0
   39.6485  -21.0677    0.0000 C   0  0  0  0  0  0  0  0  0  0  0  0
   40.3646  -21.4772    0.0000 C   0  0  0  0  0  0  0  0  0  0  0  0
   39.6451  -20.2427    0.0000 O   0  0  0  0  0  0  0  0  0  0  0  0
   41.0774  -21.0617    0.0000 C   0  0  0  0  0  0  0  0  0  0  0  0
   41.7935  -21.4713    0.0000 C   0  0  0  0  0  0  0  0  0  0  0  0
   41.7918  -22.2967    0.0000 C   0  0  0  0  0  0  0  0  0  0  0  0
   42.5072  -22.7062    0.0000 C   0  0  0  0  0  0  0  0  0  0  0  0
   43.2209  -22.2906    0.0000 C   0  0  0  0  0  0  0  0  0  0  0  0
   43.2149  -21.4614    0.0000 C   0  0  0  0  0  0  0  0  0  0  0  0
   42.4989  -21.0557    0.0000 C   0  0  0  0  0  0  0  0  0  0  0  0
   42.5102  -23.5312    0.0000 O   0  0  0  0  0  0  0  0  0  0  0  0
   43.9376  -22.6992    0.0000 O   0  0  0  0  0  0  0  0  0  0  0  0
   41.7972  -23.9462    0.0000 C   0  0  0  0  0  0  0  0  0  0  0  0
   43.9421  -23.5242    0.0000 C   0  0  0  0  0  0  0  0  0  0  0  0
  2  1  1  0
  3  1  2  0
  4  3  1  0
  5  4  2  0
  6  2  2  0
  7  1  1  0
  8  7  1  0
  9  2  1  0
 10  7  2  0
  8  9  1  0
  6  5  1  0
  5 11  1  0
 11 12  1  0
 12 13  1  0
 12 14  2  0
 13 15  1  0
 15 16  1  0
 16 17  2  0
 17 18  1  0
 18 19  2  0
 19 20  1  0
 20 21  2  0
 21 16  1  0
 20 22  1  0
 22 23  1  0
 22 24  2  0
 23 25  2  3
 25 26  1  0
 26 27  2  0
 27 28  1  0
 28 29  2  0
 29 30  1  0
 30 31  2  0
 31 26  1  0
 28 32  1  0
 29 33  1  0
 32 34  1  0
 33 35  1  0
M  END
>  <Classification>  (772) 
0

>  <pchembl>  (772) 
4.92

>  <InChI_steorem>  (772) 
InChI=1S/C27H23NO7/c1-32-24-11-7-17(12-25(24)33-2)6-10-23(29)18-4-3-5-21(14-18)34-16-26(30)28-20-8-9-22-19(13-20)15-35-27(22)31/h3-14H,15-16H2,1-2H3,(H,28,30)

>  <source>  (772) 
ChEMBL28

>  <source_id>  (772) 
28

>  <optional_reference>  (772) 
10.1016/j.ejmech.2018.12.019

>  <optional_origin>  (772) 
None

>  <target>  (772) 
BCRP

$$$$

     RDKit          2D

 35 39  0  0  0  0  0  0  0  0999 V2000
   -0.4386   -2.8743    0.0000 O   0  0  0  0  0  0  0  0  0  0  0  0
   -1.0004   -0.1836    0.0000 N   0  0  0  0  0  0  0  0  0  0  0  0
   -1.6679   -0.6686    0.0000 N   0  0  0  0  0  0  0  0  0  0  0  0
    0.7175   -2.0344    0.0000 N   0  0  0  0  0  0  0  0  0  0  0  0
    2.3584   -1.8619    0.0000 N   0  0  0  0  0  0  0  0  0  0  0  0
   -2.0472   -3.5417    0.0000 N   0  0  0  0  0  0  0  0  0  0  0  0
    5.6035   -5.1129    0.0000 N   0  0  0  0  0  0  0  0  0  0  0  0
   -0.5879   -1.4532    0.0000 C   0  0  0  0  0  0  0  0  0  0  0  0
   -1.4129   -1.4532    0.0000 C   0  0  0  0  0  0  0  0  0  0  0  0
   -0.1030   -2.1206    0.0000 C   0  0  0  0  0  0  0  0  0  0  0  0
   -0.3330   -0.6686    0.0000 C   0  0  0  0  0  0  0  0  0  0  0  0
   -1.8978   -2.1206    0.0000 C   0  0  0  0  0  0  0  0  0  0  0  0
   -1.0004    0.6414    0.0000 C   0  0  0  0  0  0  0  0  0  0  0  0
   -1.5623   -2.8743    0.0000 C   0  0  0  0  0  0  0  0  0  0  0  0
   -2.7183   -2.0344    0.0000 C   0  0  0  0  0  0  0  0  0  0  0  0
    1.0530   -1.2807    0.0000 C   0  0  0  0  0  0  0  0  0  0  0  0
    1.2024   -2.7018    0.0000 C   0  0  0  0  0  0  0  0  0  0  0  0
   -1.7149    1.0539    0.0000 C   0  0  0  0  0  0  0  0  0  0  0  0
    1.8735   -1.1945    0.0000 C   0  0  0  0  0  0  0  0  0  0  0  0
    2.0229   -2.6156    0.0000 C   0  0  0  0  0  0  0  0  0  0  0  0
   -3.2033   -2.7018    0.0000 C   0  0  0  0  0  0  0  0  0  0  0  0
    3.1789   -1.7757    0.0000 C   0  0  0  0  0  0  0  0  0  0  0  0
   -2.8677   -3.4555    0.0000 C   0  0  0  0  0  0  0  0  0  0  0  0
    3.6638   -2.4431    0.0000 C   0  0  0  0  0  0  0  0  0  0  0  0
   -2.4294    0.6414    0.0000 C   0  0  0  0  0  0  0  0  0  0  0  0
   -1.7149    1.8789    0.0000 C   0  0  0  0  0  0  0  0  0  0  0  0
    4.4843   -2.3569    0.0000 C   0  0  0  0  0  0  0  0  0  0  0  0
    3.3283   -3.1968    0.0000 C   0  0  0  0  0  0  0  0  0  0  0  0
   -3.1438    1.0539    0.0000 C   0  0  0  0  0  0  0  0  0  0  0  0
   -2.4294    2.2914    0.0000 C   0  0  0  0  0  0  0  0  0  0  0  0
    4.6337   -3.7780    0.0000 C   0  0  0  0  0  0  0  0  0  0  0  0
    4.9692   -3.0243    0.0000 C   0  0  0  0  0  0  0  0  0  0  0  0
    3.8132   -3.8642    0.0000 C   0  0  0  0  0  0  0  0  0  0  0  0
   -3.1438    1.8789    0.0000 C   0  0  0  0  0  0  0  0  0  0  0  0
    5.1186   -4.4454    0.0000 C   0  0  0  0  0  0  0  0  0  0  0  0
  1 10  2  0
  2  3  1  0
  2 11  1  0
  2 13  1  0
  3  9  2  0
  4 10  1  0
  4 16  1  0
  4 17  1  0
  5 19  1  0
  5 20  1  0
  5 22  1  0
  6 14  2  0
  6 23  1  0
  7 35  3  0
  8  9  1  0
  8 10  1  0
  8 11  2  0
  9 12  1  0
 12 14  1  0
 12 15  2  0
 13 18  1  0
 15 21  1  0
 16 19  1  0
 17 20  1  0
 18 25  2  0
 18 26  1  0
 21 23  2  0
 22 24  1  0
 24 27  2  0
 24 28  1  0
 25 29  1  0
 26 30  2  0
 27 32  1  0
 28 33  2  0
 29 34  2  0
 30 34  1  0
 31 32  2  0
 31 33  1  0
 31 35  1  0
M  END
>  <Classification>  (773) 
0

>  <pchembl>  (773) 
4.81

>  <InChI_steorem>  (773) 
InChI=1S/C28H26N6O/c29-17-22-8-10-24(11-9-22)19-32-13-15-33(16-14-32)28(35)26-21-34(20-23-5-2-1-3-6-23)31-27(26)25-7-4-12-30-18-25/h1-12,18,21H,13-16,19-20H2

>  <source>  (773) 
ChEMBL28

>  <source_id>  (773) 
28

>  <optional_reference>  (773) 
10.1021/acs.jmedchem.8b01821

>  <optional_origin>  (773) 
None

>  <target>  (773) 
BCRP

$$$$

     RDKit          2D

 36 40  0  0  0  0  0  0  0  0999 V2000
   31.8292   -3.2605    0.0000 C   0  0  0  0  0  0  0  0  0  0  0  0
   31.8292   -4.0818    0.0000 C   0  0  0  0  0  0  0  0  0  0  0  0
   32.5386   -4.4904    0.0000 O   0  0  0  0  0  0  0  0  0  0  0  0
   32.5386   -2.8478    0.0000 C   0  0  0  0  0  0  0  0  0  0  0  0
   33.2439   -3.2605    0.0000 C   0  0  0  0  0  0  0  0  0  0  0  0
   33.2423   -4.0800    0.0000 C   0  0  0  0  0  0  0  0  0  0  0  0
   33.9506   -4.4914    0.0000 C   0  0  0  0  0  0  0  0  0  0  0  0
   34.6610   -4.0803    0.0000 C   0  0  0  0  0  0  0  0  0  0  0  0
   34.6587   -3.2577    0.0000 C   0  0  0  0  0  0  0  0  0  0  0  0
   33.9498   -2.8541    0.0000 C   0  0  0  0  0  0  0  0  0  0  0  0
   32.5386   -2.0265    0.0000 O   0  0  0  0  0  0  0  0  0  0  0  0
   31.1179   -4.4956    0.0000 O   0  0  0  0  0  0  0  0  0  0  0  0
   30.4055   -4.0839    0.0000 C   0  0  0  0  0  0  0  0  0  0  0  0
   29.6943   -4.4976    0.0000 C   0  0  0  0  0  0  0  0  0  0  0  0
   28.9818   -4.0859    0.0000 N   0  0  0  0  0  0  0  0  0  0  0  0
   29.6955   -5.3189    0.0000 O   0  0  0  0  0  0  0  0  0  0  0  0
   28.2706   -4.4997    0.0000 C   0  0  0  0  0  0  0  0  0  0  0  0
   26.8532   -5.3216    0.0000 C   0  0  0  0  0  0  0  0  0  0  0  0
   27.5706   -5.7290    0.0000 C   0  0  0  0  0  0  0  0  0  0  0  0
   28.2743   -5.3177    0.0000 C   0  0  0  0  0  0  0  0  0  0  0  0
   31.1186   -2.8561    0.0000 C   0  0  0  0  0  0  0  0  0  0  0  0
   31.1175   -2.0337    0.0000 C   0  0  0  0  0  0  0  0  0  0  0  0
   30.4053   -1.6231    0.0000 C   0  0  0  0  0  0  0  0  0  0  0  0
   29.6937   -2.0380    0.0000 C   0  0  0  0  0  0  0  0  0  0  0  0
   29.6987   -2.8635    0.0000 C   0  0  0  0  0  0  0  0  0  0  0  0
   30.4115   -3.2662    0.0000 C   0  0  0  0  0  0  0  0  0  0  0  0
   26.8524   -4.4994    0.0000 C   0  0  0  0  0  0  0  0  0  0  0  0
   27.5633   -4.0910    0.0000 C   0  0  0  0  0  0  0  0  0  0  0  0
   27.5655   -3.2745    0.0000 C   0  0  0  0  0  0  0  0  0  0  0  0
   26.8576   -2.8655    0.0000 C   0  0  0  0  0  0  0  0  0  0  0  0
   26.1460   -3.2748    0.0000 C   0  0  0  0  0  0  0  0  0  0  0  0
   26.1473   -4.0899    0.0000 C   0  0  0  0  0  0  0  0  0  0  0  0
   30.4033   -0.8018    0.0000 O   0  0  0  0  0  0  0  0  0  0  0  0
   28.9801   -1.6282    0.0000 O   0  0  0  0  0  0  0  0  0  0  0  0
   28.9766   -0.8069    0.0000 C   0  0  0  0  0  0  0  0  0  0  0  0
   31.1141   -0.3915    0.0000 C   0  0  0  0  0  0  0  0  0  0  0  0
  1  2  2  0
  1  4  1  0
  2  3  1  0
  3  6  1  0
  5  4  1  0
  5  6  2  0
  6  7  1  0
  7  8  2  0
  8  9  1  0
  9 10  2  0
 10  5  1  0
  4 11  2  0
  2 12  1  0
 12 13  1  0
 13 14  1  0
 14 15  1  0
 14 16  2  0
 15 17  1  0
 17 28  2  0
 27 18  2  0
 18 19  1  0
 19 20  2  0
 20 17  1  0
 21 22  2  0
 22 23  1  0
 23 24  2  0
 24 25  1  0
 25 26  2  0
 26 21  1  0
  1 21  1  0
 27 28  1  0
 28 29  1  0
 29 30  2  0
 30 31  1  0
 31 32  2  0
 32 27  1  0
 23 33  1  0
 24 34  1  0
 34 35  1  0
 33 36  1  0
M  END
>  <Classification>  (774) 
1

>  <pchembl>  (774) 
5.43

>  <InChI_steorem>  (774) 
InChI=1S/C29H23NO6/c1-33-24-15-14-19(16-25(24)34-2)27-28(32)21-11-5-6-13-23(21)36-29(27)35-17-26(31)30-22-12-7-9-18-8-3-4-10-20(18)22/h3-16H,17H2,1-2H3,(H,30,31)

>  <source>  (774) 
ChEMBL28

>  <source_id>  (774) 
28

>  <optional_reference>  (774) 
10.1016/j.ejmech.2018.12.019

>  <optional_origin>  (774) 
None

>  <target>  (774) 
BCRP

$$$$

     RDKit          2D

 36 41  0  0  0  0  0  0  0  0999 V2000
   17.5239   -4.4683    0.0000 C   0  0  0  0  0  0  0  0  0  0  0  0
   18.2336   -4.0589    0.0000 N   0  0  0  0  0  0  0  0  0  0  0  0
   18.2308   -3.2362    0.0000 C   0  0  0  0  0  0  0  0  0  0  0  0
   17.5222   -2.8310    0.0000 N   0  0  0  0  0  0  0  0  0  0  0  0
   18.9339   -2.8263    0.0000 C   0  0  0  0  0  0  0  0  0  0  0  0
   19.6434   -3.2339    0.0000 C   0  0  0  0  0  0  0  0  0  0  0  0
   20.3491   -2.8233    0.0000 N   0  0  0  0  0  0  0  0  0  0  0  0
   20.3465   -2.0053    0.0000 C   0  0  0  0  0  0  0  0  0  0  0  0
   19.6323   -1.5995    0.0000 C   0  0  0  0  0  0  0  0  0  0  0  0
   18.9295   -2.0124    0.0000 C   0  0  0  0  0  0  0  0  0  0  0  0
   16.8159   -4.0594    0.0000 C   0  0  0  0  0  0  0  0  0  0  0  0
   16.8171   -3.2429    0.0000 C   0  0  0  0  0  0  0  0  0  0  0  0
   16.0409   -2.9893    0.0000 S   0  0  0  0  0  0  0  0  0  0  0  0
   16.0390   -4.3105    0.0000 C   0  0  0  0  0  0  0  0  0  0  0  0
   15.5580   -3.6461    0.0000 C   0  0  0  0  0  0  0  0  0  0  0  0
   14.7467   -3.7299    0.0000 C   0  0  0  0  0  0  0  0  0  0  0  0
   14.4099   -4.4771    0.0000 C   0  0  0  0  0  0  0  0  0  0  0  0
   14.8909   -5.1415    0.0000 C   0  0  0  0  0  0  0  0  0  0  0  0
   15.7085   -5.0587    0.0000 C   0  0  0  0  0  0  0  0  0  0  0  0
   13.5970   -4.5600    0.0000 C   0  0  0  0  0  0  0  0  0  0  0  0
   17.5237   -5.2855    0.0000 N   0  0  0  0  0  0  0  0  0  0  0  0
   16.8147   -5.6878    0.0000 C   0  0  0  0  0  0  0  0  0  0  0  0
   16.8125   -6.5014    0.0000 C   0  0  0  0  0  0  0  0  0  0  0  0
   17.5183   -6.9140    0.0000 N   0  0  0  0  0  0  0  0  0  0  0  0
   18.2279   -6.5068    0.0000 C   0  0  0  0  0  0  0  0  0  0  0  0
   18.2318   -5.6870    0.0000 C   0  0  0  0  0  0  0  0  0  0  0  0
   17.5150   -7.7312    0.0000 C   0  0  0  0  0  0  0  0  0  0  0  0
   16.8057   -8.1369    0.0000 C   0  0  0  0  0  0  0  0  0  0  0  0
   18.2211   -8.1426    0.0000 C   0  0  0  0  0  0  0  0  0  0  0  0
   18.2178   -8.9598    0.0000 N   0  0  0  0  0  0  0  0  0  0  0  0
   18.9304   -7.7369    0.0000 O   0  0  0  0  0  0  0  0  0  0  0  0
   16.1018   -7.7240    0.0000 C   0  0  0  0  0  0  0  0  0  0  0  0
   15.3929   -8.1291    0.0000 C   0  0  0  0  0  0  0  0  0  0  0  0
   15.3892   -8.9471    0.0000 C   0  0  0  0  0  0  0  0  0  0  0  0
   16.1002   -9.3584    0.0000 C   0  0  0  0  0  0  0  0  0  0  0  0
   16.8062   -8.9510    0.0000 C   0  0  0  0  0  0  0  0  0  0  0  0
 11  1  1  0
  1  2  2  0
  2  3  1  0
  3  4  2  0
  4 12  1  0
  5  6  2  0
  6  7  1  0
  7  8  2  0
  8  9  1  0
  9 10  2  0
 10  5  1  0
  3  5  1  0
 11 12  2  0
 12 13  1  0
 13 15  1  0
 14 11  1  0
 14 15  2  0
 14 19  1  0
 15 16  1  0
 16 17  1  0
 17 18  1  0
 18 19  1  0
 17 20  1  0
  1 21  1  0
 21 22  1  0
 21 26  1  0
 22 23  1  0
 23 24  1  0
 24 25  1  0
 25 26  1  0
 24 27  1  0
 27 28  1  0
 27 29  1  0
 29 30  1  0
 29 31  2  0
 28 32  2  0
 32 33  1  0
 33 34  2  0
 34 35  1  0
 35 36  2  0
 36 28  1  0
M  END
>  <Classification>  (775) 
1

>  <pchembl>  (775) 
5.62

>  <InChI_steorem>  (775) 
InChI=1S/C28H30N6OS/c1-18-9-10-21-22(16-18)36-28-23(21)27(31-26(32-28)20-8-5-11-30-17-20)34-14-12-33(13-15-34)24(25(29)35)19-6-3-2-4-7-19/h2-8,11,17-18,24H,9-10,12-16H2,1H3,(H2,29,35)

>  <source>  (775) 
ChEMBL28

>  <source_id>  (775) 
28

>  <optional_reference>  (775) 
10.1021/acs.jmedchem.8b01821

>  <optional_origin>  (775) 
None

>  <target>  (775) 
BCRP

$$$$

     RDKit          2D

 37 39  0  0  0  0  0  0  0  0999 V2000
    2.8891  -23.8884    0.0000 C   0  0  0  0  0  0  0  0  0  0  0  0
    2.8932  -24.7138    0.0000 C   0  0  0  0  0  0  0  0  0  0  0  0
    3.5989  -23.4798    0.0000 C   0  0  0  0  0  0  0  0  0  0  0  0
    4.3047  -23.8884    0.0000 C   0  0  0  0  0  0  0  0  0  0  0  0
    4.3047  -24.7138    0.0000 C   0  0  0  0  0  0  0  0  0  0  0  0
    3.5989  -25.1224    0.0000 C   0  0  0  0  0  0  0  0  0  0  0  0
    5.0127  -25.1220    0.0000 N   0  0  0  0  0  0  0  0  0  0  0  0
    5.7201  -24.7130    0.0000 C   0  0  0  0  0  0  0  0  0  0  0  0
    6.4281  -25.1212    0.0000 C   0  0  0  0  0  0  0  0  0  0  0  0
    5.7196  -23.8958    0.0000 O   0  0  0  0  0  0  0  0  0  0  0  0
    7.1355  -24.7122    0.0000 O   0  0  0  0  0  0  0  0  0  0  0  0
    7.8435  -25.1203    0.0000 C   0  0  0  0  0  0  0  0  0  0  0  0
    7.8395  -25.9366    0.0000 C   0  0  0  0  0  0  0  0  0  0  0  0
    8.5466  -26.3447    0.0000 C   0  0  0  0  0  0  0  0  0  0  0  0
    9.2550  -25.9356    0.0000 C   0  0  0  0  0  0  0  0  0  0  0  0
    9.2519  -25.1142    0.0000 C   0  0  0  0  0  0  0  0  0  0  0  0
    8.5442  -24.7098    0.0000 C   0  0  0  0  0  0  0  0  0  0  0  0
    9.9635  -26.3428    0.0000 C   0  0  0  0  0  0  0  0  0  0  0  0
    9.9651  -27.1600    0.0000 O   0  0  0  0  0  0  0  0  0  0  0  0
   10.6704  -25.9329    0.0000 C   0  0  0  0  0  0  0  0  0  0  0  0
   11.3789  -26.3401    0.0000 C   0  0  0  0  0  0  0  0  0  0  0  0
   12.0859  -25.9301    0.0000 C   0  0  0  0  0  0  0  0  0  0  0  0
   12.7907  -26.3400    0.0000 C   0  0  0  0  0  0  0  0  0  0  0  0
   13.4972  -25.9307    0.0000 C   0  0  0  0  0  0  0  0  0  0  0  0
   13.4960  -25.1127    0.0000 C   0  0  0  0  0  0  0  0  0  0  0  0
   12.7826  -24.7056    0.0000 C   0  0  0  0  0  0  0  0  0  0  0  0
   12.0791  -25.1172    0.0000 C   0  0  0  0  0  0  0  0  0  0  0  0
   14.2024  -24.7018    0.0000 O   0  0  0  0  0  0  0  0  0  0  0  0
   14.9115  -25.1081    0.0000 C   0  0  0  0  0  0  0  0  0  0  0  0
    2.1806  -23.4811    0.0000 O   0  0  0  0  0  0  0  0  0  0  0  0
    2.1863  -25.1238    0.0000 O   0  0  0  0  0  0  0  0  0  0  0  0
    2.1791  -22.6639    0.0000 C   0  0  0  0  0  0  0  0  0  0  0  0
    1.4778  -24.7165    0.0000 C   0  0  0  0  0  0  0  0  0  0  0  0
   14.2055  -26.3383    0.0000 O   0  0  0  0  0  0  0  0  0  0  0  0
   12.7781  -23.8884    0.0000 O   0  0  0  0  0  0  0  0  0  0  0  0
   13.4836  -23.4760    0.0000 C   0  0  0  0  0  0  0  0  0  0  0  0
   14.2067  -27.1555    0.0000 C   0  0  0  0  0  0  0  0  0  0  0  0
  2  1  2  0
  3  1  1  0
  4  3  2  0
  5  4  1  0
  6  2  1  0
  6  5  2  0
  5  7  1  0
  7  8  1  0
  8  9  1  0
  8 10  2  0
  9 11  1  0
 11 12  1  0
 12 13  2  0
 13 14  1  0
 14 15  2  0
 15 16  1  0
 16 17  2  0
 17 12  1  0
 15 18  1  0
 18 19  2  0
 18 20  1  0
 20 21  2  3
 21 22  1  0
 22 23  2  0
 23 24  1  0
 24 25  2  0
 25 26  1  0
 26 27  2  0
 27 22  1  0
 25 28  1  0
 28 29  1  0
  1 30  1  0
  2 31  1  0
 30 32  1  0
 31 33  1  0
 24 34  1  0
 26 35  1  0
 35 36  1  0
 34 37  1  0
M  END
>  <Classification>  (776) 
1

>  <pchembl>  (776) 
5.47

>  <InChI_steorem>  (776) 
InChI=1S/C28H29NO8/c1-32-23-13-9-20(16-24(23)33-2)29-27(31)17-37-21-10-7-19(8-11-21)22(30)12-6-18-14-25(34-3)28(36-5)26(15-18)35-4/h6-16H,17H2,1-5H3,(H,29,31)

>  <source>  (776) 
ChEMBL28

>  <source_id>  (776) 
28

>  <optional_reference>  (776) 
10.1016/j.ejmech.2018.12.019

>  <optional_origin>  (776) 
None

>  <target>  (776) 
BCRP

$$$$

     RDKit          2D

 37 40  0  0  0  0  0  0  0  0999 V2000
    2.8891  -14.1646    0.0000 C   0  0  0  0  0  0  0  0  0  0  0  0
    2.8932  -14.9901    0.0000 C   0  0  0  0  0  0  0  0  0  0  0  0
    3.5989  -13.7561    0.0000 C   0  0  0  0  0  0  0  0  0  0  0  0
    4.3047  -14.1646    0.0000 C   0  0  0  0  0  0  0  0  0  0  0  0
    4.3047  -14.9901    0.0000 C   0  0  0  0  0  0  0  0  0  0  0  0
    3.5989  -15.3987    0.0000 C   0  0  0  0  0  0  0  0  0  0  0  0
    2.1008  -13.9170    0.0000 C   0  0  0  0  0  0  0  0  0  0  0  0
    1.6179  -14.5856    0.0000 O   0  0  0  0  0  0  0  0  0  0  0  0
    2.1131  -15.2419    0.0000 C   0  0  0  0  0  0  0  0  0  0  0  0
    1.8531  -13.1370    0.0000 O   0  0  0  0  0  0  0  0  0  0  0  0
    5.0127  -15.3983    0.0000 N   0  0  0  0  0  0  0  0  0  0  0  0
    5.7201  -14.9892    0.0000 C   0  0  0  0  0  0  0  0  0  0  0  0
    6.4281  -15.3974    0.0000 C   0  0  0  0  0  0  0  0  0  0  0  0
    5.7196  -14.1721    0.0000 O   0  0  0  0  0  0  0  0  0  0  0  0
    7.1355  -14.9884    0.0000 O   0  0  0  0  0  0  0  0  0  0  0  0
    7.8435  -15.3966    0.0000 C   0  0  0  0  0  0  0  0  0  0  0  0
    7.8395  -16.2128    0.0000 C   0  0  0  0  0  0  0  0  0  0  0  0
    8.5466  -16.6209    0.0000 C   0  0  0  0  0  0  0  0  0  0  0  0
    9.2550  -16.2118    0.0000 C   0  0  0  0  0  0  0  0  0  0  0  0
    9.2519  -15.3904    0.0000 C   0  0  0  0  0  0  0  0  0  0  0  0
    8.5442  -14.9860    0.0000 C   0  0  0  0  0  0  0  0  0  0  0  0
    9.9635  -16.6191    0.0000 C   0  0  0  0  0  0  0  0  0  0  0  0
    9.9651  -17.4363    0.0000 O   0  0  0  0  0  0  0  0  0  0  0  0
   10.6704  -16.2091    0.0000 C   0  0  0  0  0  0  0  0  0  0  0  0
   11.3789  -16.6163    0.0000 C   0  0  0  0  0  0  0  0  0  0  0  0
   12.0859  -16.2064    0.0000 C   0  0  0  0  0  0  0  0  0  0  0  0
   12.7907  -16.6163    0.0000 C   0  0  0  0  0  0  0  0  0  0  0  0
   13.4972  -16.2070    0.0000 C   0  0  0  0  0  0  0  0  0  0  0  0
   13.4960  -15.3889    0.0000 C   0  0  0  0  0  0  0  0  0  0  0  0
   12.7826  -14.9819    0.0000 C   0  0  0  0  0  0  0  0  0  0  0  0
   12.0791  -15.3935    0.0000 C   0  0  0  0  0  0  0  0  0  0  0  0
   14.2055  -16.6146    0.0000 O   0  0  0  0  0  0  0  0  0  0  0  0
   14.2024  -14.9780    0.0000 O   0  0  0  0  0  0  0  0  0  0  0  0
   12.7781  -14.1647    0.0000 O   0  0  0  0  0  0  0  0  0  0  0  0
   13.4836  -13.7522    0.0000 C   0  0  0  0  0  0  0  0  0  0  0  0
   14.9115  -15.3843    0.0000 C   0  0  0  0  0  0  0  0  0  0  0  0
   14.2067  -17.4317    0.0000 C   0  0  0  0  0  0  0  0  0  0  0  0
  2  1  1  0
  3  1  2  0
  4  3  1  0
  5  4  2  0
  6  2  2  0
  7  1  1  0
  8  7  1  0
  9  2  1  0
 10  7  2  0
  8  9  1  0
  6  5  1  0
  5 11  1  0
 11 12  1  0
 12 13  1  0
 12 14  2  0
 13 15  1  0
 15 16  1  0
 16 17  2  0
 17 18  1  0
 18 19  2  0
 19 20  1  0
 20 21  2  0
 21 16  1  0
 19 22  1  0
 22 23  2  0
 22 24  1  0
 24 25  2  3
 25 26  1  0
 26 27  2  0
 27 28  1  0
 28 29  2  0
 29 30  1  0
 30 31  2  0
 31 26  1  0
 28 32  1  0
 29 33  1  0
 30 34  1  0
 34 35  1  0
 33 36  1  0
 32 37  1  0
M  END
>  <Classification>  (777) 
1

>  <pchembl>  (777) 
5.07

>  <InChI_steorem>  (777) 
InChI=1S/C28H25NO8/c1-33-24-12-17(13-25(34-2)27(24)35-3)4-11-23(30)18-5-8-21(9-6-18)36-16-26(31)29-20-7-10-22-19(14-20)15-37-28(22)32/h4-14H,15-16H2,1-3H3,(H,29,31)

>  <source>  (777) 
ChEMBL28

>  <source_id>  (777) 
28

>  <optional_reference>  (777) 
10.1016/j.ejmech.2018.12.019

>  <optional_origin>  (777) 
None

>  <target>  (777) 
BCRP

$$$$

     RDKit          2D

 37 40  0  0  0  0  0  0  0  0999 V2000
    4.8412   -9.6123    0.0000 C   0  0  0  0  0  0  0  0  0  0  0  0
    4.8454  -10.4378    0.0000 C   0  0  0  0  0  0  0  0  0  0  0  0
    5.5511   -9.2037    0.0000 C   0  0  0  0  0  0  0  0  0  0  0  0
    6.2569   -9.6123    0.0000 C   0  0  0  0  0  0  0  0  0  0  0  0
    6.2569  -10.4378    0.0000 C   0  0  0  0  0  0  0  0  0  0  0  0
    5.5511  -10.8464    0.0000 C   0  0  0  0  0  0  0  0  0  0  0  0
    4.0529   -9.3647    0.0000 O   0  0  0  0  0  0  0  0  0  0  0  0
    3.5701  -10.0333    0.0000 C   0  0  0  0  0  0  0  0  0  0  0  0
    4.0653  -10.6895    0.0000 O   0  0  0  0  0  0  0  0  0  0  0  0
    6.9648  -10.8459    0.0000 C   0  0  0  0  0  0  0  0  0  0  0  0
    7.6723  -10.4369    0.0000 N   0  0  0  0  0  0  0  0  0  0  0  0
    8.3802  -10.8451    0.0000 C   0  0  0  0  0  0  0  0  0  0  0  0
    9.0877  -10.4361    0.0000 C   0  0  0  0  0  0  0  0  0  0  0  0
    8.3807  -11.6623    0.0000 O   0  0  0  0  0  0  0  0  0  0  0  0
    9.7957  -10.8442    0.0000 O   0  0  0  0  0  0  0  0  0  0  0  0
   10.5031  -10.4352    0.0000 C   0  0  0  0  0  0  0  0  0  0  0  0
   11.2096  -10.8449    0.0000 C   0  0  0  0  0  0  0  0  0  0  0  0
   11.9166  -10.4366    0.0000 C   0  0  0  0  0  0  0  0  0  0  0  0
   11.9165   -9.6185    0.0000 C   0  0  0  0  0  0  0  0  0  0  0  0
   11.2036   -9.2105    0.0000 C   0  0  0  0  0  0  0  0  0  0  0  0
   10.4995   -9.6212    0.0000 C   0  0  0  0  0  0  0  0  0  0  0  0
   12.6234   -9.2086    0.0000 C   0  0  0  0  0  0  0  0  0  0  0  0
   13.3319   -9.6158    0.0000 C   0  0  0  0  0  0  0  0  0  0  0  0
   12.6219   -8.3914    0.0000 O   0  0  0  0  0  0  0  0  0  0  0  0
   14.0389   -9.2058    0.0000 C   0  0  0  0  0  0  0  0  0  0  0  0
   14.7474   -9.6131    0.0000 C   0  0  0  0  0  0  0  0  0  0  0  0
   14.7454  -10.4306    0.0000 C   0  0  0  0  0  0  0  0  0  0  0  0
   15.4531  -10.8377    0.0000 C   0  0  0  0  0  0  0  0  0  0  0  0
   16.1610  -10.4277    0.0000 C   0  0  0  0  0  0  0  0  0  0  0  0
   16.1568   -9.6063    0.0000 C   0  0  0  0  0  0  0  0  0  0  0  0
   15.4485   -9.2029    0.0000 C   0  0  0  0  0  0  0  0  0  0  0  0
   15.4543  -11.6549    0.0000 O   0  0  0  0  0  0  0  0  0  0  0  0
   16.8700  -10.8340    0.0000 O   0  0  0  0  0  0  0  0  0  0  0  0
   16.8622   -9.1939    0.0000 O   0  0  0  0  0  0  0  0  0  0  0  0
   17.5722   -9.5986    0.0000 C   0  0  0  0  0  0  0  0  0  0  0  0
   17.5764  -10.4231    0.0000 C   0  0  0  0  0  0  0  0  0  0  0  0
   16.1626  -12.0625    0.0000 C   0  0  0  0  0  0  0  0  0  0  0  0
  2  1  1  0
  3  1  2  0
  4  3  1  0
  5  4  2  0
  6  2  2  0
  7  1  1  0
  8  7  1  0
  9  2  1  0
  8  9  1  0
  6  5  1  0
  5 10  1  0
 10 11  1  0
 11 12  1  0
 12 13  1  0
 12 14  2  0
 13 15  1  0
 15 16  1  0
 16 17  2  0
 17 18  1  0
 18 19  2  0
 19 20  1  0
 20 21  2  0
 21 16  1  0
 19 22  1  0
 22 23  1  0
 22 24  2  0
 23 25  2  3
 25 26  1  0
 26 27  2  0
 27 28  1  0
 28 29  2  0
 29 30  1  0
 30 31  2  0
 31 26  1  0
 28 32  1  0
 29 33  1  0
 30 34  1  0
 34 35  1  0
 33 36  1  0
 32 37  1  0
M  END
>  <Classification>  (778) 
1

>  <pchembl>  (778) 
5.16

>  <InChI_steorem>  (778) 
InChI=1S/C28H27NO8/c1-32-25-12-18(13-26(33-2)28(25)34-3)4-10-22(30)20-6-8-21(9-7-20)35-16-27(31)29-15-19-5-11-23-24(14-19)37-17-36-23/h4-14H,15-17H2,1-3H3,(H,29,31)

>  <source>  (778) 
ChEMBL28

>  <source_id>  (778) 
28

>  <optional_reference>  (778) 
10.1016/j.ejmech.2018.12.019

>  <optional_origin>  (778) 
None

>  <target>  (778) 
BCRP

$$$$

     RDKit          2D

 37 40  0  0  0  0  0  0  0  0999 V2000
    7.2955   -9.3151    0.0000 C   0  0  0  0  0  0  0  0  0  0  0  0
    7.2944  -10.1347    0.0000 C   0  0  0  0  0  0  0  0  0  0  0  0
    8.0024  -10.5436    0.0000 C   0  0  0  0  0  0  0  0  0  0  0  0
    8.7121  -10.1342    0.0000 C   0  0  0  0  0  0  0  0  0  0  0  0
    8.7093   -9.3115    0.0000 C   0  0  0  0  0  0  0  0  0  0  0  0
    8.0006   -8.9063    0.0000 C   0  0  0  0  0  0  0  0  0  0  0  0
    6.5877   -8.9067    0.0000 O   0  0  0  0  0  0  0  0  0  0  0  0
    9.4154   -8.9003    0.0000 C   0  0  0  0  0  0  0  0  0  0  0  0
   10.1247   -9.3062    0.0000 C   0  0  0  0  0  0  0  0  0  0  0  0
    9.4123   -8.0831    0.0000 O   0  0  0  0  0  0  0  0  0  0  0  0
   10.8308   -8.8949    0.0000 C   0  0  0  0  0  0  0  0  0  0  0  0
   11.5401   -9.3009    0.0000 C   0  0  0  0  0  0  0  0  0  0  0  0
    5.8801   -9.3155    0.0000 C   0  0  0  0  0  0  0  0  0  0  0  0
    5.1723   -8.9070    0.0000 C   0  0  0  0  0  0  0  0  0  0  0  0
    4.4647   -9.3158    0.0000 N   0  0  0  0  0  0  0  0  0  0  0  0
    5.1721   -8.0898    0.0000 O   0  0  0  0  0  0  0  0  0  0  0  0
    3.7569   -8.9074    0.0000 C   0  0  0  0  0  0  0  0  0  0  0  0
   11.5401  -10.1169    0.0000 C   0  0  0  0  0  0  0  0  0  0  0  0
   12.2485  -10.5228    0.0000 C   0  0  0  0  0  0  0  0  0  0  0  0
   12.9556  -10.1114    0.0000 C   0  0  0  0  0  0  0  0  0  0  0  0
   12.9499   -9.2900    0.0000 C   0  0  0  0  0  0  0  0  0  0  0  0
   12.2409   -8.8879    0.0000 C   0  0  0  0  0  0  0  0  0  0  0  0
    3.7605   -8.0899    0.0000 C   0  0  0  0  0  0  0  0  0  0  0  0
    3.0536   -7.6816    0.0000 C   0  0  0  0  0  0  0  0  0  0  0  0
    3.0554   -9.3165    0.0000 C   0  0  0  0  0  0  0  0  0  0  0  0
    2.3478   -8.9118    0.0000 C   0  0  0  0  0  0  0  0  0  0  0  0
    2.3439   -8.0866    0.0000 C   0  0  0  0  0  0  0  0  0  0  0  0
    1.5579   -7.8354    0.0000 C   0  0  0  0  0  0  0  0  0  0  0  0
    1.0760   -8.5053    0.0000 O   0  0  0  0  0  0  0  0  0  0  0  0
    1.5642   -9.1705    0.0000 C   0  0  0  0  0  0  0  0  0  0  0  0
    1.3017   -7.0594    0.0000 O   0  0  0  0  0  0  0  0  0  0  0  0
   13.6654  -10.5164    0.0000 O   0  0  0  0  0  0  0  0  0  0  0  0
   13.6696  -11.3336    0.0000 C   0  0  0  0  0  0  0  0  0  0  0  0
   13.6546   -8.8763    0.0000 O   0  0  0  0  0  0  0  0  0  0  0  0
   14.3653   -9.2797    0.0000 C   0  0  0  0  0  0  0  0  0  0  0  0
   12.2511  -11.3399    0.0000 O   0  0  0  0  0  0  0  0  0  0  0  0
   11.5448  -11.7509    0.0000 C   0  0  0  0  0  0  0  0  0  0  0  0
  1  2  2  0
  2  3  1  0
  3  4  2  0
  4  5  1  0
  5  6  2  0
  6  1  1  0
  1  7  1  0
  5  8  1  0
  8  9  1  0
  8 10  2  0
  9 11  2  3
 11 12  1  0
  7 13  1  0
 13 14  1  0
 14 15  1  0
 14 16  2  0
 15 17  1  0
 12 18  2  0
 18 19  1  0
 19 20  2  0
 20 21  1  0
 21 22  2  0
 22 12  1  0
 17 23  2  0
 23 24  1  0
 24 27  2  0
 26 25  2  0
 25 17  1  0
 26 27  1  0
 27 28  1  0
 28 29  1  0
 29 30  1  0
 30 26  1  0
 28 31  2  0
 20 32  1  0
 32 33  1  0
 21 34  1  0
 34 35  1  0
 19 36  1  0
 36 37  1  0
M  END
>  <Classification>  (779) 
1

>  <pchembl>  (779) 
5.0

>  <InChI_steorem>  (779) 
InChI=1S/C28H25NO8/c1-33-24-11-17(12-25(34-2)27(24)35-3)7-10-23(30)18-5-4-6-21(14-18)36-16-26(31)29-20-8-9-22-19(13-20)15-37-28(22)32/h4-14H,15-16H2,1-3H3,(H,29,31)

>  <source>  (779) 
ChEMBL28

>  <source_id>  (779) 
28

>  <optional_reference>  (779) 
10.1016/j.ejmech.2018.12.019

>  <optional_origin>  (779) 
None

>  <target>  (779) 
BCRP

$$$$

     RDKit          2D

 37 42  0  0  0  0  0  0  0  0999 V2000
   16.3655  -15.0436    0.0000 C   0  0  0  0  0  0  0  0  0  0  0  0
   15.7912  -14.7102    0.0000 C   0  0  0  0  0  0  0  0  0  0  0  0
   15.7912  -13.8781    0.0000 C   0  0  0  0  0  0  0  0  0  0  0  0
   15.0733  -13.4640    0.0000 C   0  0  0  0  0  0  0  0  0  0  0  0
   15.0733  -12.6325    0.0000 C   0  0  0  0  0  0  0  0  0  0  0  0
   14.3573  -12.2168    0.0000 C   0  0  0  0  0  0  0  0  0  0  0  0
   14.3573  -11.3847    0.0000 N   0  0  0  0  0  0  0  0  0  0  0  0
   15.0724  -10.9714    0.0000 C   0  0  0  0  0  0  0  0  0  0  0  0
   15.0724  -10.1399    0.0000 C   0  0  0  0  0  0  0  0  0  0  0  0
   14.3536   -9.7257    0.0000 N   0  0  0  0  0  0  0  0  0  0  0  0
   14.3536   -8.8977    0.0000 C   0  0  0  0  0  0  0  0  0  0  0  0
   13.6310   -8.4806    0.0000 C   0  0  0  0  0  0  0  0  0  0  0  0
   13.6310   -7.6526    0.0000 O   0  0  0  0  0  0  0  0  0  0  0  0
   12.9024   -7.2396    0.0000 C   0  0  0  0  0  0  0  0  0  0  0  0
   12.1870   -7.6563    0.0000 C   0  0  0  0  0  0  0  0  0  0  0  0
   11.4680   -7.2457    0.0000 C   0  0  0  0  0  0  0  0  0  0  0  0
   11.4680   -6.4142    0.0000 C   0  0  0  0  0  0  0  0  0  0  0  0
   12.1793   -5.9975    0.0000 C   0  0  0  0  0  0  0  0  0  0  0  0
   12.1793   -5.1660    0.0000 C   0  0  0  0  0  0  0  0  0  0  0  0
   12.8906   -4.7493    0.0000 C   0  0  0  0  0  0  0  0  0  0  0  0
   13.6136   -5.1599    0.0000 C   0  0  0  0  0  0  0  0  0  0  0  0
   13.6136   -5.9914    0.0000 C   0  0  0  0  0  0  0  0  0  0  0  0
   12.9024   -6.4081    0.0000 C   0  0  0  0  0  0  0  0  0  0  0  0
   13.6344  -10.1431    0.0000 C   0  0  0  0  0  0  0  0  0  0  0  0
   13.6344  -10.9705    0.0000 C   0  0  0  0  0  0  0  0  0  0  0  0
   13.6372  -12.6325    0.0000 N   0  0  0  0  0  0  0  0  0  0  0  0
   12.8471  -12.3742    0.0000 N   0  0  0  0  0  0  0  0  0  0  0  0
   12.3575  -13.0483    0.0000 C   0  0  0  0  0  0  0  0  0  0  0  0
   11.5333  -13.1329    0.0000 N   0  0  0  0  0  0  0  0  0  0  0  0
   11.1977  -13.8921    0.0000 C   0  0  0  0  0  0  0  0  0  0  0  0
   10.5352  -13.9610    0.0000 C   0  0  0  0  0  0  0  0  0  0  0  0
   11.6832  -14.5620    0.0000 C   0  0  0  0  0  0  0  0  0  0  0  0
   12.5082  -14.4769    0.0000 C   0  0  0  0  0  0  0  0  0  0  0  0
   12.9017  -15.0152    0.0000 C   0  0  0  0  0  0  0  0  0  0  0  0
   12.8471  -13.7182    0.0000 C   0  0  0  0  0  0  0  0  0  0  0  0
   13.6372  -13.4640    0.0000 C   0  0  0  0  0  0  0  0  0  0  0  0
   14.3573  -13.8798    0.0000 N   0  0  0  0  0  0  0  0  0  0  0  0
  1  2  1  0
  2  3  1  0
  3  4  1  0
  4  5  1  0
  5  6  2  0
  6  7  1  0
  7  8  1  0
  8  9  1  0
  9 10  1  0
 10 11  1  0
 11 12  1  0
 12 13  1  0
 13 14  1  0
 14 15  2  0
 15 16  1  0
 16 17  2  0
 17 18  1  0
 18 19  2  0
 19 20  1  0
 20 21  2  0
 21 22  1  0
 22 23  2  0
 23 14  1  0
 23 18  1  0
 10 24  1  0
 24 25  1  0
 25  7  1  0
  6 26  1  0
 26 27  1  0
 27 28  2  0
 28 29  1  0
 29 30  2  0
 30 31  1  0
 30 32  1  0
 32 33  2  0
 33 34  1  0
 33 35  1  0
 35 28  1  0
 35 36  2  0
 36 26  1  0
 36 37  1  0
 37  4  2  0
M  END
>  <Classification>  (780) 
0

>  <pchembl>  (780) 
4.93

>  <InChI_steorem>  (780) 
InChI=1S/C30H34N6O/c1-4-8-24-20-27(36-30(32-24)28-21(2)19-22(3)31-29(28)33-36)35-15-13-34(14-16-35)17-18-37-26-12-7-10-23-9-5-6-11-25(23)26/h5-7,9-12,19-20H,4,8,13-18H2,1-3H3

>  <source>  (780) 
ChEMBL28

>  <source_id>  (780) 
28

>  <optional_reference>  (780) 
10.1021/acs.jmedchem.8b01821

>  <optional_origin>  (780) 
None

>  <target>  (780) 
BCRP

$$$$

     RDKit          2D

 38 42  0  0  0  0  0  0  0  0999 V2000
   42.2215   -3.2935    0.0000 C   0  0  0  0  0  0  0  0  0  0  0  0
   42.2215   -4.1148    0.0000 C   0  0  0  0  0  0  0  0  0  0  0  0
   42.9310   -4.5234    0.0000 O   0  0  0  0  0  0  0  0  0  0  0  0
   42.9310   -2.8808    0.0000 C   0  0  0  0  0  0  0  0  0  0  0  0
   43.6362   -3.2935    0.0000 C   0  0  0  0  0  0  0  0  0  0  0  0
   43.6346   -4.1130    0.0000 C   0  0  0  0  0  0  0  0  0  0  0  0
   44.3430   -4.5245    0.0000 C   0  0  0  0  0  0  0  0  0  0  0  0
   45.0534   -4.1134    0.0000 C   0  0  0  0  0  0  0  0  0  0  0  0
   45.0511   -3.2907    0.0000 C   0  0  0  0  0  0  0  0  0  0  0  0
   44.3421   -2.8871    0.0000 C   0  0  0  0  0  0  0  0  0  0  0  0
   42.9310   -2.0595    0.0000 O   0  0  0  0  0  0  0  0  0  0  0  0
   41.5103   -4.5286    0.0000 O   0  0  0  0  0  0  0  0  0  0  0  0
   40.7979   -4.1169    0.0000 C   0  0  0  0  0  0  0  0  0  0  0  0
   40.0866   -4.5307    0.0000 C   0  0  0  0  0  0  0  0  0  0  0  0
   39.3742   -4.1190    0.0000 N   0  0  0  0  0  0  0  0  0  0  0  0
   40.0878   -5.3520    0.0000 O   0  0  0  0  0  0  0  0  0  0  0  0
   38.6630   -4.5327    0.0000 C   0  0  0  0  0  0  0  0  0  0  0  0
   37.2455   -5.3546    0.0000 C   0  0  0  0  0  0  0  0  0  0  0  0
   37.9629   -5.7620    0.0000 C   0  0  0  0  0  0  0  0  0  0  0  0
   38.6666   -5.3508    0.0000 C   0  0  0  0  0  0  0  0  0  0  0  0
   41.5109   -2.8891    0.0000 C   0  0  0  0  0  0  0  0  0  0  0  0
   41.5099   -2.0667    0.0000 C   0  0  0  0  0  0  0  0  0  0  0  0
   40.7977   -1.6561    0.0000 C   0  0  0  0  0  0  0  0  0  0  0  0
   40.0861   -2.0710    0.0000 C   0  0  0  0  0  0  0  0  0  0  0  0
   40.0911   -2.8965    0.0000 C   0  0  0  0  0  0  0  0  0  0  0  0
   40.8038   -3.2992    0.0000 C   0  0  0  0  0  0  0  0  0  0  0  0
   37.2448   -4.5324    0.0000 C   0  0  0  0  0  0  0  0  0  0  0  0
   37.9556   -4.1240    0.0000 C   0  0  0  0  0  0  0  0  0  0  0  0
   37.9579   -3.3075    0.0000 C   0  0  0  0  0  0  0  0  0  0  0  0
   37.2500   -2.8985    0.0000 C   0  0  0  0  0  0  0  0  0  0  0  0
   36.5384   -3.3078    0.0000 C   0  0  0  0  0  0  0  0  0  0  0  0
   36.5396   -4.1229    0.0000 C   0  0  0  0  0  0  0  0  0  0  0  0
   40.7957   -0.8348    0.0000 O   0  0  0  0  0  0  0  0  0  0  0  0
   39.3725   -1.6613    0.0000 O   0  0  0  0  0  0  0  0  0  0  0  0
   39.3690   -0.8400    0.0000 C   0  0  0  0  0  0  0  0  0  0  0  0
   41.5065   -0.4245    0.0000 C   0  0  0  0  0  0  0  0  0  0  0  0
   39.3819   -3.3097    0.0000 O   0  0  0  0  0  0  0  0  0  0  0  0
   38.6674   -2.9056    0.0000 C   0  0  0  0  0  0  0  0  0  0  0  0
  1  2  2  0
  1  4  1  0
  2  3  1  0
  3  6  1  0
  5  4  1  0
  5  6  2  0
  6  7  1  0
  7  8  2  0
  8  9  1  0
  9 10  2  0
 10  5  1  0
  4 11  2  0
  2 12  1  0
 12 13  1  0
 13 14  1  0
 14 15  1  0
 14 16  2  0
 15 17  1  0
 17 28  2  0
 27 18  2  0
 18 19  1  0
 19 20  2  0
 20 17  1  0
 21 22  2  0
 22 23  1  0
 23 24  2  0
 24 25  1  0
 25 26  2  0
 26 21  1  0
  1 21  1  0
 27 28  1  0
 28 29  1  0
 29 30  2  0
 30 31  1  0
 31 32  2  0
 32 27  1  0
 23 33  1  0
 24 34  1  0
 34 35  1  0
 33 36  1  0
 25 37  1  0
 37 38  1  0
M  END
>  <Classification>  (781) 
0

>  <pchembl>  (781) 
4.98

>  <InChI_steorem>  (781) 
InChI=1S/C30H25NO7/c1-34-24-15-19(16-25(35-2)29(24)36-3)27-28(33)21-12-6-7-14-23(21)38-30(27)37-17-26(32)31-22-13-8-10-18-9-4-5-11-20(18)22/h4-16H,17H2,1-3H3,(H,31,32)

>  <source>  (781) 
ChEMBL28

>  <source_id>  (781) 
28

>  <optional_reference>  (781) 
10.1016/j.ejmech.2018.12.019

>  <optional_origin>  (781) 
None

>  <target>  (781) 
BCRP

$$$$

     RDKit          2D

 38 42  0  0  0  0  0  0  0  0999 V2000
    9.7692  -15.6174    0.0000 C   0  0  0  0  0  0  0  0  0  0  0  0
    9.7692  -16.4346    0.0000 C   0  0  0  0  0  0  0  0  0  0  0  0
   10.4744  -16.8391    0.0000 O   0  0  0  0  0  0  0  0  0  0  0  0
   10.4744  -15.2047    0.0000 C   0  0  0  0  0  0  0  0  0  0  0  0
   11.1797  -15.6174    0.0000 C   0  0  0  0  0  0  0  0  0  0  0  0
   11.1781  -16.4328    0.0000 C   0  0  0  0  0  0  0  0  0  0  0  0
   11.8823  -16.8401    0.0000 C   0  0  0  0  0  0  0  0  0  0  0  0
   12.5886  -16.4331    0.0000 C   0  0  0  0  0  0  0  0  0  0  0  0
   12.5863  -15.6146    0.0000 C   0  0  0  0  0  0  0  0  0  0  0  0
   11.8815  -15.2110    0.0000 C   0  0  0  0  0  0  0  0  0  0  0  0
    9.0630  -16.8447    0.0000 C   0  0  0  0  0  0  0  0  0  0  0  0
    8.3544  -16.4354    0.0000 C   0  0  0  0  0  0  0  0  0  0  0  0
    7.6478  -16.8444    0.0000 C   0  0  0  0  0  0  0  0  0  0  0  0
    7.6485  -17.6625    0.0000 C   0  0  0  0  0  0  0  0  0  0  0  0
    8.3618  -18.0698    0.0000 C   0  0  0  0  0  0  0  0  0  0  0  0
    9.0655  -17.6586    0.0000 C   0  0  0  0  0  0  0  0  0  0  0  0
   10.4744  -14.3875    0.0000 O   0  0  0  0  0  0  0  0  0  0  0  0
    9.0602  -15.2109    0.0000 O   0  0  0  0  0  0  0  0  0  0  0  0
    8.3537  -15.6216    0.0000 C   0  0  0  0  0  0  0  0  0  0  0  0
    7.6448  -15.2151    0.0000 C   0  0  0  0  0  0  0  0  0  0  0  0
    6.9383  -15.6257    0.0000 N   0  0  0  0  0  0  0  0  0  0  0  0
    7.6424  -14.3979    0.0000 O   0  0  0  0  0  0  0  0  0  0  0  0
    6.9397  -16.4365    0.0000 O   0  0  0  0  0  0  0  0  0  0  0  0
    6.2323  -16.8458    0.0000 C   0  0  0  0  0  0  0  0  0  0  0  0
    6.2294  -15.2192    0.0000 C   0  0  0  0  0  0  0  0  0  0  0  0
    6.9419  -18.0730    0.0000 O   0  0  0  0  0  0  0  0  0  0  0  0
    6.2331  -17.6664    0.0000 C   0  0  0  0  0  0  0  0  0  0  0  0
    8.3659  -18.8870    0.0000 O   0  0  0  0  0  0  0  0  0  0  0  0
    7.6602  -19.2991    0.0000 C   0  0  0  0  0  0  0  0  0  0  0  0
    6.2312  -14.4031    0.0000 C   0  0  0  0  0  0  0  0  0  0  0  0
    5.5232  -13.9966    0.0000 C   0  0  0  0  0  0  0  0  0  0  0  0
    5.5293  -15.6315    0.0000 C   0  0  0  0  0  0  0  0  0  0  0  0
    4.8207  -15.2287    0.0000 C   0  0  0  0  0  0  0  0  0  0  0  0
    4.8120  -14.4065    0.0000 C   0  0  0  0  0  0  0  0  0  0  0  0
    4.0274  -14.1606    0.0000 C   0  0  0  0  0  0  0  0  0  0  0  0
    3.5510  -14.8310    0.0000 O   0  0  0  0  0  0  0  0  0  0  0  0
    4.0414  -15.4910    0.0000 C   0  0  0  0  0  0  0  0  0  0  0  0
    3.7667  -13.3861    0.0000 O   0  0  0  0  0  0  0  0  0  0  0  0
  1  2  2  0
  1  4  1  0
  2  3  1  0
  3  6  1  0
  5  4  1  0
  5  6  2  0
  6  7  1  0
  7  8  2  0
  8  9  1  0
  9 10  2  0
 10  5  1  0
 11 12  2  0
 12 13  1  0
 13 14  2  0
 14 15  1  0
 15 16  2  0
 16 11  1  0
  2 11  1  0
  4 17  2  0
  1 18  1  0
 18 19  1  0
 19 20  1  0
 20 21  1  0
 20 22  2  0
 13 23  1  0
 23 24  1  0
 21 25  1  0
 14 26  1  0
 26 27  1  0
 15 28  1  0
 28 29  1  0
 25 30  2  0
 30 31  1  0
 31 34  2  0
 33 32  2  0
 32 25  1  0
 33 34  1  0
 34 35  1  0
 35 36  1  0
 36 37  1  0
 37 33  1  0
 35 38  2  0
M  END
>  <Classification>  (782) 
1

>  <pchembl>  (782) 
5.05

>  <InChI_steorem>  (782) 
InChI=1S/C28H23NO9/c1-33-21-11-15(12-22(34-2)26(21)35-3)25-27(24(31)19-6-4-5-7-20(19)38-25)36-14-23(30)29-17-8-9-18-16(10-17)13-37-28(18)32/h4-12H,13-14H2,1-3H3,(H,29,30)

>  <source>  (782) 
ChEMBL28

>  <source_id>  (782) 
28

>  <optional_reference>  (782) 
10.1016/j.ejmech.2018.12.019

>  <optional_origin>  (782) 
None

>  <target>  (782) 
BCRP

$$$$

     RDKit          2D

 39 42  0  0  0  0  0  0  0  0999 V2000
    3.5037   -4.0226    0.0000 C   0  0  0  0  0  0  0  0  0  0  0  0
    4.2134   -3.6132    0.0000 C   0  0  0  0  0  0  0  0  0  0  0  0
    4.2106   -2.7905    0.0000 C   0  0  0  0  0  0  0  0  0  0  0  0
    3.5020   -2.3852    0.0000 C   0  0  0  0  0  0  0  0  0  0  0  0
    2.7957   -3.6136    0.0000 C   0  0  0  0  0  0  0  0  0  0  0  0
    2.7924   -2.7971    0.0000 C   0  0  0  0  0  0  0  0  0  0  0  0
    2.0148   -2.5479    0.0000 C   0  0  0  0  0  0  0  0  0  0  0  0
    1.5375   -3.2105    0.0000 O   0  0  0  0  0  0  0  0  0  0  0  0
    2.0202   -3.8690    0.0000 C   0  0  0  0  0  0  0  0  0  0  0  0
    1.7592   -1.7717    0.0000 O   0  0  0  0  0  0  0  0  0  0  0  0
    4.9218   -4.0206    0.0000 N   0  0  0  0  0  0  0  0  0  0  0  0
    5.6288   -3.6109    0.0000 C   0  0  0  0  0  0  0  0  0  0  0  0
    6.3372   -4.0184    0.0000 C   0  0  0  0  0  0  0  0  0  0  0  0
    5.6275   -2.7937    0.0000 O   0  0  0  0  0  0  0  0  0  0  0  0
    7.0442   -3.6087    0.0000 O   0  0  0  0  0  0  0  0  0  0  0  0
    7.7526   -4.0162    0.0000 C   0  0  0  0  0  0  0  0  0  0  0  0
    7.7495   -4.8341    0.0000 C   0  0  0  0  0  0  0  0  0  0  0  0
    8.4570   -5.2415    0.0000 C   0  0  0  0  0  0  0  0  0  0  0  0
    9.1650   -4.8317    0.0000 C   0  0  0  0  0  0  0  0  0  0  0  0
    9.1611   -4.0103    0.0000 C   0  0  0  0  0  0  0  0  0  0  0  0
    8.4530   -3.6066    0.0000 C   0  0  0  0  0  0  0  0  0  0  0  0
    9.8739   -5.2382    0.0000 C   0  0  0  0  0  0  0  0  0  0  0  0
    9.8763   -6.0554    0.0000 O   0  0  0  0  0  0  0  0  0  0  0  0
   10.5804   -4.8276    0.0000 C   0  0  0  0  0  0  0  0  0  0  0  0
   11.2893   -5.2341    0.0000 C   0  0  0  0  0  0  0  0  0  0  0  0
   11.9959   -4.8235    0.0000 C   0  0  0  0  0  0  0  0  0  0  0  0
   12.7007   -5.2334    0.0000 C   0  0  0  0  0  0  0  0  0  0  0  0
   13.4068   -4.8234    0.0000 C   0  0  0  0  0  0  0  0  0  0  0  0
   13.4048   -4.0053    0.0000 C   0  0  0  0  0  0  0  0  0  0  0  0
   12.6910   -3.5990    0.0000 C   0  0  0  0  0  0  0  0  0  0  0  0
   11.9879   -4.0113    0.0000 C   0  0  0  0  0  0  0  0  0  0  0  0
    7.0412   -5.2417    0.0000 O   0  0  0  0  0  0  0  0  0  0  0  0
    6.3341   -4.8322    0.0000 C   0  0  0  0  0  0  0  0  0  0  0  0
   14.1108   -3.5937    0.0000 O   0  0  0  0  0  0  0  0  0  0  0  0
   14.8202   -3.9993    0.0000 C   0  0  0  0  0  0  0  0  0  0  0  0
   12.6857   -2.7818    0.0000 O   0  0  0  0  0  0  0  0  0  0  0  0
   13.3908   -2.3687    0.0000 C   0  0  0  0  0  0  0  0  0  0  0  0
   14.1155   -5.2303    0.0000 O   0  0  0  0  0  0  0  0  0  0  0  0
   14.1174   -6.0475    0.0000 C   0  0  0  0  0  0  0  0  0  0  0  0
  5  1  2  0
  1  2  1  0
  2  3  2  0
  3  4  1  0
  4  6  2  0
  5  6  1  0
  6  7  1  0
  7  8  1  0
  8  9  1  0
  9  5  1  0
  7 10  2  0
  2 11  1  0
 11 12  1  0
 12 13  1  0
 12 14  2  0
 13 15  1  0
 15 16  1  0
 16 17  2  0
 17 18  1  0
 18 19  2  0
 19 20  1  0
 20 21  2  0
 21 16  1  0
 19 22  1  0
 22 23  2  0
 22 24  1  0
 24 25  2  3
 25 26  1  0
 26 27  2  0
 27 28  1  0
 28 29  2  0
 29 30  1  0
 30 31  2  0
 31 26  1  0
 17 32  1  0
 32 33  1  0
 29 34  1  0
 34 35  1  0
 30 36  1  0
 36 37  1  0
 28 38  1  0
 38 39  1  0
M  END
>  <Classification>  (783) 
0

>  <pchembl>  (783) 
4.94

>  <InChI_steorem>  (783) 
InChI=1S/C29H27NO9/c1-34-24-14-18(22(31)9-5-17-11-25(35-2)28(37-4)26(12-17)36-3)6-10-23(24)38-16-27(32)30-20-7-8-21-19(13-20)15-39-29(21)33/h5-14H,15-16H2,1-4H3,(H,30,32)

>  <source>  (783) 
ChEMBL28

>  <source_id>  (783) 
28

>  <optional_reference>  (783) 
10.1016/j.ejmech.2018.12.019

>  <optional_origin>  (783) 
None

>  <target>  (783) 
BCRP

$$$$

     RDKit          2D

 83 92  0  0  0  0  0  0  0  0999 V2000
    5.3366  -12.3811    0.0000 C   0  0  0  0  0  0  0  0  0  0  0  0
    6.0446  -11.9738    0.0000 C   0  0  0  0  0  0  0  0  0  0  0  0
    6.7488  -12.3805    0.0000 C   0  0  0  0  0  0  0  0  0  0  0  0
    6.7488  -13.1999    0.0000 C   0  0  0  0  0  0  0  0  0  0  0  0
    6.0472  -13.6106    0.0000 C   0  0  0  0  0  0  0  0  0  0  0  0
    5.3366  -13.2052    0.0000 C   0  0  0  0  0  0  0  0  0  0  0  0
    7.4610  -13.6076    0.0000 O   0  0  0  0  0  0  0  0  0  0  0  0
    8.1691  -13.2000    0.0000 C   0  0  0  0  0  0  0  0  0  0  0  0
    8.1691  -12.3805    0.0000 C   0  0  0  0  0  0  0  0  0  0  0  0
    7.4610  -11.9729    0.0000 C   0  0  0  0  0  0  0  0  0  0  0  0
    7.4610  -11.1534    0.0000 O   0  0  0  0  0  0  0  0  0  0  0  0
    8.8771  -11.9729    0.0000 O   0  0  0  0  0  0  0  0  0  0  0  0
    9.5852  -12.3805    0.0000 C   0  0  0  0  0  0  0  0  0  0  0  0
   10.2974  -11.9729    0.0000 C   0  0  0  0  0  0  0  0  0  0  0  0
   10.2977  -11.1533    0.0000 C   0  0  0  0  0  0  0  0  0  0  0  0
   11.0033  -10.7443    0.0000 C   0  0  0  0  0  0  0  0  0  0  0  0
   11.7117  -11.1562    0.0000 C   0  0  0  0  0  0  0  0  0  0  0  0
   11.7139  -11.9699    0.0000 C   0  0  0  0  0  0  0  0  0  0  0  0
   11.0098  -12.3831    0.0000 C   0  0  0  0  0  0  0  0  0  0  0  0
   12.4220  -12.3775    0.0000 C   0  0  0  0  0  0  0  0  0  0  0  0
   13.1342  -11.9699    0.0000 O   0  0  0  0  0  0  0  0  0  0  0  0
   13.8423  -12.3775    0.0000 C   0  0  0  0  0  0  0  0  0  0  0  0
   12.4220  -13.1970    0.0000 O   0  0  0  0  0  0  0  0  0  0  0  0
    8.8771  -13.6077    0.0000 C   0  0  0  0  0  0  0  0  0  0  0  0
    9.5854  -13.2003    0.0000 C   0  0  0  0  0  0  0  0  0  0  0  0
   10.2941  -13.6112    0.0000 C   0  0  0  0  0  0  0  0  0  0  0  0
   10.2941  -14.4269    0.0000 C   0  0  0  0  0  0  0  0  0  0  0  0
    9.5880  -14.8377    0.0000 C   0  0  0  0  0  0  0  0  0  0  0  0
    8.8771  -14.4321    0.0000 C   0  0  0  0  0  0  0  0  0  0  0  0
   11.0021  -14.8387    0.0000 O   0  0  0  0  0  0  0  0  0  0  0  0
   11.7102  -14.4269    0.0000 C   0  0  0  0  0  0  0  0  0  0  0  0
   12.4224  -14.8387    0.0000 C   0  0  0  0  0  0  0  0  0  0  0  0
   13.1305  -14.4269    0.0000 O   0  0  0  0  0  0  0  0  0  0  0  0
   13.8385  -14.8387    0.0000 C   0  0  0  0  0  0  0  0  0  0  0  0
   14.5466  -14.4269    0.0000 C   0  0  0  0  0  0  0  0  0  0  0  0
   15.2588  -14.8387    0.0000 N   0  0  0  0  0  0  0  0  0  0  0  0
   16.0054  -14.5033    0.0000 C   0  0  0  0  0  0  0  0  0  0  0  0
   16.5529  -15.1125    0.0000 C   0  0  0  0  0  0  0  0  0  0  0  0
   16.1455  -15.8201    0.0000 N   0  0  0  0  0  0  0  0  0  0  0  0
   15.3439  -15.6511    0.0000 N   0  0  0  0  0  0  0  0  0  0  0  0
   17.3724  -15.1125    0.0000 C   0  0  0  0  0  0  0  0  0  0  0  0
   17.7800  -14.4044    0.0000 C   0  0  0  0  0  0  0  0  0  0  0  0
   18.5995  -14.4044    0.0000 C   0  0  0  0  0  0  0  0  0  0  0  0
   19.0072  -13.6964    0.0000 C   0  0  0  0  0  0  0  0  0  0  0  0
   18.5145  -13.0413    0.0000 N   0  0  0  0  0  0  0  0  0  0  0  0
   18.9797  -12.3696    0.0000 N   0  0  0  0  0  0  0  0  0  0  0  0
   19.7652  -12.6085    0.0000 N   0  0  0  0  0  0  0  0  0  0  0  0
   19.7815  -13.4231    0.0000 C   0  0  0  0  0  0  0  0  0  0  0  0
   20.3624  -12.0467    0.0000 C   0  0  0  0  0  0  0  0  0  0  0  0
   21.1443  -12.2817    0.0000 C   0  0  0  0  0  0  0  0  0  0  0  0
   21.7414  -11.7240    0.0000 O   0  0  0  0  0  0  0  0  0  0  0  0
   22.5275  -11.9590    0.0000 C   0  0  0  0  0  0  0  0  0  0  0  0
   23.1246  -11.3972    0.0000 C   0  0  0  0  0  0  0  0  0  0  0  0
   23.9065  -11.6363    0.0000 O   0  0  0  0  0  0  0  0  0  0  0  0
   24.5037  -11.0745    0.0000 C   0  0  0  0  0  0  0  0  0  0  0  0
   24.3151  -10.2775    0.0000 C   0  0  0  0  0  0  0  0  0  0  0  0
   24.9104   -9.7189    0.0000 C   0  0  0  0  0  0  0  0  0  0  0  0
   25.6967   -9.9540    0.0000 C   0  0  0  0  0  0  0  0  0  0  0  0
   25.8824  -10.7487    0.0000 C   0  0  0  0  0  0  0  0  0  0  0  0
   25.2904  -11.3109    0.0000 C   0  0  0  0  0  0  0  0  0  0  0  0
   26.2939   -9.3963    0.0000 C   0  0  0  0  0  0  0  0  0  0  0  0
   26.1050   -8.5996    0.0000 C   0  0  0  0  0  0  0  0  0  0  0  0
   26.7021   -8.0378    0.0000 C   0  0  0  0  0  0  0  0  0  0  0  0
   27.4881   -8.2728    0.0000 C   0  0  0  0  0  0  0  0  0  0  0  0
   27.6729   -9.0695    0.0000 C   0  0  0  0  0  0  0  0  0  0  0  0
   27.0758   -9.6313    0.0000 O   0  0  0  0  0  0  0  0  0  0  0  0
   28.4597   -9.3097    0.0000 C   0  0  0  0  0  0  0  0  0  0  0  0
   29.0555   -8.7433    0.0000 C   0  0  0  0  0  0  0  0  0  0  0  0
   28.8654   -7.9528    0.0000 C   0  0  0  0  0  0  0  0  0  0  0  0
   28.0831   -7.7140    0.0000 C   0  0  0  0  0  0  0  0  0  0  0  0
   26.5173   -7.2411    0.0000 O   0  0  0  0  0  0  0  0  0  0  0  0
   25.3230   -8.3605    0.0000 O   0  0  0  0  0  0  0  0  0  0  0  0
   24.7259   -8.9223    0.0000 C   0  0  0  0  0  0  0  0  0  0  0  0
   23.9399   -8.6873    0.0000 C   0  0  0  0  0  0  0  0  0  0  0  0
   23.3466   -9.2448    0.0000 C   0  0  0  0  0  0  0  0  0  0  0  0
   22.5642   -9.0098    0.0000 C   0  0  0  0  0  0  0  0  0  0  0  0
   22.3752   -8.2127    0.0000 C   0  0  0  0  0  0  0  0  0  0  0  0
   22.9707   -7.6533    0.0000 C   0  0  0  0  0  0  0  0  0  0  0  0
   23.7539   -7.8857    0.0000 C   0  0  0  0  0  0  0  0  0  0  0  0
   21.9671   -9.5675    0.0000 C   0  0  0  0  0  0  0  0  0  0  0  0
   22.1519  -10.3684    0.0000 O   0  0  0  0  0  0  0  0  0  0  0  0
   21.1810   -9.3325    0.0000 O   0  0  0  0  0  0  0  0  0  0  0  0
   20.5839   -9.8943    0.0000 C   0  0  0  0  0  0  0  0  0  0  0  0
  2  1  2  0
  3  2  1  0
  4  3  2  0
  5  4  1  0
  6  5  2  0
  1  6  1  0
  4  7  1  0
  7  8  1  0
  8  9  2  0
  9 10  1  0
  3 10  1  0
 10 11  2  0
  9 12  1  0
 12 13  1  0
 13 14  1  0
 15 14  2  0
 16 15  1  0
 17 16  2  0
 18 17  1  0
 19 18  2  0
 14 19  1  0
 18 20  1  0
 20 21  1  0
 21 22  1  0
 20 23  2  0
 24  8  1  0
 25 24  2  0
 26 25  1  0
 27 26  2  0
 28 27  1  0
 29 28  2  0
 24 29  1  0
 27 30  1  0
 30 31  1  0
 31 32  1  0
 32 33  1  0
 33 34  1  0
 34 35  1  0
 35 36  1  0
 37 36  1  0
 37 38  2  0
 38 39  1  0
 39 40  2  0
 40 36  1  0
 38 41  1  0
 41 42  1  0
 42 43  1  0
 43 44  1  0
 44 45  1  0
 45 46  2  0
 46 47  1  0
 47 48  1  0
 48 44  2  0
 47 49  1  0
 49 50  1  0
 50 51  1  0
 51 52  1  0
 52 53  1  0
 53 54  1  0
 54 55  1  0
 56 55  2  0
 57 56  1  0
 58 57  2  0
 59 58  1  0
 60 59  2  0
 55 60  1  0
 61 58  1  0
 61 62  2  0
 63 62  1  0
 64 63  1  0
 65 64  2  0
 66 65  1  0
 61 66  1  0
 65 67  1  0
 67 68  2  0
 68 69  1  0
 69 70  2  0
 64 70  1  0
 63 71  2  0
 62 72  1  0
 72 73  1  0
 73 74  1  0
 75 74  2  0
 76 75  1  0
 77 76  2  0
 78 77  1  0
 79 78  2  0
 74 79  1  0
 76 80  1  0
 80 81  2  0
 80 82  1  0
 82 83  1  0
M  END
>  <Classification>  (784) 
1

>  <pchembl>  (784) 
7.72

>  <InChI_steorem>  (784) 
InChI=1S/C63H58N6O14/c1-74-62(72)46-12-7-10-42(36-46)40-80-60-56(70)52-16-3-5-18-54(52)82-58(60)44-20-24-50(25-21-44)78-34-32-76-30-28-68-38-48(64-66-68)14-9-15-49-39-69(67-65-49)29-31-77-33-35-79-51-26-22-45(23-27-51)59-61(57(71)53-17-4-6-19-55(53)83-59)81-41-43-11-8-13-47(37-43)63(73)75-2/h3-8,10-13,16-27,36-39H,9,14-15,28-35,40-41H2,1-2H3

>  <source>  (784) 
ChEMBL28

>  <source_id>  (784) 
28

>  <optional_reference>  (784) 
10.1021/acs.jmedchem.9b00963

>  <optional_origin>  (784) 
None

>  <target>  (784) 
BCRP

$$$$

     RDKit          2D

 83 92  0  0  0  0  0  0  0  0999 V2000
    5.3790  -12.4765    0.0000 C   0  0  0  0  0  0  0  0  0  0  0  0
    6.0923  -12.0662    0.0000 C   0  0  0  0  0  0  0  0  0  0  0  0
    6.8018  -12.4759    0.0000 C   0  0  0  0  0  0  0  0  0  0  0  0
    6.8018  -13.3016    0.0000 C   0  0  0  0  0  0  0  0  0  0  0  0
    6.0949  -13.7111    0.0000 C   0  0  0  0  0  0  0  0  0  0  0  0
    5.3790  -13.3027    0.0000 C   0  0  0  0  0  0  0  0  0  0  0  0
    7.5152  -13.7123    0.0000 O   0  0  0  0  0  0  0  0  0  0  0  0
    8.2328  -13.3016    0.0000 C   0  0  0  0  0  0  0  0  0  0  0  0
    8.2328  -12.4760    0.0000 C   0  0  0  0  0  0  0  0  0  0  0  0
    7.5152  -12.0652    0.0000 C   0  0  0  0  0  0  0  0  0  0  0  0
    7.5152  -11.2395    0.0000 O   0  0  0  0  0  0  0  0  0  0  0  0
    8.9463  -12.0652    0.0000 O   0  0  0  0  0  0  0  0  0  0  0  0
    9.6596  -12.4760    0.0000 C   0  0  0  0  0  0  0  0  0  0  0  0
   10.3772  -12.0652    0.0000 C   0  0  0  0  0  0  0  0  0  0  0  0
   10.3776  -11.2395    0.0000 C   0  0  0  0  0  0  0  0  0  0  0  0
   11.0884  -10.8273    0.0000 C   0  0  0  0  0  0  0  0  0  0  0  0
   11.8021  -11.2424    0.0000 C   0  0  0  0  0  0  0  0  0  0  0  0
   11.8044  -12.0622    0.0000 C   0  0  0  0  0  0  0  0  0  0  0  0
   11.0908  -12.4785    0.0000 C   0  0  0  0  0  0  0  0  0  0  0  0
   12.5178  -12.4730    0.0000 C   0  0  0  0  0  0  0  0  0  0  0  0
   13.2354  -12.0622    0.0000 O   0  0  0  0  0  0  0  0  0  0  0  0
   13.9488  -12.4730    0.0000 C   0  0  0  0  0  0  0  0  0  0  0  0
   12.5178  -13.2985    0.0000 O   0  0  0  0  0  0  0  0  0  0  0  0
    8.9463  -13.7123    0.0000 C   0  0  0  0  0  0  0  0  0  0  0  0
    9.6599  -13.3019    0.0000 C   0  0  0  0  0  0  0  0  0  0  0  0
   10.3738  -13.7117    0.0000 C   0  0  0  0  0  0  0  0  0  0  0  0
   10.3738  -14.5377    0.0000 C   0  0  0  0  0  0  0  0  0  0  0  0
    9.6624  -14.9517    0.0000 C   0  0  0  0  0  0  0  0  0  0  0  0
    8.9463  -14.5430    0.0000 C   0  0  0  0  0  0  0  0  0  0  0  0
   11.0872  -14.9526    0.0000 O   0  0  0  0  0  0  0  0  0  0  0  0
   11.8006  -14.5377    0.0000 C   0  0  0  0  0  0  0  0  0  0  0  0
   12.5141  -14.9526    0.0000 C   0  0  0  0  0  0  0  0  0  0  0  0
   13.2316  -14.5377    0.0000 O   0  0  0  0  0  0  0  0  0  0  0  0
   13.9450  -14.9526    0.0000 C   0  0  0  0  0  0  0  0  0  0  0  0
   14.6584  -14.5377    0.0000 C   0  0  0  0  0  0  0  0  0  0  0  0
   15.3760  -14.9526    0.0000 N   0  0  0  0  0  0  0  0  0  0  0  0
   16.1282  -14.6147    0.0000 C   0  0  0  0  0  0  0  0  0  0  0  0
   16.6798  -15.2286    0.0000 C   0  0  0  0  0  0  0  0  0  0  0  0
   16.2652  -15.9414    0.0000 N   0  0  0  0  0  0  0  0  0  0  0  0
   15.4617  -15.7712    0.0000 N   0  0  0  0  0  0  0  0  0  0  0  0
   17.5055  -15.2286    0.0000 C   0  0  0  0  0  0  0  0  0  0  0  0
   17.9162  -14.5151    0.0000 O   0  0  0  0  0  0  0  0  0  0  0  0
   18.7419  -14.5151    0.0000 C   0  0  0  0  0  0  0  0  0  0  0  0
   19.1526  -13.7976    0.0000 C   0  0  0  0  0  0  0  0  0  0  0  0
   18.6562  -13.1417    0.0000 N   0  0  0  0  0  0  0  0  0  0  0  0
   19.1250  -12.4649    0.0000 N   0  0  0  0  0  0  0  0  0  0  0  0
   19.9165  -12.7015    0.0000 N   0  0  0  0  0  0  0  0  0  0  0  0
   19.9329  -13.5263    0.0000 C   0  0  0  0  0  0  0  0  0  0  0  0
   20.5181  -12.1396    0.0000 C   0  0  0  0  0  0  0  0  0  0  0  0
   21.3059  -12.3763    0.0000 C   0  0  0  0  0  0  0  0  0  0  0  0
   21.9075  -11.8103    0.0000 O   0  0  0  0  0  0  0  0  0  0  0  0
   22.6995  -12.0512    0.0000 C   0  0  0  0  0  0  0  0  0  0  0  0
   23.2970  -11.4852    0.0000 C   0  0  0  0  0  0  0  0  0  0  0  0
   24.0889  -11.7261    0.0000 O   0  0  0  0  0  0  0  0  0  0  0  0
   24.6906  -11.1600    0.0000 C   0  0  0  0  0  0  0  0  0  0  0  0
   24.5006  -10.3571    0.0000 C   0  0  0  0  0  0  0  0  0  0  0  0
   25.1004   -9.7943    0.0000 C   0  0  0  0  0  0  0  0  0  0  0  0
   25.8927  -10.0311    0.0000 C   0  0  0  0  0  0  0  0  0  0  0  0
   26.0797  -10.8319    0.0000 C   0  0  0  0  0  0  0  0  0  0  0  0
   25.4832  -11.3982    0.0000 C   0  0  0  0  0  0  0  0  0  0  0  0
   26.4943   -9.4650    0.0000 C   0  0  0  0  0  0  0  0  0  0  0  0
   26.3040   -8.6623    0.0000 C   0  0  0  0  0  0  0  0  0  0  0  0
   26.9056   -8.1005    0.0000 C   0  0  0  0  0  0  0  0  0  0  0  0
   27.6975   -8.3372    0.0000 C   0  0  0  0  0  0  0  0  0  0  0  0
   27.8837   -9.1400    0.0000 C   0  0  0  0  0  0  0  0  0  0  0  0
   27.2821   -9.7059    0.0000 O   0  0  0  0  0  0  0  0  0  0  0  0
   28.6764   -9.3778    0.0000 C   0  0  0  0  0  0  0  0  0  0  0  0
   29.2725   -8.8112    0.0000 C   0  0  0  0  0  0  0  0  0  0  0  0
   29.0852   -8.0149    0.0000 C   0  0  0  0  0  0  0  0  0  0  0  0
   28.2970   -7.7742    0.0000 C   0  0  0  0  0  0  0  0  0  0  0  0
   26.7153   -7.2977    0.0000 O   0  0  0  0  0  0  0  0  0  0  0  0
   25.5161   -8.4256    0.0000 O   0  0  0  0  0  0  0  0  0  0  0  0
   24.9145   -8.9916    0.0000 C   0  0  0  0  0  0  0  0  0  0  0  0
   24.1225   -8.7507    0.0000 C   0  0  0  0  0  0  0  0  0  0  0  0
   23.5205   -9.3165    0.0000 C   0  0  0  0  0  0  0  0  0  0  0  0
   22.7365   -9.0799    0.0000 C   0  0  0  0  0  0  0  0  0  0  0  0
   22.5460   -8.2767    0.0000 C   0  0  0  0  0  0  0  0  0  0  0  0
   23.1419   -7.7130    0.0000 C   0  0  0  0  0  0  0  0  0  0  0  0
   23.9351   -7.9472    0.0000 C   0  0  0  0  0  0  0  0  0  0  0  0
   22.1349   -9.6417    0.0000 C   0  0  0  0  0  0  0  0  0  0  0  0
   22.3211  -10.4486    0.0000 O   0  0  0  0  0  0  0  0  0  0  0  0
   21.3428   -9.4050    0.0000 O   0  0  0  0  0  0  0  0  0  0  0  0
   20.7412   -9.9710    0.0000 C   0  0  0  0  0  0  0  0  0  0  0  0
  2  1  2  0
  3  2  1  0
  4  3  2  0
  5  4  1  0
  6  5  2  0
  1  6  1  0
  4  7  1  0
  7  8  1  0
  8  9  2  0
  9 10  1  0
  3 10  1  0
 10 11  2  0
  9 12  1  0
 12 13  1  0
 13 14  1  0
 15 14  2  0
 16 15  1  0
 17 16  2  0
 18 17  1  0
 19 18  2  0
 14 19  1  0
 18 20  1  0
 20 21  1  0
 21 22  1  0
 20 23  2  0
 24  8  1  0
 25 24  2  0
 26 25  1  0
 27 26  2  0
 28 27  1  0
 29 28  2  0
 24 29  1  0
 27 30  1  0
 30 31  1  0
 31 32  1  0
 32 33  1  0
 33 34  1  0
 34 35  1  0
 35 36  1  0
 37 36  1  0
 37 38  2  0
 38 39  1  0
 39 40  2  0
 40 36  1  0
 38 41  1  0
 41 42  1  0
 42 43  1  0
 43 44  1  0
 44 45  1  0
 45 46  2  0
 46 47  1  0
 47 48  1  0
 48 44  2  0
 47 49  1  0
 49 50  1  0
 50 51  1  0
 51 52  1  0
 52 53  1  0
 53 54  1  0
 54 55  1  0
 56 55  2  0
 57 56  1  0
 58 57  2  0
 59 58  1  0
 60 59  2  0
 55 60  1  0
 61 58  1  0
 61 62  2  0
 63 62  1  0
 64 63  1  0
 65 64  2  0
 66 65  1  0
 61 66  1  0
 65 67  1  0
 67 68  2  0
 68 69  1  0
 69 70  2  0
 64 70  1  0
 63 71  2  0
 62 72  1  0
 72 73  1  0
 73 74  1  0
 75 74  2  0
 76 75  1  0
 77 76  2  0
 78 77  1  0
 79 78  2  0
 74 79  1  0
 76 80  1  0
 80 81  2  0
 80 82  1  0
 82 83  1  0
M  END
>  <Classification>  (785) 
1

>  <pchembl>  (785) 
7.7

>  <InChI_steorem>  (785) 
InChI=1S/C62H56N6O15/c1-73-61(71)45-11-7-9-41(33-45)37-80-59-55(69)51-13-3-5-15-53(51)82-57(59)43-17-21-49(22-18-43)78-31-29-75-27-25-67-35-47(63-65-67)39-77-40-48-36-68(66-64-48)26-28-76-30-32-79-50-23-19-44(20-24-50)58-60(56(70)52-14-4-6-16-54(52)83-58)81-38-42-10-8-12-46(34-42)62(72)74-2/h3-24,33-36H,25-32,37-40H2,1-2H3

>  <source>  (785) 
ChEMBL28

>  <source_id>  (785) 
28

>  <optional_reference>  (785) 
10.1021/acs.jmedchem.9b00963

>  <optional_origin>  (785) 
None

>  <target>  (785) 
BCRP

$$$$

     RDKit          2D

 86 96  0  0  0  0  0  0  0  0999 V2000
    5.5188  -11.6311    0.0000 C   0  0  0  0  0  0  0  0  0  0  0  0
    6.2309  -11.2197    0.0000 C   0  0  0  0  0  0  0  0  0  0  0  0
    6.9351  -11.6305    0.0000 C   0  0  0  0  0  0  0  0  0  0  0  0
    6.9351  -12.4500    0.0000 C   0  0  0  0  0  0  0  0  0  0  0  0
    6.2293  -12.8565    0.0000 C   0  0  0  0  0  0  0  0  0  0  0  0
    5.5188  -12.4511    0.0000 C   0  0  0  0  0  0  0  0  0  0  0  0
    7.6473  -12.8577    0.0000 O   0  0  0  0  0  0  0  0  0  0  0  0
    8.3554  -12.4500    0.0000 C   0  0  0  0  0  0  0  0  0  0  0  0
    8.3554  -11.6306    0.0000 C   0  0  0  0  0  0  0  0  0  0  0  0
    7.6473  -11.2188    0.0000 C   0  0  0  0  0  0  0  0  0  0  0  0
    7.6473  -10.4034    0.0000 O   0  0  0  0  0  0  0  0  0  0  0  0
    9.0634  -11.2188    0.0000 O   0  0  0  0  0  0  0  0  0  0  0  0
    9.7715  -11.6306    0.0000 C   0  0  0  0  0  0  0  0  0  0  0  0
   10.4796  -11.2188    0.0000 C   0  0  0  0  0  0  0  0  0  0  0  0
   10.4799  -10.4034    0.0000 C   0  0  0  0  0  0  0  0  0  0  0  0
   11.1896   -9.9943    0.0000 C   0  0  0  0  0  0  0  0  0  0  0  0
   11.8980  -10.4021    0.0000 C   0  0  0  0  0  0  0  0  0  0  0  0
   11.9002  -11.2199    0.0000 C   0  0  0  0  0  0  0  0  0  0  0  0
   11.1920  -11.6331    0.0000 C   0  0  0  0  0  0  0  0  0  0  0  0
   12.6083  -11.6276    0.0000 C   0  0  0  0  0  0  0  0  0  0  0  0
   13.3163  -11.2199    0.0000 O   0  0  0  0  0  0  0  0  0  0  0  0
   14.0244  -11.6276    0.0000 C   0  0  0  0  0  0  0  0  0  0  0  0
   12.6083  -12.4470    0.0000 O   0  0  0  0  0  0  0  0  0  0  0  0
    9.0634  -12.8577    0.0000 C   0  0  0  0  0  0  0  0  0  0  0  0
    9.7717  -12.4503    0.0000 C   0  0  0  0  0  0  0  0  0  0  0  0
   10.4803  -12.8571    0.0000 C   0  0  0  0  0  0  0  0  0  0  0  0
   10.4803  -13.6769    0.0000 C   0  0  0  0  0  0  0  0  0  0  0  0
    9.7743  -14.0836    0.0000 C   0  0  0  0  0  0  0  0  0  0  0  0
    9.0634  -13.6822    0.0000 C   0  0  0  0  0  0  0  0  0  0  0  0
   11.1884  -14.0846    0.0000 O   0  0  0  0  0  0  0  0  0  0  0  0
   11.8965  -13.6769    0.0000 C   0  0  0  0  0  0  0  0  0  0  0  0
   12.6087  -14.0846    0.0000 C   0  0  0  0  0  0  0  0  0  0  0  0
   13.3167  -13.6769    0.0000 O   0  0  0  0  0  0  0  0  0  0  0  0
   14.0248  -14.0846    0.0000 C   0  0  0  0  0  0  0  0  0  0  0  0
   14.7329  -13.6769    0.0000 C   0  0  0  0  0  0  0  0  0  0  0  0
   15.4410  -14.0846    0.0000 N   0  0  0  0  0  0  0  0  0  0  0  0
   16.1876  -13.7533    0.0000 C   0  0  0  0  0  0  0  0  0  0  0  0
   16.7392  -14.3625    0.0000 C   0  0  0  0  0  0  0  0  0  0  0  0
   16.3277  -15.0701    0.0000 N   0  0  0  0  0  0  0  0  0  0  0  0
   15.5302  -14.9012    0.0000 N   0  0  0  0  0  0  0  0  0  0  0  0
   17.5545  -14.3625    0.0000 C   0  0  0  0  0  0  0  0  0  0  0  0
   17.9666  -13.6546    0.0000 C   0  0  0  0  0  0  0  0  0  0  0  0
   18.7826  -13.6557    0.0000 C   0  0  0  0  0  0  0  0  0  0  0  0
   19.1904  -14.3640    0.0000 C   0  0  0  0  0  0  0  0  0  0  0  0
   18.7835  -15.0682    0.0000 C   0  0  0  0  0  0  0  0  0  0  0  0
   17.9688  -15.0750    0.0000 C   0  0  0  0  0  0  0  0  0  0  0  0
   19.1902  -12.9435    0.0000 C   0  0  0  0  0  0  0  0  0  0  0  0
   18.8589  -12.1969    0.0000 N   0  0  0  0  0  0  0  0  0  0  0  0
   19.4682  -11.6493    0.0000 N   0  0  0  0  0  0  0  0  0  0  0  0
   20.1758  -12.0567    0.0000 N   0  0  0  0  0  0  0  0  0  0  0  0
   20.0068  -12.8584    0.0000 C   0  0  0  0  0  0  0  0  0  0  0  0
   20.8838  -11.6491    0.0000 C   0  0  0  0  0  0  0  0  0  0  0  0
   21.5960  -12.0567    0.0000 C   0  0  0  0  0  0  0  0  0  0  0  0
   22.3041  -11.6491    0.0000 O   0  0  0  0  0  0  0  0  0  0  0  0
   23.0122  -12.0567    0.0000 C   0  0  0  0  0  0  0  0  0  0  0  0
   23.7203  -11.6491    0.0000 C   0  0  0  0  0  0  0  0  0  0  0  0
   24.4324  -12.0567    0.0000 O   0  0  0  0  0  0  0  0  0  0  0  0
   25.1405  -11.6491    0.0000 C   0  0  0  0  0  0  0  0  0  0  0  0
   25.1409  -10.8295    0.0000 C   0  0  0  0  0  0  0  0  0  0  0  0
   25.8464  -10.4246    0.0000 C   0  0  0  0  0  0  0  0  0  0  0  0
   26.5548  -10.8324    0.0000 C   0  0  0  0  0  0  0  0  0  0  0  0
   26.5570  -11.6461    0.0000 C   0  0  0  0  0  0  0  0  0  0  0  0
   25.8529  -12.0592    0.0000 C   0  0  0  0  0  0  0  0  0  0  0  0
   27.2670  -10.4247    0.0000 C   0  0  0  0  0  0  0  0  0  0  0  0
   27.2670   -9.6053    0.0000 C   0  0  0  0  0  0  0  0  0  0  0  0
   27.9750   -9.1935    0.0000 C   0  0  0  0  0  0  0  0  0  0  0  0
   28.6831   -9.6053    0.0000 C   0  0  0  0  0  0  0  0  0  0  0  0
   28.6831  -10.4248    0.0000 C   0  0  0  0  0  0  0  0  0  0  0  0
   27.9750  -10.8324    0.0000 O   0  0  0  0  0  0  0  0  0  0  0  0
   29.3956  -10.8346    0.0000 C   0  0  0  0  0  0  0  0  0  0  0  0
   30.1036  -10.4211    0.0000 C   0  0  0  0  0  0  0  0  0  0  0  0
   30.1010   -9.6076    0.0000 C   0  0  0  0  0  0  0  0  0  0  0  0
   29.3925   -9.1960    0.0000 C   0  0  0  0  0  0  0  0  0  0  0  0
   27.9750   -8.3782    0.0000 O   0  0  0  0  0  0  0  0  0  0  0  0
   26.5548   -9.1935    0.0000 O   0  0  0  0  0  0  0  0  0  0  0  0
   25.8467   -9.6053    0.0000 C   0  0  0  0  0  0  0  0  0  0  0  0
   25.1386   -9.1935    0.0000 C   0  0  0  0  0  0  0  0  0  0  0  0
   24.4303   -9.6051    0.0000 C   0  0  0  0  0  0  0  0  0  0  0  0
   23.7217   -9.1941    0.0000 C   0  0  0  0  0  0  0  0  0  0  0  0
   23.7217   -8.3743    0.0000 C   0  0  0  0  0  0  0  0  0  0  0  0
   24.4278   -7.9676    0.0000 C   0  0  0  0  0  0  0  0  0  0  0  0
   25.1386   -8.3732    0.0000 C   0  0  0  0  0  0  0  0  0  0  0  0
   23.0137   -9.6059    0.0000 C   0  0  0  0  0  0  0  0  0  0  0  0
   23.0137  -10.4253    0.0000 O   0  0  0  0  0  0  0  0  0  0  0  0
   22.3056   -9.1941    0.0000 O   0  0  0  0  0  0  0  0  0  0  0  0
   21.5975   -9.6059    0.0000 C   0  0  0  0  0  0  0  0  0  0  0  0
  2  1  2  0
  3  2  1  0
  4  3  2  0
  5  4  1  0
  6  5  2  0
  1  6  1  0
  4  7  1  0
  7  8  1  0
  8  9  2  0
  9 10  1  0
  3 10  1  0
 10 11  2  0
  9 12  1  0
 12 13  1  0
 13 14  1  0
 15 14  2  0
 16 15  1  0
 17 16  2  0
 18 17  1  0
 19 18  2  0
 14 19  1  0
 18 20  1  0
 20 21  1  0
 21 22  1  0
 20 23  2  0
 24  8  1  0
 25 24  2  0
 26 25  1  0
 27 26  2  0
 28 27  1  0
 29 28  2  0
 24 29  1  0
 27 30  1  0
 30 31  1  0
 31 32  1  0
 32 33  1  0
 33 34  1  0
 34 35  1  0
 35 36  1  0
 37 36  1  0
 37 38  2  0
 38 39  1  0
 39 40  2  0
 40 36  1  0
 38 41  1  0
 42 41  2  0
 43 42  1  0
 44 43  2  0
 45 44  1  0
 46 45  2  0
 41 46  1  0
 47 43  1  0
 47 48  1  0
 48 49  2  0
 49 50  1  0
 50 51  1  0
 51 47  2  0
 50 52  1  0
 52 53  1  0
 53 54  1  0
 54 55  1  0
 55 56  1  0
 56 57  1  0
 57 58  1  0
 59 58  2  0
 60 59  1  0
 61 60  2  0
 62 61  1  0
 63 62  2  0
 58 63  1  0
 64 61  1  0
 64 65  2  0
 66 65  1  0
 67 66  1  0
 68 67  2  0
 69 68  1  0
 64 69  1  0
 68 70  1  0
 70 71  2  0
 71 72  1  0
 72 73  2  0
 67 73  1  0
 66 74  2  0
 65 75  1  0
 75 76  1  0
 76 77  1  0
 78 77  2  0
 79 78  1  0
 80 79  2  0
 81 80  1  0
 82 81  2  0
 77 82  1  0
 79 83  1  0
 83 84  2  0
 83 85  1  0
 85 86  1  0
M  END
>  <Classification>  (786) 
1

>  <pchembl>  (786) 
7.61

>  <InChI_steorem>  (786) 
InChI=1S/C66H56N6O14/c1-77-65(75)49-14-7-10-43(36-49)41-83-63-59(73)53-16-3-5-18-57(53)85-61(63)45-20-24-51(25-21-45)81-34-32-79-30-28-71-39-55(67-69-71)47-12-9-13-48(38-47)56-40-72(70-68-56)29-31-80-33-35-82-52-26-22-46(23-27-52)62-64(60(74)54-17-4-6-19-58(54)86-62)84-42-44-11-8-15-50(37-44)66(76)78-2/h3-27,36-40H,28-35,41-42H2,1-2H3

>  <source>  (786) 
ChEMBL28

>  <source_id>  (786) 
28

>  <optional_reference>  (786) 
10.1021/acs.jmedchem.9b00963

>  <optional_origin>  (786) 
None

>  <target>  (786) 
BCRP

$$$$

     RDKit          2D

 90100  0  0  0  0  0  0  0  0999 V2000
    5.3635   -8.3982    0.0000 C   0  0  0  0  0  0  0  0  0  0  0  0
    6.0766   -7.9879    0.0000 C   0  0  0  0  0  0  0  0  0  0  0  0
    6.7901   -8.3976    0.0000 C   0  0  0  0  0  0  0  0  0  0  0  0
    6.7901   -9.2229    0.0000 C   0  0  0  0  0  0  0  0  0  0  0  0
    6.0791   -9.6325    0.0000 C   0  0  0  0  0  0  0  0  0  0  0  0
    5.3635   -9.2283    0.0000 C   0  0  0  0  0  0  0  0  0  0  0  0
    7.5033   -9.6336    0.0000 O   0  0  0  0  0  0  0  0  0  0  0  0
    8.2166   -9.2230    0.0000 C   0  0  0  0  0  0  0  0  0  0  0  0
    8.2166   -8.3976    0.0000 C   0  0  0  0  0  0  0  0  0  0  0  0
    7.5033   -7.9870    0.0000 C   0  0  0  0  0  0  0  0  0  0  0  0
    7.5033   -7.1642    0.0000 O   0  0  0  0  0  0  0  0  0  0  0  0
    8.9297   -7.9870    0.0000 O   0  0  0  0  0  0  0  0  0  0  0  0
    8.9297   -7.1642    0.0000 C   0  0  0  0  0  0  0  0  0  0  0  0
    9.6471   -6.7476    0.0000 C   0  0  0  0  0  0  0  0  0  0  0  0
    9.6475   -5.9267    0.0000 C   0  0  0  0  0  0  0  0  0  0  0  0
   10.3581   -5.5198    0.0000 C   0  0  0  0  0  0  0  0  0  0  0  0
   11.0716   -5.9322    0.0000 C   0  0  0  0  0  0  0  0  0  0  0  0
   11.0739   -6.7506    0.0000 C   0  0  0  0  0  0  0  0  0  0  0  0
   10.3605   -7.1658    0.0000 C   0  0  0  0  0  0  0  0  0  0  0  0
   11.7871   -7.1589    0.0000 C   0  0  0  0  0  0  0  0  0  0  0  0
   12.5045   -6.7506    0.0000 O   0  0  0  0  0  0  0  0  0  0  0  0
   13.2177   -7.1589    0.0000 C   0  0  0  0  0  0  0  0  0  0  0  0
   11.7871   -7.9840    0.0000 O   0  0  0  0  0  0  0  0  0  0  0  0
    8.9297   -9.6337    0.0000 C   0  0  0  0  0  0  0  0  0  0  0  0
    9.6474   -9.2232    0.0000 C   0  0  0  0  0  0  0  0  0  0  0  0
   10.3569   -9.6331    0.0000 C   0  0  0  0  0  0  0  0  0  0  0  0
   10.3569  -10.4588    0.0000 C   0  0  0  0  0  0  0  0  0  0  0  0
    9.6458  -10.8726    0.0000 C   0  0  0  0  0  0  0  0  0  0  0  0
    8.9297  -10.4641    0.0000 C   0  0  0  0  0  0  0  0  0  0  0  0
   11.0701  -10.8736    0.0000 O   0  0  0  0  0  0  0  0  0  0  0  0
   11.7875  -10.4588    0.0000 C   0  0  0  0  0  0  0  0  0  0  0  0
   12.5008  -10.8736    0.0000 C   0  0  0  0  0  0  0  0  0  0  0  0
   13.2139  -10.4588    0.0000 O   0  0  0  0  0  0  0  0  0  0  0  0
   13.9271  -10.8736    0.0000 C   0  0  0  0  0  0  0  0  0  0  0  0
   14.6445  -10.4588    0.0000 C   0  0  0  0  0  0  0  0  0  0  0  0
   15.3578  -10.8736    0.0000 N   0  0  0  0  0  0  0  0  0  0  0  0
   16.1098  -10.5357    0.0000 N   0  0  0  0  0  0  0  0  0  0  0  0
   16.6613  -11.1494    0.0000 N   0  0  0  0  0  0  0  0  0  0  0  0
   16.2509  -11.8621    0.0000 C   0  0  0  0  0  0  0  0  0  0  0  0
   15.4435  -11.6919    0.0000 C   0  0  0  0  0  0  0  0  0  0  0  0
   16.6616  -12.5795    0.0000 C   0  0  0  0  0  0  0  0  0  0  0  0
   17.4869  -12.5795    0.0000 N   0  0  0  0  0  0  0  0  0  0  0  0
   17.8976  -13.2928    0.0000 C   0  0  0  0  0  0  0  0  0  0  0  0
   18.7230  -13.2928    0.0000 C   0  0  0  0  0  0  0  0  0  0  0  0
   19.2076  -12.6222    0.0000 N   0  0  0  0  0  0  0  0  0  0  0  0
   19.9915  -12.8782    0.0000 N   0  0  0  0  0  0  0  0  0  0  0  0
   19.9915  -13.7030    0.0000 N   0  0  0  0  0  0  0  0  0  0  0  0
   19.2076  -13.9591    0.0000 C   0  0  0  0  0  0  0  0  0  0  0  0
   20.7047  -14.1178    0.0000 C   0  0  0  0  0  0  0  0  0  0  0  0
   21.4221  -13.7030    0.0000 C   0  0  0  0  0  0  0  0  0  0  0  0
   22.1352  -14.1178    0.0000 O   0  0  0  0  0  0  0  0  0  0  0  0
   22.8485  -13.7030    0.0000 C   0  0  0  0  0  0  0  0  0  0  0  0
   23.5617  -14.1178    0.0000 C   0  0  0  0  0  0  0  0  0  0  0  0
   24.2791  -13.7030    0.0000 O   0  0  0  0  0  0  0  0  0  0  0  0
   24.9923  -14.1178    0.0000 C   0  0  0  0  0  0  0  0  0  0  0  0
   25.7058  -13.7033    0.0000 C   0  0  0  0  0  0  0  0  0  0  0  0
   26.4153  -14.1173    0.0000 C   0  0  0  0  0  0  0  0  0  0  0  0
   26.4153  -14.9388    0.0000 C   0  0  0  0  0  0  0  0  0  0  0  0
   25.7083  -15.3527    0.0000 C   0  0  0  0  0  0  0  0  0  0  0  0
   24.9923  -14.9442    0.0000 C   0  0  0  0  0  0  0  0  0  0  0  0
   27.1327  -15.3536    0.0000 C   0  0  0  0  0  0  0  0  0  0  0  0
   27.8459  -14.9388    0.0000 C   0  0  0  0  0  0  0  0  0  0  0  0
   28.5591  -15.3536    0.0000 C   0  0  0  0  0  0  0  0  0  0  0  0
   28.5591  -16.1791    0.0000 C   0  0  0  0  0  0  0  0  0  0  0  0
   27.8459  -16.5896    0.0000 C   0  0  0  0  0  0  0  0  0  0  0  0
   27.1327  -16.1791    0.0000 O   0  0  0  0  0  0  0  0  0  0  0  0
   27.8462  -17.4200    0.0000 C   0  0  0  0  0  0  0  0  0  0  0  0
   28.5624  -17.8240    0.0000 C   0  0  0  0  0  0  0  0  0  0  0  0
   29.2733  -17.4142    0.0000 C   0  0  0  0  0  0  0  0  0  0  0  0
   29.2729  -16.5885    0.0000 C   0  0  0  0  0  0  0  0  0  0  0  0
   29.2764  -14.9388    0.0000 O   0  0  0  0  0  0  0  0  0  0  0  0
   27.8459  -14.1176    0.0000 O   0  0  0  0  0  0  0  0  0  0  0  0
   28.5591  -13.7028    0.0000 C   0  0  0  0  0  0  0  0  0  0  0  0
   28.5591  -12.8774    0.0000 C   0  0  0  0  0  0  0  0  0  0  0  0
   27.8460  -12.4665    0.0000 C   0  0  0  0  0  0  0  0  0  0  0  0
   27.8471  -11.6446    0.0000 C   0  0  0  0  0  0  0  0  0  0  0  0
   28.5606  -11.2297    0.0000 C   0  0  0  0  0  0  0  0  0  0  0  0
   29.2740  -11.6395    0.0000 C   0  0  0  0  0  0  0  0  0  0  0  0
   29.2767  -12.4643    0.0000 C   0  0  0  0  0  0  0  0  0  0  0  0
   27.1339  -11.2298    0.0000 C   0  0  0  0  0  0  0  0  0  0  0  0
   26.4165  -11.6446    0.0000 O   0  0  0  0  0  0  0  0  0  0  0  0
   27.1339  -10.4086    0.0000 O   0  0  0  0  0  0  0  0  0  0  0  0
   26.4165   -9.9938    0.0000 C   0  0  0  0  0  0  0  0  0  0  0  0
   17.8976  -11.8621    0.0000 C   0  0  0  0  0  0  0  0  0  0  0  0
   17.6839  -11.0644    0.0000 C   0  0  0  0  0  0  0  0  0  0  0  0
   16.8904  -10.8505    0.0000 C   0  0  0  0  0  0  0  0  0  0  0  0
   16.6746  -10.0601    0.0000 C   0  0  0  0  0  0  0  0  0  0  0  0
   17.2589   -9.4757    0.0000 C   0  0  0  0  0  0  0  0  0  0  0  0
   18.0516   -9.6857    0.0000 C   0  0  0  0  0  0  0  0  0  0  0  0
   18.2716  -10.4809    0.0000 C   0  0  0  0  0  0  0  0  0  0  0  0
  2  1  2  0
  3  2  1  0
  4  3  2  0
  5  4  1  0
  6  5  2  0
  1  6  1  0
  4  7  1  0
  7  8  1  0
  8  9  2  0
  9 10  1  0
  3 10  1  0
 10 11  2  0
  9 12  1  0
 12 13  1  0
 13 14  1  0
 15 14  2  0
 16 15  1  0
 17 16  2  0
 18 17  1  0
 19 18  2  0
 14 19  1  0
 18 20  1  0
 20 21  1  0
 21 22  1  0
 20 23  2  0
 24  8  1  0
 25 24  2  0
 26 25  1  0
 27 26  2  0
 28 27  1  0
 29 28  2  0
 24 29  1  0
 27 30  1  0
 30 31  1  0
 31 32  1  0
 32 33  1  0
 33 34  1  0
 34 35  1  0
 35 36  1  0
 37 36  1  0
 37 38  2  0
 38 39  1  0
 39 40  2  0
 40 36  1  0
 39 41  1  0
 41 42  1  0
 42 43  1  0
 43 44  1  0
 45 44  1  0
 45 46  2  0
 46 47  1  0
 47 48  1  0
 48 44  2  0
 47 49  1  0
 49 50  1  0
 50 51  1  0
 51 52  1  0
 52 53  1  0
 53 54  1  0
 54 55  1  0
 56 55  2  0
 57 56  1  0
 58 57  2  0
 59 58  1  0
 60 59  2  0
 55 60  1  0
 61 58  1  0
 61 62  2  0
 63 62  1  0
 64 63  1  0
 65 64  2  0
 66 65  1  0
 61 66  1  0
 65 67  1  0
 67 68  2  0
 68 69  1  0
 69 70  2  0
 64 70  1  0
 63 71  2  0
 62 72  1  0
 72 73  1  0
 73 74  1  0
 75 74  2  0
 76 75  1  0
 77 76  2  0
 78 77  1  0
 79 78  2  0
 74 79  1  0
 76 80  1  0
 80 81  2  0
 80 82  1  0
 82 83  1  0
 42 84  1  0
 84 85  1  0
 86 85  2  0
 87 86  1  0
 88 87  2  0
 89 88  1  0
 90 89  2  0
 85 90  1  0
M  END
>  <Classification>  (787) 
1

>  <pchembl>  (787) 
7.84

>  <InChI_steorem>  (787) 
InChI=1S/C69H63N7O14/c1-81-68(79)52-16-10-14-48(38-52)45-87-66-62(77)58-18-6-8-20-60(58)89-64(66)50-22-26-56(27-23-50)85-36-34-83-32-30-75-43-54(70-72-75)41-74(40-47-12-4-3-5-13-47)42-55-44-76(73-71-55)31-33-84-35-37-86-57-28-24-51(25-29-57)65-67(63(78)59-19-7-9-21-61(59)90-65)88-46-49-15-11-17-53(39-49)69(80)82-2/h3-29,38-39,43-44H,30-37,40-42,45-46H2,1-2H3

>  <source>  (787) 
ChEMBL28

>  <source_id>  (787) 
28

>  <optional_reference>  (787) 
10.1021/acs.jmedchem.9b00963

>  <optional_origin>  (787) 
None

>  <target>  (787) 
BCRP

$$$$

     RDKit          2D

 25 26  0  0  0  0  0  0  0  0999 V2000
    7.2375   -5.8917    0.0000 C   0  0  0  0  0  0  0  0  0  0  0  0
    8.0625   -5.8958    0.0000 C   0  0  0  0  0  0  0  0  0  0  0  0
    7.6536   -5.1793    0.0000 C   0  0  0  0  0  0  0  0  0  0  0  0
    3.7902   -8.3750    0.0000 C   0  0  0  0  0  0  0  0  0  0  0  0
    3.7891   -9.2023    0.0000 C   0  0  0  0  0  0  0  0  0  0  0  0
    4.5039   -9.6152    0.0000 C   0  0  0  0  0  0  0  0  0  0  0  0
    5.2203   -9.2019    0.0000 C   0  0  0  0  0  0  0  0  0  0  0  0
    5.2175   -8.3713    0.0000 C   0  0  0  0  0  0  0  0  0  0  0  0
    4.5021   -7.9622    0.0000 C   0  0  0  0  0  0  0  0  0  0  0  0
    3.0757   -7.9626    0.0000 O   0  0  0  0  0  0  0  0  0  0  0  0
    5.9355   -9.6132    0.0000 C   0  0  0  0  0  0  0  0  0  0  0  0
    5.9367  -10.4382    0.0000 O   0  0  0  0  0  0  0  0  0  0  0  0
    6.6493   -9.1996    0.0000 C   0  0  0  0  0  0  0  0  0  0  0  0
    6.6480   -8.3746    0.0000 C   0  0  0  0  0  0  0  0  0  0  0  0
    7.3618   -7.9610    0.0000 C   0  0  0  0  0  0  0  0  0  0  0  0
    8.0745   -8.3734    0.0000 C   0  0  0  0  0  0  0  0  0  0  0  0
    8.7878   -7.9605    0.0000 C   0  0  0  0  0  0  0  0  0  0  0  0
    8.7870   -7.1346    0.0000 C   0  0  0  0  0  0  0  0  0  0  0  0
    8.0669   -6.7234    0.0000 C   0  0  0  0  0  0  0  0  0  0  0  0
    7.3565   -7.1387    0.0000 C   0  0  0  0  0  0  0  0  0  0  0  0
    9.5003   -6.7200    0.0000 O   0  0  0  0  0  0  0  0  0  0  0  0
    8.0746   -9.1984    0.0000 O   0  0  0  0  0  0  0  0  0  0  0  0
    8.7891   -9.6108    0.0000 C   0  0  0  0  0  0  0  0  0  0  0  0
    8.7750   -5.4822    0.0000 C   0  0  0  0  0  0  0  0  0  0  0  0
    9.4916   -5.8911    0.0000 C   0  0  0  0  0  0  0  0  0  0  0  0
 11 13  1  0
  2  1  1  0
 13 14  2  3
  7  8  1  0
 14 15  1  0
  4  5  2  0
 15 16  2  0
  8  9  2  0
 16 17  1  0
  9  4  1  0
 17 18  2  0
  3  2  1  0
 18 19  1  0
  4 10  1  0
 19 20  2  0
 20 15  1  0
  5  6  1  0
 18 21  1  0
  7 11  1  0
 16 22  1  0
 22 23  1  0
 19  2  1  0
 11 12  2  0
  2 24  1  0
  6  7  2  0
 24 25  2  0
M  END
>  <Classification>  (788) 
1

>  <pchembl>  (788) 
6.88

>  <InChI_steorem>  (788) 
InChI=1S/C21H22O4/c1-5-21(2,3)17-12-15(20(25-4)13-19(17)24)8-11-18(23)14-6-9-16(22)10-7-14/h5-13,22,24H,1H2,2-4H3

>  <source>  (788) 
ChEMBL29

>  <source_id>  (788) 
29

>  <optional_reference>  (788) 
10.1021/acs.jnatprod.9b01022

>  <optional_origin>  (788) 
None

>  <target>  (788) 
BCRP

$$$$

     RDKit          2D

 34 37  0  0  0  0  0  0  0  0999 V2000
   25.2679   -9.4287    0.0000 N   0  0  0  0  0  0  0  0  0  0  0  0
   24.6014   -8.9440    0.0000 C   0  0  0  0  0  0  0  0  0  0  0  0
   24.8533   -8.1599    0.0000 C   0  0  0  0  0  0  0  0  0  0  0  0
   25.6783   -8.1599    0.0000 C   0  0  0  0  0  0  0  0  0  0  0  0
   25.9343   -8.9440    0.0000 C   0  0  0  0  0  0  0  0  0  0  0  0
   26.7420   -9.1142    0.0000 C   0  0  0  0  0  0  0  0  0  0  0  0
   27.2936   -8.5004    0.0000 N   0  0  0  0  0  0  0  0  0  0  0  0
   27.0376   -7.7163    0.0000 C   0  0  0  0  0  0  0  0  0  0  0  0
   26.2300   -7.5461    0.0000 C   0  0  0  0  0  0  0  0  0  0  0  0
   27.5893   -7.1025    0.0000 C   0  0  0  0  0  0  0  0  0  0  0  0
   28.3969   -7.2769    0.0000 N   0  0  0  0  0  0  0  0  0  0  0  0
   28.6531   -8.0610    0.0000 C   0  0  0  0  0  0  0  0  0  0  0  0
   28.0972   -8.6706    0.0000 C   0  0  0  0  0  0  0  0  0  0  0  0
   28.3150   -9.4682    0.0000 O   0  0  0  0  0  0  0  0  0  0  0  0
   29.4464   -8.2746    0.0000 C   0  0  0  0  0  0  0  0  0  0  0  0
   30.0303   -7.6906    0.0000 C   0  0  0  0  0  0  0  0  0  0  0  0
   30.8279   -7.9042    0.0000 O   0  0  0  0  0  0  0  0  0  0  0  0
   31.4119   -7.3202    0.0000 C   0  0  0  0  0  0  0  0  0  0  0  0
   32.2094   -7.5338    0.0000 C   0  0  0  0  0  0  0  0  0  0  0  0
   32.7892   -6.9499    0.0000 C   0  0  0  0  0  0  0  0  0  0  0  0
   32.4230   -8.3313    0.0000 C   0  0  0  0  0  0  0  0  0  0  0  0
   33.0028   -7.7473    0.0000 C   0  0  0  0  0  0  0  0  0  0  0  0
   31.1983   -6.5227    0.0000 O   0  0  0  0  0  0  0  0  0  0  0  0
   27.3757   -6.3091    0.0000 O   0  0  0  0  0  0  0  0  0  0  0  0
   26.9556   -9.9118    0.0000 C   0  0  0  0  0  0  0  0  0  0  0  0
   26.3717  -10.4916    0.0000 C   0  0  0  0  0  0  0  0  0  0  0  0
   26.5853  -11.2890    0.0000 C   0  0  0  0  0  0  0  0  0  0  0  0
   25.5741  -10.2821    0.0000 C   0  0  0  0  0  0  0  0  0  0  0  0
   24.3022   -7.5425    0.0000 C   0  0  0  0  0  0  0  0  0  0  0  0
   23.4968   -7.7196    0.0000 C   0  0  0  0  0  0  0  0  0  0  0  0
   23.2450   -8.4989    0.0000 C   0  0  0  0  0  0  0  0  0  0  0  0
   23.7971   -9.1127    0.0000 C   0  0  0  0  0  0  0  0  0  0  0  0
   22.4476   -8.7124    0.0000 O   0  0  0  0  0  0  0  0  0  0  0  0
   22.2340   -9.5100    0.0000 C   0  0  0  0  0  0  0  0  0  0  0  0
  1  2  1  0
  2  3  2  0
  3  4  1  0
  4  5  2  0
  5  1  1  0
  5  6  1  0
  6  7  1  0
  7  8  1  0
  8  9  1  0
  4  9  1  0
  8 10  1  0
 11 10  1  0
 12 11  1  0
 13 12  1  0
  7 13  1  0
 13 14  2  0
 12 15  1  0
 15 16  1  0
 16 17  1  0
 17 18  1  0
 18 19  1  0
 19 20  1  0
 19 21  1  0
 19 22  1  0
 18 23  2  0
 10 24  2  0
  6 25  1  0
 25 26  1  0
 26 27  1  0
 26 28  1  0
  3 29  1  0
 29 30  2  0
 30 31  1  0
 31 32  2  0
  2 32  1  0
 31 33  1  0
 33 34  1  0
M  END
>  <Classification>  (789) 
1

>  <pchembl>  (789) 
7.32

>  <InChI_steorem>  (789) 
InChI=1S/C26H35N3O5/c1-14(2)11-20-22-17(16-8-7-15(33-6)12-19(16)27-22)13-21-23(30)28-18(24(31)29(20)21)9-10-34-25(32)26(3,4)5/h7-8,12,14,18,20-21,27H,9-11,13H2,1-6H3,(H,28,30)

>  <source>  (789) 
ChEMBL29

>  <source_id>  (789) 
29

>  <optional_reference>  (789) 
10.1021/acs.jnatprod.9b01022

>  <optional_origin>  (789) 
None

>  <target>  (789) 
BCRP

$$$$

     RDKit          2D

 21 23  0  0  0  0  0  0  0  0999 V2000
   16.0115  -20.8010    0.0000 C   0  0  0  0  0  0  0  0  0  0  0  0
   15.2968  -20.4022    0.0000 C   0  0  0  0  0  0  0  0  0  0  0  0
   14.5955  -20.8216    0.0000 C   0  0  0  0  0  0  0  0  0  0  0  0
   14.6088  -21.6399    0.0000 C   0  0  0  0  0  0  0  0  0  0  0  0
   15.3213  -22.0352    0.0000 C   0  0  0  0  0  0  0  0  0  0  0  0
   16.0226  -21.6158    0.0000 C   0  0  0  0  0  0  0  0  0  0  0  0
   13.9074  -22.0594    0.0000 N   0  0  0  0  0  0  0  0  0  0  0  0
   14.5852  -24.1141    0.0000 C   0  0  0  0  0  0  0  0  0  0  0  0
   14.5965  -23.2994    0.0000 N   0  0  0  0  0  0  0  0  0  0  0  0
   13.8953  -22.8798    0.0000 C   0  0  0  0  0  0  0  0  0  0  0  0
   13.1827  -23.2749    0.0000 C   0  0  0  0  0  0  0  0  0  0  0  0
   13.1692  -24.0932    0.0000 C   0  0  0  0  0  0  0  0  0  0  0  0
   13.8705  -24.5128    0.0000 N   0  0  0  0  0  0  0  0  0  0  0  0
   15.2864  -24.5337    0.0000 C   0  0  0  0  0  0  0  0  0  0  0  0
   15.2729  -25.3520    0.0000 C   0  0  0  0  0  0  0  0  0  0  0  0
   15.9742  -25.7716    0.0000 C   0  0  0  0  0  0  0  0  0  0  0  0
   16.6889  -25.3729    0.0000 C   0  0  0  0  0  0  0  0  0  0  0  0
   16.7003  -24.5582    0.0000 C   0  0  0  0  0  0  0  0  0  0  0  0
   15.9990  -24.1386    0.0000 C   0  0  0  0  0  0  0  0  0  0  0  0
   12.4545  -24.4919    0.0000 C   0  0  0  0  0  0  0  0  0  0  0  0
   16.7362  -22.0140    0.0000 Br  0  0  0  0  0  0  0  0  0  0  0  0
  1  2  2  0
  2  3  1  0
  3  4  2  0
  4  5  1  0
  5  6  2  0
  1  6  1  0
  8  9  2  0
  9 10  1  0
 10 11  2  0
 11 12  1  0
 12 13  2  0
  8 13  1  0
 14 15  2  0
 15 16  1  0
 16 17  2  0
 17 18  1  0
 18 19  2  0
 14 19  1  0
  8 14  1  0
 12 20  1  0
  7 10  1  0
  4  7  1  0
  6 21  1  0
M  END
>  <Classification>  (790) 
1

>  <pchembl>  (790) 
6.05

>  <InChI_steorem>  (790) 
InChI=1S/C17H14BrN3/c1-12-10-16(20-15-9-5-8-14(18)11-15)21-17(19-12)13-6-3-2-4-7-13/h2-11H,1H3,(H,19,20,21)

>  <source>  (790) 
ChEMBL30

>  <source_id>  (790) 
30

>  <optional_reference>  (790) 
10.1021/acs.jmedchem.0c00961

>  <optional_origin>  (790) 
None

>  <target>  (790) 
BCRP

$$$$

     RDKit          2D

 21 23  0  0  0  0  0  0  0  0999 V2000
   20.0941   -3.8878    0.0000 C   0  0  0  0  0  0  0  0  0  0  0  0
   20.0929   -4.7073    0.0000 C   0  0  0  0  0  0  0  0  0  0  0  0
   20.8010   -5.1163    0.0000 C   0  0  0  0  0  0  0  0  0  0  0  0
   21.5106   -4.7069    0.0000 C   0  0  0  0  0  0  0  0  0  0  0  0
   21.5078   -3.8842    0.0000 C   0  0  0  0  0  0  0  0  0  0  0  0
   20.7992   -3.4790    0.0000 C   0  0  0  0  0  0  0  0  0  0  0  0
   19.3849   -5.1154    0.0000 N   0  0  0  0  0  0  0  0  0  0  0  0
   19.3842   -5.9326    0.0000 C   0  0  0  0  0  0  0  0  0  0  0  0
   18.6761   -6.3391    0.0000 C   0  0  0  0  0  0  0  0  0  0  0  0
   18.6751   -7.1555    0.0000 C   0  0  0  0  0  0  0  0  0  0  0  0
   19.3830   -7.5655    0.0000 N   0  0  0  0  0  0  0  0  0  0  0  0
   20.0934   -7.1530    0.0000 C   0  0  0  0  0  0  0  0  0  0  0  0
   20.0909   -6.3380    0.0000 N   0  0  0  0  0  0  0  0  0  0  0  0
   20.7998   -7.5569    0.0000 C   0  0  0  0  0  0  0  0  0  0  0  0
   20.8007   -8.3752    0.0000 C   0  0  0  0  0  0  0  0  0  0  0  0
   21.5087   -8.7818    0.0000 C   0  0  0  0  0  0  0  0  0  0  0  0
   22.2163   -8.3712    0.0000 C   0  0  0  0  0  0  0  0  0  0  0  0
   22.2114   -7.5498    0.0000 C   0  0  0  0  0  0  0  0  0  0  0  0
   21.5028   -7.1469    0.0000 C   0  0  0  0  0  0  0  0  0  0  0  0
   22.2117   -3.4718    0.0000 C   0  0  0  0  0  0  0  0  0  0  0  0
   22.9179   -3.0605    0.0000 N   0  0  0  0  0  0  0  0  0  0  0  0
  1  2  2  0
  2  3  1  0
  3  4  2  0
  4  5  1  0
  5  6  2  0
  6  1  1  0
  2  7  1  0
  7  8  1  0
  8  9  2  0
  9 10  1  0
 10 11  2  0
 11 12  1  0
 12 13  2  0
 13  8  1  0
 14 15  2  0
 15 16  1  0
 16 17  2  0
 17 18  1  0
 18 19  2  0
 19 14  1  0
 12 14  1  0
 20 21  3  0
  5 20  1  0
M  END
>  <Classification>  (791) 
1

>  <pchembl>  (791) 
6.56

>  <InChI_steorem>  (791) 
InChI=1S/C17H12N4/c18-12-13-6-8-15(9-7-13)20-16-10-11-19-17(21-16)14-4-2-1-3-5-14/h1-11H,(H,19,20,21)

>  <source>  (791) 
ChEMBL30

>  <source_id>  (791) 
30

>  <optional_reference>  (791) 
10.1016/j.ejmech.2020.113045

>  <optional_origin>  (791) 
None

>  <target>  (791) 
BCRP

$$$$

     RDKit          2D

 21 23  0  0  0  0  0  0  0  0999 V2000
    4.3892  -20.5534    0.0000 C   0  0  0  0  0  0  0  0  0  0  0  0
    3.6746  -20.1546    0.0000 C   0  0  0  0  0  0  0  0  0  0  0  0
    2.9732  -20.5740    0.0000 C   0  0  0  0  0  0  0  0  0  0  0  0
    2.9865  -21.3923    0.0000 C   0  0  0  0  0  0  0  0  0  0  0  0
    3.6990  -21.7876    0.0000 C   0  0  0  0  0  0  0  0  0  0  0  0
    4.4003  -21.3681    0.0000 C   0  0  0  0  0  0  0  0  0  0  0  0
    2.2852  -21.8117    0.0000 N   0  0  0  0  0  0  0  0  0  0  0  0
    2.9629  -23.8665    0.0000 C   0  0  0  0  0  0  0  0  0  0  0  0
    2.9743  -23.0518    0.0000 N   0  0  0  0  0  0  0  0  0  0  0  0
    2.2730  -22.6322    0.0000 C   0  0  0  0  0  0  0  0  0  0  0  0
    1.5604  -23.0273    0.0000 C   0  0  0  0  0  0  0  0  0  0  0  0
    1.5470  -23.8456    0.0000 C   0  0  0  0  0  0  0  0  0  0  0  0
    2.2482  -24.2652    0.0000 N   0  0  0  0  0  0  0  0  0  0  0  0
    3.6641  -24.2861    0.0000 C   0  0  0  0  0  0  0  0  0  0  0  0
    3.6507  -25.1044    0.0000 C   0  0  0  0  0  0  0  0  0  0  0  0
    4.3519  -25.5240    0.0000 C   0  0  0  0  0  0  0  0  0  0  0  0
    5.0666  -25.1253    0.0000 C   0  0  0  0  0  0  0  0  0  0  0  0
    5.0780  -24.3106    0.0000 C   0  0  0  0  0  0  0  0  0  0  0  0
    4.3767  -23.8910    0.0000 C   0  0  0  0  0  0  0  0  0  0  0  0
    0.8322  -24.2442    0.0000 C   0  0  0  0  0  0  0  0  0  0  0  0
    5.1139  -21.7664    0.0000 F   0  0  0  0  0  0  0  0  0  0  0  0
  1  2  2  0
  2  3  1  0
  3  4  2  0
  4  5  1  0
  5  6  2  0
  1  6  1  0
  8  9  2  0
  9 10  1  0
 10 11  2  0
 11 12  1  0
 12 13  2  0
  8 13  1  0
 14 15  2  0
 15 16  1  0
 16 17  2  0
 17 18  1  0
 18 19  2  0
 14 19  1  0
  8 14  1  0
 12 20  1  0
  7 10  1  0
  4  7  1  0
  6 21  1  0
M  END
>  <Classification>  (792) 
1

>  <pchembl>  (792) 
5.96

>  <InChI_steorem>  (792) 
InChI=1S/C17H14FN3/c1-12-10-16(20-15-9-5-8-14(18)11-15)21-17(19-12)13-6-3-2-4-7-13/h2-11H,1H3,(H,19,20,21)

>  <source>  (792) 
ChEMBL30

>  <source_id>  (792) 
30

>  <optional_reference>  (792) 
10.1021/acs.jmedchem.0c00961

>  <optional_origin>  (792) 
None

>  <target>  (792) 
BCRP

$$$$

     RDKit          2D

 21 23  0  0  0  0  0  0  0  0999 V2000
    8.5247  -14.7258    0.0000 C   0  0  0  0  0  0  0  0  0  0  0  0
    7.8100  -14.3269    0.0000 C   0  0  0  0  0  0  0  0  0  0  0  0
    7.1087  -14.7464    0.0000 C   0  0  0  0  0  0  0  0  0  0  0  0
    7.1220  -15.5646    0.0000 C   0  0  0  0  0  0  0  0  0  0  0  0
    7.8345  -15.9599    0.0000 C   0  0  0  0  0  0  0  0  0  0  0  0
    8.5358  -15.5405    0.0000 C   0  0  0  0  0  0  0  0  0  0  0  0
    6.4207  -15.9841    0.0000 N   0  0  0  0  0  0  0  0  0  0  0  0
    7.0984  -18.0389    0.0000 C   0  0  0  0  0  0  0  0  0  0  0  0
    7.1097  -17.2241    0.0000 N   0  0  0  0  0  0  0  0  0  0  0  0
    6.4085  -16.8045    0.0000 C   0  0  0  0  0  0  0  0  0  0  0  0
    5.6959  -17.1996    0.0000 C   0  0  0  0  0  0  0  0  0  0  0  0
    5.6824  -18.0179    0.0000 C   0  0  0  0  0  0  0  0  0  0  0  0
    6.3837  -18.4375    0.0000 N   0  0  0  0  0  0  0  0  0  0  0  0
    7.7996  -18.4585    0.0000 C   0  0  0  0  0  0  0  0  0  0  0  0
    7.7861  -19.2767    0.0000 C   0  0  0  0  0  0  0  0  0  0  0  0
    8.4874  -19.6963    0.0000 C   0  0  0  0  0  0  0  0  0  0  0  0
    9.2021  -19.2977    0.0000 C   0  0  0  0  0  0  0  0  0  0  0  0
    9.2135  -18.4829    0.0000 C   0  0  0  0  0  0  0  0  0  0  0  0
    8.5122  -18.0633    0.0000 C   0  0  0  0  0  0  0  0  0  0  0  0
    4.9677  -18.4166    0.0000 C   0  0  0  0  0  0  0  0  0  0  0  0
    9.2494  -15.9388    0.0000 O   0  0  0  0  0  0  0  0  0  0  0  0
  1  2  2  0
  2  3  1  0
  3  4  2  0
  4  5  1  0
  5  6  2  0
  1  6  1  0
  8  9  2  0
  9 10  1  0
 10 11  2  0
 11 12  1  0
 12 13  2  0
  8 13  1  0
 14 15  2  0
 15 16  1  0
 16 17  2  0
 17 18  1  0
 18 19  2  0
 14 19  1  0
  8 14  1  0
 12 20  1  0
  7 10  1  0
  4  7  1  0
  6 21  1  0
M  END
>  <Classification>  (793) 
1

>  <pchembl>  (793) 
6.6

>  <InChI_steorem>  (793) 
InChI=1S/C17H15N3O/c1-12-10-16(19-14-8-5-9-15(21)11-14)20-17(18-12)13-6-3-2-4-7-13/h2-11,21H,1H3,(H,18,19,20)

>  <source>  (793) 
ChEMBL30

>  <source_id>  (793) 
30

>  <optional_reference>  (793) 
10.1021/acs.jmedchem.0c00961

>  <optional_origin>  (793) 
None

>  <target>  (793) 
BCRP

$$$$

     RDKit          2D

 21 23  0  0  0  0  0  0  0  0999 V2000
    9.9816  -21.0445    0.0000 C   0  0  0  0  0  0  0  0  0  0  0  0
    9.2670  -20.6457    0.0000 C   0  0  0  0  0  0  0  0  0  0  0  0
    8.5656  -21.0651    0.0000 C   0  0  0  0  0  0  0  0  0  0  0  0
    8.5789  -21.8834    0.0000 C   0  0  0  0  0  0  0  0  0  0  0  0
    9.2914  -22.2787    0.0000 C   0  0  0  0  0  0  0  0  0  0  0  0
    9.9927  -21.8593    0.0000 C   0  0  0  0  0  0  0  0  0  0  0  0
    7.8776  -22.3029    0.0000 N   0  0  0  0  0  0  0  0  0  0  0  0
    8.5553  -24.3576    0.0000 C   0  0  0  0  0  0  0  0  0  0  0  0
    8.5667  -23.5429    0.0000 N   0  0  0  0  0  0  0  0  0  0  0  0
    7.8654  -23.1233    0.0000 C   0  0  0  0  0  0  0  0  0  0  0  0
    7.1528  -23.5184    0.0000 C   0  0  0  0  0  0  0  0  0  0  0  0
    7.1393  -24.3367    0.0000 C   0  0  0  0  0  0  0  0  0  0  0  0
    7.8406  -24.7563    0.0000 N   0  0  0  0  0  0  0  0  0  0  0  0
    9.2565  -24.7772    0.0000 C   0  0  0  0  0  0  0  0  0  0  0  0
    9.2431  -25.5955    0.0000 C   0  0  0  0  0  0  0  0  0  0  0  0
    9.9443  -26.0151    0.0000 C   0  0  0  0  0  0  0  0  0  0  0  0
   10.6590  -25.6165    0.0000 C   0  0  0  0  0  0  0  0  0  0  0  0
   10.6704  -24.8017    0.0000 C   0  0  0  0  0  0  0  0  0  0  0  0
    9.9691  -24.3821    0.0000 C   0  0  0  0  0  0  0  0  0  0  0  0
    6.4246  -24.7354    0.0000 C   0  0  0  0  0  0  0  0  0  0  0  0
   10.7063  -22.2575    0.0000 Cl  0  0  0  0  0  0  0  0  0  0  0  0
  1  2  2  0
  2  3  1  0
  3  4  2  0
  4  5  1  0
  5  6  2  0
  1  6  1  0
  8  9  2  0
  9 10  1  0
 10 11  2  0
 11 12  1  0
 12 13  2  0
  8 13  1  0
 14 15  2  0
 15 16  1  0
 16 17  2  0
 17 18  1  0
 18 19  2  0
 14 19  1  0
  8 14  1  0
 12 20  1  0
  7 10  1  0
  4  7  1  0
  6 21  1  0
M  END
>  <Classification>  (794) 
1

>  <pchembl>  (794) 
6.09

>  <InChI_steorem>  (794) 
InChI=1S/C17H14ClN3/c1-12-10-16(20-15-9-5-8-14(18)11-15)21-17(19-12)13-6-3-2-4-7-13/h2-11H,1H3,(H,19,20,21)

>  <source>  (794) 
ChEMBL30

>  <source_id>  (794) 
30

>  <optional_reference>  (794) 
10.1021/acs.jmedchem.0c00961

>  <optional_origin>  (794) 
None

>  <target>  (794) 
BCRP

$$$$

     RDKit          2D

 22 24  0  0  0  0  0  0  0  0999 V2000
   13.2668  -14.8661    0.0000 C   0  0  0  0  0  0  0  0  0  0  0  0
   12.5522  -14.4672    0.0000 C   0  0  0  0  0  0  0  0  0  0  0  0
   11.8509  -14.8867    0.0000 C   0  0  0  0  0  0  0  0  0  0  0  0
   11.8642  -15.7050    0.0000 C   0  0  0  0  0  0  0  0  0  0  0  0
   12.5767  -16.1003    0.0000 C   0  0  0  0  0  0  0  0  0  0  0  0
   13.2780  -15.6808    0.0000 C   0  0  0  0  0  0  0  0  0  0  0  0
   11.1628  -16.1244    0.0000 N   0  0  0  0  0  0  0  0  0  0  0  0
   11.8406  -18.1792    0.0000 C   0  0  0  0  0  0  0  0  0  0  0  0
   11.8519  -17.3644    0.0000 N   0  0  0  0  0  0  0  0  0  0  0  0
   11.1507  -16.9448    0.0000 C   0  0  0  0  0  0  0  0  0  0  0  0
   10.4381  -17.3400    0.0000 C   0  0  0  0  0  0  0  0  0  0  0  0
   10.4246  -18.1583    0.0000 C   0  0  0  0  0  0  0  0  0  0  0  0
   11.1259  -18.5779    0.0000 N   0  0  0  0  0  0  0  0  0  0  0  0
   12.5418  -18.5988    0.0000 C   0  0  0  0  0  0  0  0  0  0  0  0
   12.5283  -19.4171    0.0000 C   0  0  0  0  0  0  0  0  0  0  0  0
   13.2296  -19.8367    0.0000 C   0  0  0  0  0  0  0  0  0  0  0  0
   13.9443  -19.4380    0.0000 C   0  0  0  0  0  0  0  0  0  0  0  0
   13.9556  -18.6233    0.0000 C   0  0  0  0  0  0  0  0  0  0  0  0
   13.2544  -18.2037    0.0000 C   0  0  0  0  0  0  0  0  0  0  0  0
    9.7099  -18.5569    0.0000 C   0  0  0  0  0  0  0  0  0  0  0  0
   13.9916  -16.0791    0.0000 C   0  0  0  0  0  0  0  0  0  0  0  0
   14.6933  -15.6602    0.0000 O   0  0  0  0  0  0  0  0  0  0  0  0
  1  2  2  0
  2  3  1  0
  3  4  2  0
  4  5  1  0
  5  6  2  0
  1  6  1  0
  8  9  2  0
  9 10  1  0
 10 11  2  0
 11 12  1  0
 12 13  2  0
  8 13  1  0
 14 15  2  0
 15 16  1  0
 16 17  2  0
 17 18  1  0
 18 19  2  0
 14 19  1  0
  8 14  1  0
 12 20  1  0
  7 10  1  0
  4  7  1  0
  6 21  1  0
 21 22  1  0
M  END
>  <Classification>  (795) 
1

>  <pchembl>  (795) 
5.38

>  <InChI_steorem>  (795) 
InChI=1S/C18H17N3O/c1-13-10-17(20-16-9-5-6-14(11-16)12-22)21-18(19-13)15-7-3-2-4-8-15/h2-11,22H,12H2,1H3,(H,19,20,21)

>  <source>  (795) 
ChEMBL30

>  <source_id>  (795) 
30

>  <optional_reference>  (795) 
10.1021/acs.jmedchem.0c00961

>  <optional_origin>  (795) 
None

>  <target>  (795) 
BCRP

$$$$

     RDKit          2D

 22 24  0  0  0  0  0  0  0  0999 V2000
   19.5072  -14.3873    0.0000 C   0  0  0  0  0  0  0  0  0  0  0  0
   18.7926  -13.9885    0.0000 C   0  0  0  0  0  0  0  0  0  0  0  0
   18.0913  -14.4079    0.0000 C   0  0  0  0  0  0  0  0  0  0  0  0
   18.1045  -15.2262    0.0000 C   0  0  0  0  0  0  0  0  0  0  0  0
   18.8170  -15.6215    0.0000 C   0  0  0  0  0  0  0  0  0  0  0  0
   19.5184  -15.2021    0.0000 C   0  0  0  0  0  0  0  0  0  0  0  0
   17.4032  -15.6456    0.0000 N   0  0  0  0  0  0  0  0  0  0  0  0
   18.0809  -17.7004    0.0000 C   0  0  0  0  0  0  0  0  0  0  0  0
   18.0923  -16.8857    0.0000 N   0  0  0  0  0  0  0  0  0  0  0  0
   17.3911  -16.4661    0.0000 C   0  0  0  0  0  0  0  0  0  0  0  0
   16.6785  -16.8612    0.0000 C   0  0  0  0  0  0  0  0  0  0  0  0
   16.6650  -17.6795    0.0000 C   0  0  0  0  0  0  0  0  0  0  0  0
   17.3662  -18.0991    0.0000 N   0  0  0  0  0  0  0  0  0  0  0  0
   18.7822  -18.1200    0.0000 C   0  0  0  0  0  0  0  0  0  0  0  0
   18.7687  -18.9383    0.0000 C   0  0  0  0  0  0  0  0  0  0  0  0
   19.4699  -19.3579    0.0000 C   0  0  0  0  0  0  0  0  0  0  0  0
   20.1847  -18.9592    0.0000 C   0  0  0  0  0  0  0  0  0  0  0  0
   20.1960  -18.1445    0.0000 C   0  0  0  0  0  0  0  0  0  0  0  0
   19.4948  -17.7249    0.0000 C   0  0  0  0  0  0  0  0  0  0  0  0
   15.9503  -18.0782    0.0000 C   0  0  0  0  0  0  0  0  0  0  0  0
   20.2320  -15.6003    0.0000 O   0  0  0  0  0  0  0  0  0  0  0  0
   20.2438  -16.4174    0.0000 C   0  0  0  0  0  0  0  0  0  0  0  0
  1  2  2  0
  2  3  1  0
  3  4  2  0
  4  5  1  0
  5  6  2  0
  1  6  1  0
  8  9  2  0
  9 10  1  0
 10 11  2  0
 11 12  1  0
 12 13  2  0
  8 13  1  0
 14 15  2  0
 15 16  1  0
 16 17  2  0
 17 18  1  0
 18 19  2  0
 14 19  1  0
  8 14  1  0
 12 20  1  0
  7 10  1  0
  4  7  1  0
  6 21  1  0
 21 22  1  0
M  END
>  <Classification>  (796) 
1

>  <pchembl>  (796) 
6.57

>  <InChI_steorem>  (796) 
InChI=1S/C18H17N3O/c1-13-11-17(20-15-9-6-10-16(12-15)22-2)21-18(19-13)14-7-4-3-5-8-14/h3-12H,1-2H3,(H,19,20,21)

>  <source>  (796) 
ChEMBL30

>  <source_id>  (796) 
30

>  <optional_reference>  (796) 
10.1021/acs.jmedchem.0c00961

>  <optional_origin>  (796) 
None

>  <target>  (796) 
BCRP

$$$$

     RDKit          2D

 23 25  0  0  0  0  0  0  0  0999 V2000
   12.8583   -8.2666    0.0000 C   0  0  0  0  0  0  0  0  0  0  0  0
   12.1436   -7.8678    0.0000 C   0  0  0  0  0  0  0  0  0  0  0  0
   11.4423   -8.2872    0.0000 C   0  0  0  0  0  0  0  0  0  0  0  0
   11.4556   -9.1055    0.0000 C   0  0  0  0  0  0  0  0  0  0  0  0
   12.1681   -9.5008    0.0000 C   0  0  0  0  0  0  0  0  0  0  0  0
   12.8694   -9.0814    0.0000 C   0  0  0  0  0  0  0  0  0  0  0  0
   10.7542   -9.5250    0.0000 N   0  0  0  0  0  0  0  0  0  0  0  0
   11.4320  -11.5797    0.0000 C   0  0  0  0  0  0  0  0  0  0  0  0
   11.4433  -10.7650    0.0000 N   0  0  0  0  0  0  0  0  0  0  0  0
   10.7421  -10.3454    0.0000 C   0  0  0  0  0  0  0  0  0  0  0  0
   10.0295  -10.7405    0.0000 C   0  0  0  0  0  0  0  0  0  0  0  0
   10.0160  -11.5588    0.0000 C   0  0  0  0  0  0  0  0  0  0  0  0
   10.7173  -11.9784    0.0000 N   0  0  0  0  0  0  0  0  0  0  0  0
   12.1332  -11.9993    0.0000 C   0  0  0  0  0  0  0  0  0  0  0  0
   12.1197  -12.8176    0.0000 C   0  0  0  0  0  0  0  0  0  0  0  0
   12.8210  -13.2372    0.0000 C   0  0  0  0  0  0  0  0  0  0  0  0
   13.5357  -12.8386    0.0000 C   0  0  0  0  0  0  0  0  0  0  0  0
   13.5471  -12.0238    0.0000 C   0  0  0  0  0  0  0  0  0  0  0  0
   12.8458  -11.6042    0.0000 C   0  0  0  0  0  0  0  0  0  0  0  0
    9.3013  -11.9575    0.0000 C   0  0  0  0  0  0  0  0  0  0  0  0
   13.5830   -9.4796    0.0000 F   0  0  0  0  0  0  0  0  0  0  0  0
   13.5601   -7.8481    0.0000 O   0  0  0  0  0  0  0  0  0  0  0  0
   14.2735   -8.2467    0.0000 C   0  0  0  0  0  0  0  0  0  0  0  0
  1  2  2  0
  2  3  1  0
  3  4  2  0
  4  5  1  0
  5  6  2  0
  1  6  1  0
  8  9  2  0
  9 10  1  0
 10 11  2  0
 11 12  1  0
 12 13  2  0
  8 13  1  0
 14 15  2  0
 15 16  1  0
 16 17  2  0
 17 18  1  0
 18 19  2  0
 14 19  1  0
  8 14  1  0
 12 20  1  0
  7 10  1  0
  4  7  1  0
  6 21  1  0
  1 22  1  0
 22 23  1  0
M  END
>  <Classification>  (797) 
1

>  <pchembl>  (797) 
6.07

>  <InChI_steorem>  (797) 
InChI=1S/C18H16FN3O/c1-12-10-17(21-14-8-9-16(23-2)15(19)11-14)22-18(20-12)13-6-4-3-5-7-13/h3-11H,1-2H3,(H,20,21,22)

>  <source>  (797) 
ChEMBL30

>  <source_id>  (797) 
30

>  <optional_reference>  (797) 
10.1021/acs.jmedchem.0c00961

>  <optional_origin>  (797) 
None

>  <target>  (797) 
BCRP

$$$$

     RDKit          2D

 23 25  0  0  0  0  0  0  0  0999 V2000
   14.2863   -7.8415    0.0000 C   0  0  0  0  0  0  0  0  0  0  0  0
   13.5716   -7.4427    0.0000 C   0  0  0  0  0  0  0  0  0  0  0  0
   12.8703   -7.8621    0.0000 C   0  0  0  0  0  0  0  0  0  0  0  0
   12.8836   -8.6804    0.0000 C   0  0  0  0  0  0  0  0  0  0  0  0
   13.5961   -9.0757    0.0000 C   0  0  0  0  0  0  0  0  0  0  0  0
   14.2974   -8.6563    0.0000 C   0  0  0  0  0  0  0  0  0  0  0  0
   12.1823   -9.0999    0.0000 N   0  0  0  0  0  0  0  0  0  0  0  0
   12.8600  -11.1546    0.0000 C   0  0  0  0  0  0  0  0  0  0  0  0
   12.8714  -10.3399    0.0000 N   0  0  0  0  0  0  0  0  0  0  0  0
   12.1701   -9.9203    0.0000 C   0  0  0  0  0  0  0  0  0  0  0  0
   11.4575  -10.3154    0.0000 C   0  0  0  0  0  0  0  0  0  0  0  0
   11.4440  -11.1337    0.0000 C   0  0  0  0  0  0  0  0  0  0  0  0
   12.1453  -11.5533    0.0000 N   0  0  0  0  0  0  0  0  0  0  0  0
   13.5612  -11.5742    0.0000 C   0  0  0  0  0  0  0  0  0  0  0  0
   13.5478  -12.3925    0.0000 C   0  0  0  0  0  0  0  0  0  0  0  0
   14.2490  -12.8121    0.0000 C   0  0  0  0  0  0  0  0  0  0  0  0
   14.9637  -12.4134    0.0000 C   0  0  0  0  0  0  0  0  0  0  0  0
   14.9751  -11.5987    0.0000 C   0  0  0  0  0  0  0  0  0  0  0  0
   14.2738  -11.1791    0.0000 C   0  0  0  0  0  0  0  0  0  0  0  0
   10.7293  -11.5324    0.0000 C   0  0  0  0  0  0  0  0  0  0  0  0
   14.9872   -7.4260    0.0000 C   0  0  0  0  0  0  0  0  0  0  0  0
   15.6995   -7.8264    0.0000 C   0  0  0  0  0  0  0  0  0  0  0  0
   16.4090   -8.2237    0.0000 N   0  0  0  0  0  0  0  0  0  0  0  0
  1  2  2  0
  2  3  1  0
  3  4  2  0
  4  5  1  0
  5  6  2  0
  1  6  1  0
  8  9  2  0
  9 10  1  0
 10 11  2  0
 11 12  1  0
 12 13  2  0
  8 13  1  0
 14 15  2  0
 15 16  1  0
 16 17  2  0
 17 18  1  0
 18 19  2  0
 14 19  1  0
  8 14  1  0
 12 20  1  0
  7 10  1  0
  4  7  1  0
  1 21  1  0
 21 22  1  0
 22 23  3  0
M  END
>  <Classification>  (798) 
1

>  <pchembl>  (798) 
5.6

>  <InChI_steorem>  (798) 
InChI=1S/C19H16N4/c1-14-13-18(22-17-9-7-15(8-10-17)11-12-20)23-19(21-14)16-5-3-2-4-6-16/h2-10,13H,11H2,1H3,(H,21,22,23)

>  <source>  (798) 
ChEMBL30

>  <source_id>  (798) 
30

>  <optional_reference>  (798) 
10.1021/acs.jmedchem.0c00961

>  <optional_origin>  (798) 
None

>  <target>  (798) 
BCRP

$$$$

     RDKit          2D

 23 25  0  0  0  0  0  0  0  0999 V2000
   19.8126   -7.8003    0.0000 C   0  0  0  0  0  0  0  0  0  0  0  0
   19.0980   -7.4014    0.0000 C   0  0  0  0  0  0  0  0  0  0  0  0
   18.3967   -7.8209    0.0000 C   0  0  0  0  0  0  0  0  0  0  0  0
   18.4100   -8.6391    0.0000 C   0  0  0  0  0  0  0  0  0  0  0  0
   19.1225   -9.0344    0.0000 C   0  0  0  0  0  0  0  0  0  0  0  0
   19.8238   -8.6150    0.0000 C   0  0  0  0  0  0  0  0  0  0  0  0
   17.7086   -9.0586    0.0000 N   0  0  0  0  0  0  0  0  0  0  0  0
   18.3864  -11.1134    0.0000 C   0  0  0  0  0  0  0  0  0  0  0  0
   18.3977  -10.2986    0.0000 N   0  0  0  0  0  0  0  0  0  0  0  0
   17.6965   -9.8790    0.0000 C   0  0  0  0  0  0  0  0  0  0  0  0
   16.9839  -10.2742    0.0000 C   0  0  0  0  0  0  0  0  0  0  0  0
   16.9704  -11.0924    0.0000 C   0  0  0  0  0  0  0  0  0  0  0  0
   17.6716  -11.5120    0.0000 N   0  0  0  0  0  0  0  0  0  0  0  0
   19.0876  -11.5330    0.0000 C   0  0  0  0  0  0  0  0  0  0  0  0
   19.0741  -12.3512    0.0000 C   0  0  0  0  0  0  0  0  0  0  0  0
   19.7754  -12.7708    0.0000 C   0  0  0  0  0  0  0  0  0  0  0  0
   20.4901  -12.3722    0.0000 C   0  0  0  0  0  0  0  0  0  0  0  0
   20.5014  -11.5574    0.0000 C   0  0  0  0  0  0  0  0  0  0  0  0
   19.8002  -11.1378    0.0000 C   0  0  0  0  0  0  0  0  0  0  0  0
   16.2557  -11.4911    0.0000 C   0  0  0  0  0  0  0  0  0  0  0  0
   20.5397   -9.0164    0.0000 N   0  0  0  0  0  0  0  0  0  0  0  0
   21.2413   -8.5976    0.0000 O   0  0  0  0  0  0  0  0  0  0  0  0
   20.5515   -9.8335    0.0000 O   0  0  0  0  0  0  0  0  0  0  0  0
  1  2  2  0
  2  3  1  0
  3  4  2  0
  4  5  1  0
  5  6  2  0
  1  6  1  0
  8  9  2  0
  9 10  1  0
 10 11  2  0
 11 12  1  0
 12 13  2  0
  8 13  1  0
 14 15  2  0
 15 16  1  0
 16 17  2  0
 17 18  1  0
 18 19  2  0
 14 19  1  0
  8 14  1  0
 12 20  1  0
  7 10  1  0
  4  7  1  0
 21 22  2  0
 21 23  1  0
  6 21  1  0
M  CHG  2  21   1  23  -1
M  END
>  <Classification>  (799) 
1

>  <pchembl>  (799) 
6.89

>  <InChI_steorem>  (799) 
InChI=1S/C17H14N4O2/c1-12-10-16(19-14-8-5-9-15(11-14)21(22)23)20-17(18-12)13-6-3-2-4-7-13/h2-11H,1H3,(H,18,19,20)

>  <source>  (799) 
ChEMBL30

>  <source_id>  (799) 
30

>  <optional_reference>  (799) 
10.1021/acs.jmedchem.0c00961

>  <optional_origin>  (799) 
None

>  <target>  (799) 
BCRP

$$$$

     RDKit          2D

 23 25  0  0  0  0  0  0  0  0999 V2000
   23.0327   -4.0697    0.0000 C   0  0  0  0  0  0  0  0  0  0  0  0
   23.0315   -4.8977    0.0000 C   0  0  0  0  0  0  0  0  0  0  0  0
   23.7469   -5.3109    0.0000 C   0  0  0  0  0  0  0  0  0  0  0  0
   24.4639   -4.8972    0.0000 C   0  0  0  0  0  0  0  0  0  0  0  0
   24.4610   -4.0660    0.0000 C   0  0  0  0  0  0  0  0  0  0  0  0
   23.7451   -3.6567    0.0000 C   0  0  0  0  0  0  0  0  0  0  0  0
   22.3162   -5.3099    0.0000 N   0  0  0  0  0  0  0  0  0  0  0  0
   22.3156   -6.1356    0.0000 C   0  0  0  0  0  0  0  0  0  0  0  0
   21.6001   -6.5463    0.0000 C   0  0  0  0  0  0  0  0  0  0  0  0
   21.5991   -7.3711    0.0000 C   0  0  0  0  0  0  0  0  0  0  0  0
   22.3144   -7.7853    0.0000 N   0  0  0  0  0  0  0  0  0  0  0  0
   23.0320   -7.3687    0.0000 C   0  0  0  0  0  0  0  0  0  0  0  0
   23.0295   -6.5452    0.0000 N   0  0  0  0  0  0  0  0  0  0  0  0
   23.7457   -7.7767    0.0000 C   0  0  0  0  0  0  0  0  0  0  0  0
   23.7466   -8.6035    0.0000 C   0  0  0  0  0  0  0  0  0  0  0  0
   24.4619   -9.0142    0.0000 C   0  0  0  0  0  0  0  0  0  0  0  0
   25.1768   -8.5994    0.0000 C   0  0  0  0  0  0  0  0  0  0  0  0
   25.1719   -7.7695    0.0000 C   0  0  0  0  0  0  0  0  0  0  0  0
   24.4560   -7.3625    0.0000 C   0  0  0  0  0  0  0  0  0  0  0  0
   25.1723   -3.6494    0.0000 C   0  0  0  0  0  0  0  0  0  0  0  0
   25.8856   -3.2338    0.0000 N   0  0  0  0  0  0  0  0  0  0  0  0
   20.8835   -7.7830    0.0000 N   0  0  0  0  0  0  0  0  0  0  0  0
   20.1690   -7.3693    0.0000 C   0  0  0  0  0  0  0  0  0  0  0  0
  1  2  2  0
  2  3  1  0
  3  4  2  0
  4  5  1  0
  5  6  2  0
  6  1  1  0
  2  7  1  0
  7  8  1  0
  8  9  2  0
  9 10  1  0
 10 11  2  0
 11 12  1  0
 12 13  2  0
 13  8  1  0
 14 15  2  0
 15 16  1  0
 16 17  2  0
 17 18  1  0
 18 19  2  0
 19 14  1  0
 12 14  1  0
 20 21  3  0
  5 20  1  0
 10 22  1  0
 22 23  1  0
M  END
>  <Classification>  (800) 
1

>  <pchembl>  (800) 
6.85

>  <InChI_steorem>  (800) 
InChI=1S/C18H15N5/c1-20-16-11-17(21-15-9-7-13(12-19)8-10-15)23-18(22-16)14-5-3-2-4-6-14/h2-11H,1H3,(H2,20,21,22,23)

>  <source>  (800) 
ChEMBL30

>  <source_id>  (800) 
30

>  <optional_reference>  (800) 
10.1016/j.ejmech.2020.113045

>  <optional_origin>  (800) 
None

>  <target>  (800) 
BCRP

$$$$

     RDKit          2D

 23 25  0  0  0  0  0  0  0  0999 V2000
    3.6422  -14.6638    0.0000 C   0  0  0  0  0  0  0  0  0  0  0  0
    2.9275  -14.2650    0.0000 C   0  0  0  0  0  0  0  0  0  0  0  0
    2.2262  -14.6844    0.0000 C   0  0  0  0  0  0  0  0  0  0  0  0
    2.2395  -15.5027    0.0000 C   0  0  0  0  0  0  0  0  0  0  0  0
    2.9520  -15.8980    0.0000 C   0  0  0  0  0  0  0  0  0  0  0  0
    3.6533  -15.4786    0.0000 C   0  0  0  0  0  0  0  0  0  0  0  0
    1.5381  -15.9222    0.0000 N   0  0  0  0  0  0  0  0  0  0  0  0
    2.2159  -17.9769    0.0000 C   0  0  0  0  0  0  0  0  0  0  0  0
    2.2272  -17.1622    0.0000 N   0  0  0  0  0  0  0  0  0  0  0  0
    1.5260  -16.7426    0.0000 C   0  0  0  0  0  0  0  0  0  0  0  0
    0.8134  -17.1377    0.0000 C   0  0  0  0  0  0  0  0  0  0  0  0
    0.7999  -17.9560    0.0000 C   0  0  0  0  0  0  0  0  0  0  0  0
    1.5012  -18.3756    0.0000 N   0  0  0  0  0  0  0  0  0  0  0  0
    2.9171  -18.3966    0.0000 C   0  0  0  0  0  0  0  0  0  0  0  0
    2.9036  -19.2148    0.0000 C   0  0  0  0  0  0  0  0  0  0  0  0
    3.6049  -19.6344    0.0000 C   0  0  0  0  0  0  0  0  0  0  0  0
    4.3196  -19.2358    0.0000 C   0  0  0  0  0  0  0  0  0  0  0  0
    4.3310  -18.4210    0.0000 C   0  0  0  0  0  0  0  0  0  0  0  0
    3.6297  -18.0014    0.0000 C   0  0  0  0  0  0  0  0  0  0  0  0
    0.0852  -18.3547    0.0000 C   0  0  0  0  0  0  0  0  0  0  0  0
    4.3464  -14.2429    0.0000 N   0  0  0  0  0  0  0  0  0  0  0  0
    4.3349  -13.4257    0.0000 O   0  0  0  0  0  0  0  0  0  0  0  0
    5.0598  -14.6414    0.0000 O   0  0  0  0  0  0  0  0  0  0  0  0
  1  2  2  0
  2  3  1  0
  3  4  2  0
  4  5  1  0
  5  6  2  0
  1  6  1  0
  8  9  2  0
  9 10  1  0
 10 11  2  0
 11 12  1  0
 12 13  2  0
  8 13  1  0
 14 15  2  0
 15 16  1  0
 16 17  2  0
 17 18  1  0
 18 19  2  0
 14 19  1  0
  8 14  1  0
 12 20  1  0
  7 10  1  0
  4  7  1  0
 21 22  2  0
 21 23  1  0
  1 21  1  0
M  CHG  2  21   1  23  -1
M  END
>  <Classification>  (801) 
1

>  <pchembl>  (801) 
7.28

>  <InChI_steorem>  (801) 
InChI=1S/C17H14N4O2/c1-12-11-16(19-14-7-9-15(10-8-14)21(22)23)20-17(18-12)13-5-3-2-4-6-13/h2-11H,1H3,(H,18,19,20)

>  <source>  (801) 
ChEMBL30

>  <source_id>  (801) 
30

>  <optional_reference>  (801) 
10.1021/acs.jmedchem.0c00961

>  <optional_origin>  (801) 
None

>  <target>  (801) 
BCRP

$$$$

     RDKit          2D

 23 25  0  0  0  0  0  0  0  0999 V2000
    3.9517   -1.2545    0.0000 C   0  0  0  0  0  0  0  0  0  0  0  0
    3.2371   -0.8556    0.0000 C   0  0  0  0  0  0  0  0  0  0  0  0
    2.5357   -1.2751    0.0000 C   0  0  0  0  0  0  0  0  0  0  0  0
    2.5490   -2.0934    0.0000 C   0  0  0  0  0  0  0  0  0  0  0  0
    3.2615   -2.4887    0.0000 C   0  0  0  0  0  0  0  0  0  0  0  0
    3.9629   -2.0692    0.0000 C   0  0  0  0  0  0  0  0  0  0  0  0
    1.8477   -2.5128    0.0000 N   0  0  0  0  0  0  0  0  0  0  0  0
    2.5254   -4.5676    0.0000 C   0  0  0  0  0  0  0  0  0  0  0  0
    2.5368   -3.7528    0.0000 N   0  0  0  0  0  0  0  0  0  0  0  0
    1.8355   -3.3332    0.0000 C   0  0  0  0  0  0  0  0  0  0  0  0
    1.1229   -3.7284    0.0000 C   0  0  0  0  0  0  0  0  0  0  0  0
    1.1095   -4.5467    0.0000 C   0  0  0  0  0  0  0  0  0  0  0  0
    1.8107   -4.9663    0.0000 N   0  0  0  0  0  0  0  0  0  0  0  0
    3.2267   -4.9872    0.0000 C   0  0  0  0  0  0  0  0  0  0  0  0
    3.2132   -5.8055    0.0000 C   0  0  0  0  0  0  0  0  0  0  0  0
    3.9144   -6.2251    0.0000 C   0  0  0  0  0  0  0  0  0  0  0  0
    4.6291   -5.8264    0.0000 C   0  0  0  0  0  0  0  0  0  0  0  0
    4.6405   -5.0117    0.0000 C   0  0  0  0  0  0  0  0  0  0  0  0
    3.9393   -4.5921    0.0000 C   0  0  0  0  0  0  0  0  0  0  0  0
    0.3948   -4.9453    0.0000 C   0  0  0  0  0  0  0  0  0  0  0  0
    4.6758   -2.4679    0.0000 C   0  0  0  0  0  0  0  0  0  0  0  0
    5.3894   -2.8662    0.0000 N   0  0  0  0  0  0  0  0  0  0  0  0
    4.6536   -0.8359    0.0000 F   0  0  0  0  0  0  0  0  0  0  0  0
  1  2  2  0
  2  3  1  0
  3  4  2  0
  4  5  1  0
  5  6  2  0
  1  6  1  0
  8  9  2  0
  9 10  1  0
 10 11  2  0
 11 12  1  0
 12 13  2  0
  8 13  1  0
 14 15  2  0
 15 16  1  0
 16 17  2  0
 17 18  1  0
 18 19  2  0
 14 19  1  0
  8 14  1  0
 12 20  1  0
  7 10  1  0
  4  7  1  0
 21 22  3  0
  6 21  1  0
  1 23  1  0
M  END
>  <Classification>  (802) 
1

>  <pchembl>  (802) 
6.51

>  <InChI_steorem>  (802) 
InChI=1S/C18H13FN4/c1-12-9-17(22-15-7-8-16(19)14(10-15)11-20)23-18(21-12)13-5-3-2-4-6-13/h2-10H,1H3,(H,21,22,23)

>  <source>  (802) 
ChEMBL30

>  <source_id>  (802) 
30

>  <optional_reference>  (802) 
10.1021/acs.jmedchem.0c00961

>  <optional_origin>  (802) 
None

>  <target>  (802) 
BCRP

$$$$

     RDKit          2D

 23 25  0  0  0  0  0  0  0  0999 V2000
    8.7145   -8.2955    0.0000 C   0  0  0  0  0  0  0  0  0  0  0  0
    7.9999   -7.8967    0.0000 C   0  0  0  0  0  0  0  0  0  0  0  0
    7.2986   -8.3161    0.0000 C   0  0  0  0  0  0  0  0  0  0  0  0
    7.3118   -9.1344    0.0000 C   0  0  0  0  0  0  0  0  0  0  0  0
    8.0243   -9.5297    0.0000 C   0  0  0  0  0  0  0  0  0  0  0  0
    8.7257   -9.1103    0.0000 C   0  0  0  0  0  0  0  0  0  0  0  0
    6.6105   -9.5539    0.0000 N   0  0  0  0  0  0  0  0  0  0  0  0
    7.2882  -11.6086    0.0000 C   0  0  0  0  0  0  0  0  0  0  0  0
    7.2996  -10.7939    0.0000 N   0  0  0  0  0  0  0  0  0  0  0  0
    6.5984  -10.3743    0.0000 C   0  0  0  0  0  0  0  0  0  0  0  0
    5.8858  -10.7694    0.0000 C   0  0  0  0  0  0  0  0  0  0  0  0
    5.8723  -11.5877    0.0000 C   0  0  0  0  0  0  0  0  0  0  0  0
    6.5735  -12.0073    0.0000 N   0  0  0  0  0  0  0  0  0  0  0  0
    7.9895  -12.0282    0.0000 C   0  0  0  0  0  0  0  0  0  0  0  0
    7.9760  -12.8465    0.0000 C   0  0  0  0  0  0  0  0  0  0  0  0
    8.6772  -13.2661    0.0000 C   0  0  0  0  0  0  0  0  0  0  0  0
    9.3920  -12.8674    0.0000 C   0  0  0  0  0  0  0  0  0  0  0  0
    9.4033  -12.0527    0.0000 C   0  0  0  0  0  0  0  0  0  0  0  0
    8.7021  -11.6331    0.0000 C   0  0  0  0  0  0  0  0  0  0  0  0
    5.1576  -11.9864    0.0000 C   0  0  0  0  0  0  0  0  0  0  0  0
    9.4393   -9.5085    0.0000 O   0  0  0  0  0  0  0  0  0  0  0  0
    9.4511  -10.3256    0.0000 C   0  0  0  0  0  0  0  0  0  0  0  0
    9.4164   -7.8770    0.0000 Br  0  0  0  0  0  0  0  0  0  0  0  0
  1  2  2  0
  2  3  1  0
  3  4  2  0
  4  5  1  0
  5  6  2  0
  1  6  1  0
  8  9  2  0
  9 10  1  0
 10 11  2  0
 11 12  1  0
 12 13  2  0
  8 13  1  0
 14 15  2  0
 15 16  1  0
 16 17  2  0
 17 18  1  0
 18 19  2  0
 14 19  1  0
  8 14  1  0
 12 20  1  0
  7 10  1  0
  4  7  1  0
  6 21  1  0
 21 22  1  0
  1 23  1  0
M  END
>  <Classification>  (803) 
1

>  <pchembl>  (803) 
6.55

>  <InChI_steorem>  (803) 
InChI=1S/C18H16BrN3O/c1-12-10-17(21-14-8-9-15(19)16(11-14)23-2)22-18(20-12)13-6-4-3-5-7-13/h3-11H,1-2H3,(H,20,21,22)

>  <source>  (803) 
ChEMBL30

>  <source_id>  (803) 
30

>  <optional_reference>  (803) 
10.1021/acs.jmedchem.0c00961

>  <optional_origin>  (803) 
None

>  <target>  (803) 
BCRP

$$$$

     RDKit          2D

 23 25  0  0  0  0  0  0  0  0999 V2000
    8.9952   -1.4113    0.0000 C   0  0  0  0  0  0  0  0  0  0  0  0
    8.2805   -1.0125    0.0000 C   0  0  0  0  0  0  0  0  0  0  0  0
    7.5792   -1.4319    0.0000 C   0  0  0  0  0  0  0  0  0  0  0  0
    7.5925   -2.2502    0.0000 C   0  0  0  0  0  0  0  0  0  0  0  0
    8.3050   -2.6455    0.0000 C   0  0  0  0  0  0  0  0  0  0  0  0
    9.0063   -2.2261    0.0000 C   0  0  0  0  0  0  0  0  0  0  0  0
    6.8912   -2.6696    0.0000 N   0  0  0  0  0  0  0  0  0  0  0  0
    7.5689   -4.7244    0.0000 C   0  0  0  0  0  0  0  0  0  0  0  0
    7.5803   -3.9097    0.0000 N   0  0  0  0  0  0  0  0  0  0  0  0
    6.8790   -3.4901    0.0000 C   0  0  0  0  0  0  0  0  0  0  0  0
    6.1664   -3.8852    0.0000 C   0  0  0  0  0  0  0  0  0  0  0  0
    6.1529   -4.7035    0.0000 C   0  0  0  0  0  0  0  0  0  0  0  0
    6.8542   -5.1231    0.0000 N   0  0  0  0  0  0  0  0  0  0  0  0
    8.2701   -5.1440    0.0000 C   0  0  0  0  0  0  0  0  0  0  0  0
    8.2567   -5.9623    0.0000 C   0  0  0  0  0  0  0  0  0  0  0  0
    8.9579   -6.3819    0.0000 C   0  0  0  0  0  0  0  0  0  0  0  0
    9.6726   -5.9832    0.0000 C   0  0  0  0  0  0  0  0  0  0  0  0
    9.6840   -5.1685    0.0000 C   0  0  0  0  0  0  0  0  0  0  0  0
    8.9827   -4.7489    0.0000 C   0  0  0  0  0  0  0  0  0  0  0  0
    5.4382   -5.1022    0.0000 C   0  0  0  0  0  0  0  0  0  0  0  0
    9.7199   -2.6243    0.0000 Br  0  0  0  0  0  0  0  0  0  0  0  0
    9.6960   -0.9958    0.0000 C   0  0  0  0  0  0  0  0  0  0  0  0
   10.3979   -0.5772    0.0000 N   0  0  0  0  0  0  0  0  0  0  0  0
  1  2  2  0
  2  3  1  0
  3  4  2  0
  4  5  1  0
  5  6  2  0
  1  6  1  0
  8  9  2  0
  9 10  1  0
 10 11  2  0
 11 12  1  0
 12 13  2  0
  8 13  1  0
 14 15  2  0
 15 16  1  0
 16 17  2  0
 17 18  1  0
 18 19  2  0
 14 19  1  0
  8 14  1  0
 12 20  1  0
  7 10  1  0
  4  7  1  0
  6 21  1  0
 22 23  3  0
  1 22  1  0
M  END
>  <Classification>  (804) 
1

>  <pchembl>  (804) 
6.92

>  <InChI_steorem>  (804) 
InChI=1S/C18H13BrN4/c1-12-9-17(22-15-8-7-14(11-20)16(19)10-15)23-18(21-12)13-5-3-2-4-6-13/h2-10H,1H3,(H,21,22,23)

>  <source>  (804) 
ChEMBL30

>  <source_id>  (804) 
30

>  <optional_reference>  (804) 
10.1021/acs.jmedchem.0c00961

>  <optional_origin>  (804) 
None

>  <target>  (804) 
BCRP

$$$$

     RDKit          2D

 23 25  0  0  0  0  0  0  0  0999 V2000
    9.2180   -7.7177    0.0000 C   0  0  0  0  0  0  0  0  0  0  0  0
    8.5034   -7.3189    0.0000 C   0  0  0  0  0  0  0  0  0  0  0  0
    7.8021   -7.7383    0.0000 C   0  0  0  0  0  0  0  0  0  0  0  0
    7.8154   -8.5566    0.0000 C   0  0  0  0  0  0  0  0  0  0  0  0
    8.5279   -8.9519    0.0000 C   0  0  0  0  0  0  0  0  0  0  0  0
    9.2292   -8.5325    0.0000 C   0  0  0  0  0  0  0  0  0  0  0  0
    7.1140   -8.9760    0.0000 N   0  0  0  0  0  0  0  0  0  0  0  0
    7.7918  -11.0308    0.0000 C   0  0  0  0  0  0  0  0  0  0  0  0
    7.8031  -10.2161    0.0000 N   0  0  0  0  0  0  0  0  0  0  0  0
    7.1019   -9.7965    0.0000 C   0  0  0  0  0  0  0  0  0  0  0  0
    6.3893  -10.1916    0.0000 C   0  0  0  0  0  0  0  0  0  0  0  0
    6.3758  -11.0099    0.0000 C   0  0  0  0  0  0  0  0  0  0  0  0
    7.0770  -11.4295    0.0000 N   0  0  0  0  0  0  0  0  0  0  0  0
    8.4930  -11.4504    0.0000 C   0  0  0  0  0  0  0  0  0  0  0  0
    8.4795  -12.2687    0.0000 C   0  0  0  0  0  0  0  0  0  0  0  0
    9.1808  -12.6883    0.0000 C   0  0  0  0  0  0  0  0  0  0  0  0
    9.8955  -12.2896    0.0000 C   0  0  0  0  0  0  0  0  0  0  0  0
    9.9068  -11.4749    0.0000 C   0  0  0  0  0  0  0  0  0  0  0  0
    9.2056  -11.0553    0.0000 C   0  0  0  0  0  0  0  0  0  0  0  0
    5.6611  -11.4086    0.0000 C   0  0  0  0  0  0  0  0  0  0  0  0
    9.9189   -7.3022    0.0000 C   0  0  0  0  0  0  0  0  0  0  0  0
   10.6208   -6.8836    0.0000 N   0  0  0  0  0  0  0  0  0  0  0  0
    9.9428   -8.9307    0.0000 C   0  0  0  0  0  0  0  0  0  0  0  0
  1  2  2  0
  2  3  1  0
  3  4  2  0
  4  5  1  0
  5  6  2  0
  1  6  1  0
  8  9  2  0
  9 10  1  0
 10 11  2  0
 11 12  1  0
 12 13  2  0
  8 13  1  0
 14 15  2  0
 15 16  1  0
 16 17  2  0
 17 18  1  0
 18 19  2  0
 14 19  1  0
  8 14  1  0
 12 20  1  0
  7 10  1  0
  4  7  1  0
 21 22  3  0
  1 21  1  0
  6 23  1  0
M  END
>  <Classification>  (805) 
1

>  <pchembl>  (805) 
7.03

>  <InChI_steorem>  (805) 
InChI=1S/C19H16N4/c1-13-10-17(9-8-16(13)12-20)22-18-11-14(2)21-19(23-18)15-6-4-3-5-7-15/h3-11H,1-2H3,(H,21,22,23)

>  <source>  (805) 
ChEMBL30

>  <source_id>  (805) 
30

>  <optional_reference>  (805) 
10.1021/acs.jmedchem.0c00961

>  <optional_origin>  (805) 
None

>  <target>  (805) 
BCRP

$$$$

     RDKit          2D

 24 26  0  0  0  0  0  0  0  0999 V2000
   19.0821   -1.7621    0.0000 C   0  0  0  0  0  0  0  0  0  0  0  0
   18.3675   -1.3633    0.0000 C   0  0  0  0  0  0  0  0  0  0  0  0
   17.6662   -1.7827    0.0000 C   0  0  0  0  0  0  0  0  0  0  0  0
   17.6794   -2.6010    0.0000 C   0  0  0  0  0  0  0  0  0  0  0  0
   18.3919   -2.9963    0.0000 C   0  0  0  0  0  0  0  0  0  0  0  0
   19.0933   -2.5769    0.0000 C   0  0  0  0  0  0  0  0  0  0  0  0
   16.9781   -3.0204    0.0000 N   0  0  0  0  0  0  0  0  0  0  0  0
   17.6558   -5.0752    0.0000 C   0  0  0  0  0  0  0  0  0  0  0  0
   17.6672   -4.2605    0.0000 N   0  0  0  0  0  0  0  0  0  0  0  0
   16.9660   -3.8409    0.0000 C   0  0  0  0  0  0  0  0  0  0  0  0
   16.2534   -4.2360    0.0000 C   0  0  0  0  0  0  0  0  0  0  0  0
   16.2399   -5.0543    0.0000 C   0  0  0  0  0  0  0  0  0  0  0  0
   16.9411   -5.4739    0.0000 N   0  0  0  0  0  0  0  0  0  0  0  0
   18.3571   -5.4948    0.0000 C   0  0  0  0  0  0  0  0  0  0  0  0
   18.3436   -6.3131    0.0000 C   0  0  0  0  0  0  0  0  0  0  0  0
   19.0448   -6.7327    0.0000 C   0  0  0  0  0  0  0  0  0  0  0  0
   19.7596   -6.3340    0.0000 C   0  0  0  0  0  0  0  0  0  0  0  0
   19.7709   -5.5193    0.0000 C   0  0  0  0  0  0  0  0  0  0  0  0
   19.0697   -5.0997    0.0000 C   0  0  0  0  0  0  0  0  0  0  0  0
   15.5252   -5.4530    0.0000 C   0  0  0  0  0  0  0  0  0  0  0  0
   19.8091   -2.9783    0.0000 N   0  0  0  0  0  0  0  0  0  0  0  0
   20.5108   -2.5594    0.0000 O   0  0  0  0  0  0  0  0  0  0  0  0
   19.8210   -3.7954    0.0000 O   0  0  0  0  0  0  0  0  0  0  0  0
   19.7840   -1.3436    0.0000 F   0  0  0  0  0  0  0  0  0  0  0  0
  1  2  2  0
  2  3  1  0
  3  4  2  0
  4  5  1  0
  5  6  2  0
  1  6  1  0
  8  9  2  0
  9 10  1  0
 10 11  2  0
 11 12  1  0
 12 13  2  0
  8 13  1  0
 14 15  2  0
 15 16  1  0
 16 17  2  0
 17 18  1  0
 18 19  2  0
 14 19  1  0
  8 14  1  0
 12 20  1  0
  7 10  1  0
  4  7  1  0
 21 22  2  0
 21 23  1  0
  6 21  1  0
  1 24  1  0
M  CHG  2  21   1  23  -1
M  END
>  <Classification>  (806) 
1

>  <pchembl>  (806) 
6.0

>  <InChI_steorem>  (806) 
InChI=1S/C17H13FN4O2/c1-11-9-16(21-17(19-11)12-5-3-2-4-6-12)20-13-7-8-14(18)15(10-13)22(23)24/h2-10H,1H3,(H,19,20,21)

>  <source>  (806) 
ChEMBL30

>  <source_id>  (806) 
30

>  <optional_reference>  (806) 
10.1021/acs.jmedchem.0c00961

>  <optional_origin>  (806) 
None

>  <target>  (806) 
BCRP

$$$$

     RDKit          2D

 24 26  0  0  0  0  0  0  0  0999 V2000
    3.7742   -7.5650    0.0000 C   0  0  0  0  0  0  0  0  0  0  0  0
    3.0596   -7.1662    0.0000 C   0  0  0  0  0  0  0  0  0  0  0  0
    2.3583   -7.5856    0.0000 C   0  0  0  0  0  0  0  0  0  0  0  0
    2.3715   -8.4039    0.0000 C   0  0  0  0  0  0  0  0  0  0  0  0
    3.0841   -8.7992    0.0000 C   0  0  0  0  0  0  0  0  0  0  0  0
    3.7854   -8.3798    0.0000 C   0  0  0  0  0  0  0  0  0  0  0  0
    1.6702   -8.8233    0.0000 N   0  0  0  0  0  0  0  0  0  0  0  0
    2.3479  -10.8781    0.0000 C   0  0  0  0  0  0  0  0  0  0  0  0
    2.3593  -10.0634    0.0000 N   0  0  0  0  0  0  0  0  0  0  0  0
    1.6581   -9.6438    0.0000 C   0  0  0  0  0  0  0  0  0  0  0  0
    0.9455  -10.0389    0.0000 C   0  0  0  0  0  0  0  0  0  0  0  0
    0.9320  -10.8572    0.0000 C   0  0  0  0  0  0  0  0  0  0  0  0
    1.6332  -11.2768    0.0000 N   0  0  0  0  0  0  0  0  0  0  0  0
    3.0492  -11.2977    0.0000 C   0  0  0  0  0  0  0  0  0  0  0  0
    3.0357  -12.1160    0.0000 C   0  0  0  0  0  0  0  0  0  0  0  0
    3.7369  -12.5356    0.0000 C   0  0  0  0  0  0  0  0  0  0  0  0
    4.4517  -12.1369    0.0000 C   0  0  0  0  0  0  0  0  0  0  0  0
    4.4630  -11.3222    0.0000 C   0  0  0  0  0  0  0  0  0  0  0  0
    3.7618  -10.9026    0.0000 C   0  0  0  0  0  0  0  0  0  0  0  0
    0.2173  -11.2559    0.0000 C   0  0  0  0  0  0  0  0  0  0  0  0
    4.4751   -7.1495    0.0000 C   0  0  0  0  0  0  0  0  0  0  0  0
    5.1770   -6.7309    0.0000 N   0  0  0  0  0  0  0  0  0  0  0  0
    4.4990   -8.7780    0.0000 C   0  0  0  0  0  0  0  0  0  0  0  0
    5.2181   -9.1749    0.0000 N   0  0  0  0  0  0  0  0  0  0  0  0
  1  2  2  0
  2  3  1  0
  3  4  2  0
  4  5  1  0
  5  6  2  0
  1  6  1  0
  8  9  2  0
  9 10  1  0
 10 11  2  0
 11 12  1  0
 12 13  2  0
  8 13  1  0
 14 15  2  0
 15 16  1  0
 16 17  2  0
 17 18  1  0
 18 19  2  0
 14 19  1  0
  8 14  1  0
 12 20  1  0
  7 10  1  0
  4  7  1  0
 21 22  3  0
  1 21  1  0
  6 23  1  0
 23 24  3  0
M  END
>  <Classification>  (807) 
1

>  <pchembl>  (807) 
6.73

>  <InChI_steorem>  (807) 
InChI=1S/C19H13N5/c1-13-9-18(24-19(22-13)14-5-3-2-4-6-14)23-17-8-7-15(11-20)16(10-17)12-21/h2-10H,1H3,(H,22,23,24)

>  <source>  (807) 
ChEMBL30

>  <source_id>  (807) 
30

>  <optional_reference>  (807) 
10.1021/acs.jmedchem.0c00961

>  <optional_origin>  (807) 
None

>  <target>  (807) 
BCRP

$$$$

     RDKit          2D

 24 26  0  0  0  0  0  0  0  0999 V2000
    3.8609   -8.0190    0.0000 C   0  0  0  0  0  0  0  0  0  0  0  0
    3.1463   -7.6202    0.0000 C   0  0  0  0  0  0  0  0  0  0  0  0
    2.4449   -8.0396    0.0000 C   0  0  0  0  0  0  0  0  0  0  0  0
    2.4582   -8.8579    0.0000 C   0  0  0  0  0  0  0  0  0  0  0  0
    3.1707   -9.2532    0.0000 C   0  0  0  0  0  0  0  0  0  0  0  0
    3.8721   -8.8337    0.0000 C   0  0  0  0  0  0  0  0  0  0  0  0
    1.7569   -9.2773    0.0000 N   0  0  0  0  0  0  0  0  0  0  0  0
    2.4346  -11.3321    0.0000 C   0  0  0  0  0  0  0  0  0  0  0  0
    2.4460  -10.5174    0.0000 N   0  0  0  0  0  0  0  0  0  0  0  0
    1.7447  -10.0978    0.0000 C   0  0  0  0  0  0  0  0  0  0  0  0
    1.0321  -10.4929    0.0000 C   0  0  0  0  0  0  0  0  0  0  0  0
    1.0187  -11.3112    0.0000 C   0  0  0  0  0  0  0  0  0  0  0  0
    1.7199  -11.7308    0.0000 N   0  0  0  0  0  0  0  0  0  0  0  0
    3.1359  -11.7517    0.0000 C   0  0  0  0  0  0  0  0  0  0  0  0
    3.1224  -12.5700    0.0000 C   0  0  0  0  0  0  0  0  0  0  0  0
    3.8236  -12.9896    0.0000 C   0  0  0  0  0  0  0  0  0  0  0  0
    4.5383  -12.5909    0.0000 C   0  0  0  0  0  0  0  0  0  0  0  0
    4.5497  -11.7762    0.0000 C   0  0  0  0  0  0  0  0  0  0  0  0
    3.8485  -11.3566    0.0000 C   0  0  0  0  0  0  0  0  0  0  0  0
    0.3040  -11.7099    0.0000 C   0  0  0  0  0  0  0  0  0  0  0  0
    4.5856   -9.2320    0.0000 Cl  0  0  0  0  0  0  0  0  0  0  0  0
    4.5652   -7.5980    0.0000 N   0  0  0  0  0  0  0  0  0  0  0  0
    4.5536   -6.7809    0.0000 O   0  0  0  0  0  0  0  0  0  0  0  0
    5.2786   -7.9966    0.0000 O   0  0  0  0  0  0  0  0  0  0  0  0
  1  2  2  0
  2  3  1  0
  3  4  2  0
  4  5  1  0
  5  6  2  0
  1  6  1  0
  8  9  2  0
  9 10  1  0
 10 11  2  0
 11 12  1  0
 12 13  2  0
  8 13  1  0
 14 15  2  0
 15 16  1  0
 16 17  2  0
 17 18  1  0
 18 19  2  0
 14 19  1  0
  8 14  1  0
 12 20  1  0
  7 10  1  0
  4  7  1  0
  6 21  1  0
 22 23  2  0
 22 24  1  0
  1 22  1  0
M  CHG  2  22   1  24  -1
M  END
>  <Classification>  (808) 
1

>  <pchembl>  (808) 
7.23

>  <InChI_steorem>  (808) 
InChI=1S/C17H13ClN4O2/c1-11-9-16(21-17(19-11)12-5-3-2-4-6-12)20-13-7-8-15(22(23)24)14(18)10-13/h2-10H,1H3,(H,19,20,21)

>  <source>  (808) 
ChEMBL30

>  <source_id>  (808) 
30

>  <optional_reference>  (808) 
10.1021/acs.jmedchem.0c00961

>  <optional_origin>  (808) 
None

>  <target>  (808) 
BCRP

$$$$

     RDKit          2D

 24 26  0  0  0  0  0  0  0  0999 V2000
    7.3066  -12.6497    0.0000 C   0  0  0  0  0  0  0  0  0  0  0  0
    6.5962  -12.2436    0.0000 C   0  0  0  0  0  0  0  0  0  0  0  0
    5.8914  -12.6558    0.0000 C   0  0  0  0  0  0  0  0  0  0  0  0
    5.8959  -13.4738    0.0000 C   0  0  0  0  0  0  0  0  0  0  0  0
    6.6110  -13.8780    0.0000 C   0  0  0  0  0  0  0  0  0  0  0  0
    7.3129  -13.4635    0.0000 C   0  0  0  0  0  0  0  0  0  0  0  0
    5.1912  -13.8876    0.0000 C   0  0  0  0  0  0  0  0  0  0  0  0
    5.1972  -14.7048    0.0000 O   0  0  0  0  0  0  0  0  0  0  0  0
    6.6188  -14.6951    0.0000 N   0  0  0  0  0  0  0  0  0  0  0  0
    7.3304  -15.0970    0.0000 C   0  0  0  0  0  0  0  0  0  0  0  0
    7.3382  -15.9141    0.0000 C   0  0  0  0  0  0  0  0  0  0  0  0
    8.0342  -14.6816    0.0000 O   0  0  0  0  0  0  0  0  0  0  0  0
    6.6322  -16.3253    0.0000 N   0  0  0  0  0  0  0  0  0  0  0  0
    8.0578  -17.1246    0.0000 C   0  0  0  0  0  0  0  0  0  0  0  0
    8.0469  -16.3096    0.0000 C   0  0  0  0  0  0  0  0  0  0  0  0
    7.3517  -17.5443    0.0000 C   0  0  0  0  0  0  0  0  0  0  0  0
    6.6427  -17.1419    0.0000 C   0  0  0  0  0  0  0  0  0  0  0  0
    5.9418  -17.5545    0.0000 C   0  0  0  0  0  0  0  0  0  0  0  0
    5.9486  -18.3695    0.0000 C   0  0  0  0  0  0  0  0  0  0  0  0
    6.6623  -18.7701    0.0000 C   0  0  0  0  0  0  0  0  0  0  0  0
    7.3603  -18.3551    0.0000 C   0  0  0  0  0  0  0  0  0  0  0  0
    4.4805  -13.4842    0.0000 O   0  0  0  0  0  0  0  0  0  0  0  0
    3.7758  -13.8980    0.0000 C   0  0  0  0  0  0  0  0  0  0  0  0
    8.0119  -12.2368    0.0000 Br  0  0  0  0  0  0  0  0  0  0  0  0
  1  2  2  0
  2  3  1  0
  3  4  2  0
  4  5  1  0
  5  6  2  0
  6  1  1  0
  4  7  1  0
  7  8  2  0
  5  9  1  0
  9 10  1  0
 10 11  1  0
 10 12  2  0
 11 13  2  0
 13 17  1  0
 16 14  1  0
 14 15  2  0
 15 11  1  0
 16 17  2  0
 17 18  1  0
 18 19  2  0
 19 20  1  0
 20 21  2  0
 21 16  1  0
  7 22  1  0
 22 23  1  0
  1 24  1  0
M  END
>  <Classification>  (809) 
1

>  <pchembl>  (809) 
5.72

>  <InChI_steorem>  (809) 
InChI=1S/C18H13BrN2O3/c1-24-18(23)13-8-7-12(19)10-16(13)21-17(22)15-9-6-11-4-2-3-5-14(11)20-15/h2-10H,1H3,(H,21,22)

>  <source>  (809) 
ChEMBL30

>  <source_id>  (809) 
30

>  <optional_reference>  (809) 
10.1016/j.ejmech.2020.112958

>  <optional_origin>  (809) 
None

>  <target>  (809) 
BCRP

$$$$

     RDKit          2D

 24 27  0  0  0  0  0  0  0  0999 V2000
   14.2724  -22.4713    0.0000 C   0  0  0  0  0  0  0  0  0  0  0  0
   13.5669  -22.0636    0.0000 N   0  0  0  0  0  0  0  0  0  0  0  0
   13.5658  -21.2464    0.0000 C   0  0  0  0  0  0  0  0  0  0  0  0
   14.2744  -20.8369    0.0000 C   0  0  0  0  0  0  0  0  0  0  0  0
   14.9799  -21.2445    0.0000 C   0  0  0  0  0  0  0  0  0  0  0  0
   14.9810  -22.0617    0.0000 N   0  0  0  0  0  0  0  0  0  0  0  0
   12.8603  -20.8346    0.0000 N   0  0  0  0  0  0  0  0  0  0  0  0
   14.2735  -23.2885    0.0000 C   0  0  0  0  0  0  0  0  0  0  0  0
   14.9831  -23.6961    0.0000 C   0  0  0  0  0  0  0  0  0  0  0  0
   14.9842  -24.5133    0.0000 C   0  0  0  0  0  0  0  0  0  0  0  0
   14.2756  -24.9228    0.0000 C   0  0  0  0  0  0  0  0  0  0  0  0
   13.5701  -24.5152    0.0000 C   0  0  0  0  0  0  0  0  0  0  0  0
   13.5691  -23.6980    0.0000 C   0  0  0  0  0  0  0  0  0  0  0  0
   15.6884  -20.8350    0.0000 C   0  0  0  0  0  0  0  0  0  0  0  0
   12.8560  -17.5658    0.0000 O   0  0  0  0  0  0  0  0  0  0  0  0
   12.8571  -18.3830    0.0000 C   0  0  0  0  0  0  0  0  0  0  0  0
   13.5626  -18.7907    0.0000 C   0  0  0  0  0  0  0  0  0  0  0  0
   14.2712  -18.3812    0.0000 O   0  0  0  0  0  0  0  0  0  0  0  0
   14.2701  -17.5640    0.0000 C   0  0  0  0  0  0  0  0  0  0  0  0
   13.5646  -17.1563    0.0000 C   0  0  0  0  0  0  0  0  0  0  0  0
   13.5637  -19.6079    0.0000 C   0  0  0  0  0  0  0  0  0  0  0  0
   12.8593  -20.0174    0.0000 C   0  0  0  0  0  0  0  0  0  0  0  0
   12.1496  -19.6098    0.0000 C   0  0  0  0  0  0  0  0  0  0  0  0
   12.1486  -18.7926    0.0000 C   0  0  0  0  0  0  0  0  0  0  0  0
  1  2  2  0
  2  3  1  0
  3  4  2  0
  4  5  1  0
  5  6  2  0
  1  6  1  0
  3  7  1  0
  8  9  2  0
  9 10  1  0
 10 11  2  0
 11 12  1  0
 12 13  2  0
  8 13  1  0
  1  8  1  0
  5 14  1  0
 15 16  1  0
 16 17  2  0
 17 18  1  0
 18 19  1  0
 19 20  1  0
 15 20  1  0
 21 22  2  0
 22 23  1  0
 23 24  2  0
 16 24  1  0
 17 21  1  0
  7 22  1  0
M  END
>  <Classification>  (810) 
1

>  <pchembl>  (810) 
6.09

>  <InChI_steorem>  (810) 
InChI=1S/C19H17N3O2/c1-13-11-18(22-19(20-13)14-5-3-2-4-6-14)21-15-7-8-16-17(12-15)24-10-9-23-16/h2-8,11-12H,9-10H2,1H3,(H,20,21,22)

>  <source>  (810) 
ChEMBL30

>  <source_id>  (810) 
30

>  <optional_reference>  (810) 
10.1021/acs.jmedchem.0c00961

>  <optional_origin>  (810) 
None

>  <target>  (810) 
BCRP

$$$$

     RDKit          2D

 24 27  0  0  0  0  0  0  0  0999 V2000
    6.6402  -16.5025    0.0000 N   0  0  0  0  0  0  0  0  0  0  0  0
    6.6377  -15.6853    0.0000 C   0  0  0  0  0  0  0  0  0  0  0  0
    5.9335  -15.2753    0.0000 C   0  0  0  0  0  0  0  0  0  0  0  0
    5.2236  -15.6825    0.0000 C   0  0  0  0  0  0  0  0  0  0  0  0
    5.2220  -16.4997    0.0000 C   0  0  0  0  0  0  0  0  0  0  0  0
    4.5162  -16.9069    0.0000 C   0  0  0  0  0  0  0  0  0  0  0  0
    4.5146  -17.7241    0.0000 C   0  0  0  0  0  0  0  0  0  0  0  0
    5.2228  -18.1341    0.0000 C   0  0  0  0  0  0  0  0  0  0  0  0
    5.9286  -17.7269    0.0000 C   0  0  0  0  0  0  0  0  0  0  0  0
    5.9302  -16.9097    0.0000 C   0  0  0  0  0  0  0  0  0  0  0  0
    3.8047  -18.1312    0.0000 N   0  0  0  0  0  0  0  0  0  0  0  0
    3.0956  -20.1728    0.0000 C   0  0  0  0  0  0  0  0  0  0  0  0
    3.0972  -19.3556    0.0000 N   0  0  0  0  0  0  0  0  0  0  0  0
    3.8030  -18.9484    0.0000 C   0  0  0  0  0  0  0  0  0  0  0  0
    4.5113  -19.3584    0.0000 C   0  0  0  0  0  0  0  0  0  0  0  0
    4.5096  -20.1756    0.0000 C   0  0  0  0  0  0  0  0  0  0  0  0
    3.8039  -20.5828    0.0000 N   0  0  0  0  0  0  0  0  0  0  0  0
    2.3857  -20.5800    0.0000 C   0  0  0  0  0  0  0  0  0  0  0  0
    2.3841  -21.3972    0.0000 C   0  0  0  0  0  0  0  0  0  0  0  0
    1.6783  -21.8043    0.0000 C   0  0  0  0  0  0  0  0  0  0  0  0
    0.9700  -21.3985    0.0000 C   0  0  0  0  0  0  0  0  0  0  0  0
    0.9716  -20.5813    0.0000 C   0  0  0  0  0  0  0  0  0  0  0  0
    1.6815  -20.1700    0.0000 C   0  0  0  0  0  0  0  0  0  0  0  0
    5.2179  -20.5856    0.0000 C   0  0  0  0  0  0  0  0  0  0  0  0
  1  2  2  0
  2  3  1  0
  3  4  2  0
  4  5  1  0
  5  6  2  0
  6  7  1  0
  7  8  2  0
  8  9  1  0
  9 10  2  0
  1 10  1  0
  5 10  1  0
  7 11  1  0
 12 13  2  0
 13 14  1  0
 14 15  2  0
 15 16  1  0
 16 17  2  0
 12 17  1  0
 18 19  2  0
 19 20  1  0
 20 21  2  0
 21 22  1  0
 22 23  2  0
 18 23  1  0
 12 18  1  0
 16 24  1  0
 11 14  1  0
M  END
>  <Classification>  (811) 
1

>  <pchembl>  (811) 
6.82

>  <InChI_steorem>  (811) 
InChI=1S/C20H16N4/c1-14-12-19(24-20(22-14)15-6-3-2-4-7-15)23-17-9-10-18-16(13-17)8-5-11-21-18/h2-13H,1H3,(H,22,23,24)

>  <source>  (811) 
ChEMBL30

>  <source_id>  (811) 
30

>  <optional_reference>  (811) 
10.1021/acs.jmedchem.0c00961

>  <optional_origin>  (811) 
None

>  <target>  (811) 
BCRP

$$$$

     RDKit          2D

 24 27  0  0  0  0  0  0  0  0999 V2000
    9.6435  -16.8512    0.0000 N   0  0  0  0  0  0  0  0  0  0  0  0
   10.3531  -16.4394    0.0000 C   0  0  0  0  0  0  0  0  0  0  0  0
   11.0575  -16.8488    0.0000 C   0  0  0  0  0  0  0  0  0  0  0  0
   11.0607  -17.6660    0.0000 N   0  0  0  0  0  0  0  0  0  0  0  0
   10.3511  -18.0737    0.0000 C   0  0  0  0  0  0  0  0  0  0  0  0
   10.3501  -18.8909    0.0000 C   0  0  0  0  0  0  0  0  0  0  0  0
    9.6447  -19.3028    0.0000 C   0  0  0  0  0  0  0  0  0  0  0  0
    8.9361  -18.8934    0.0000 C   0  0  0  0  0  0  0  0  0  0  0  0
    8.9370  -18.0762    0.0000 C   0  0  0  0  0  0  0  0  0  0  0  0
    9.6425  -17.6684    0.0000 C   0  0  0  0  0  0  0  0  0  0  0  0
    9.6437  -20.1200    0.0000 N   0  0  0  0  0  0  0  0  0  0  0  0
   11.0558  -21.7561    0.0000 C   0  0  0  0  0  0  0  0  0  0  0  0
   10.3472  -21.3466    0.0000 N   0  0  0  0  0  0  0  0  0  0  0  0
   10.3481  -20.5294    0.0000 C   0  0  0  0  0  0  0  0  0  0  0  0
   11.0577  -20.1217    0.0000 C   0  0  0  0  0  0  0  0  0  0  0  0
   11.7663  -20.5311    0.0000 C   0  0  0  0  0  0  0  0  0  0  0  0
   11.7653  -21.3483    0.0000 N   0  0  0  0  0  0  0  0  0  0  0  0
   11.0548  -22.5733    0.0000 C   0  0  0  0  0  0  0  0  0  0  0  0
   11.7634  -22.9827    0.0000 C   0  0  0  0  0  0  0  0  0  0  0  0
   11.7624  -23.7999    0.0000 C   0  0  0  0  0  0  0  0  0  0  0  0
   11.0528  -24.2077    0.0000 C   0  0  0  0  0  0  0  0  0  0  0  0
   10.3483  -23.7982    0.0000 C   0  0  0  0  0  0  0  0  0  0  0  0
   10.3493  -22.9810    0.0000 C   0  0  0  0  0  0  0  0  0  0  0  0
   12.4718  -20.1234    0.0000 C   0  0  0  0  0  0  0  0  0  0  0  0
  1  2  2  0
  2  3  1  0
  3  4  2  0
  4  5  1  0
  5  6  2  0
  6  7  1  0
  7  8  2  0
  8  9  1  0
  9 10  2  0
  1 10  1  0
  5 10  1  0
  7 11  1  0
 12 13  2  0
 13 14  1  0
 14 15  2  0
 15 16  1  0
 16 17  2  0
 12 17  1  0
 18 19  2  0
 19 20  1  0
 20 21  2  0
 21 22  1  0
 22 23  2  0
 18 23  1  0
 12 18  1  0
 16 24  1  0
 11 14  1  0
M  END
>  <Classification>  (812) 
1

>  <pchembl>  (812) 
6.51

>  <InChI_steorem>  (812) 
InChI=1S/C19H15N5/c1-13-11-18(24-19(22-13)14-5-3-2-4-6-14)23-15-7-8-16-17(12-15)21-10-9-20-16/h2-12H,1H3,(H,22,23,24)

>  <source>  (812) 
ChEMBL30

>  <source_id>  (812) 
30

>  <optional_reference>  (812) 
10.1021/acs.jmedchem.0c00961

>  <optional_origin>  (812) 
None

>  <target>  (812) 
BCRP

$$$$

     RDKit          2D

 25 27  0  0  0  0  0  0  0  0999 V2000
   18.8175  -12.7487    0.0000 C   0  0  0  0  0  0  0  0  0  0  0  0
   18.1070  -12.3427    0.0000 C   0  0  0  0  0  0  0  0  0  0  0  0
   17.4023  -12.7548    0.0000 C   0  0  0  0  0  0  0  0  0  0  0  0
   17.4067  -13.5729    0.0000 C   0  0  0  0  0  0  0  0  0  0  0  0
   18.1219  -13.9770    0.0000 C   0  0  0  0  0  0  0  0  0  0  0  0
   18.8237  -13.5625    0.0000 C   0  0  0  0  0  0  0  0  0  0  0  0
   16.7021  -13.9867    0.0000 C   0  0  0  0  0  0  0  0  0  0  0  0
   16.7081  -14.8038    0.0000 O   0  0  0  0  0  0  0  0  0  0  0  0
   18.1297  -14.7942    0.0000 N   0  0  0  0  0  0  0  0  0  0  0  0
   18.8412  -15.1960    0.0000 C   0  0  0  0  0  0  0  0  0  0  0  0
   18.8490  -16.0132    0.0000 C   0  0  0  0  0  0  0  0  0  0  0  0
   19.5450  -14.7807    0.0000 O   0  0  0  0  0  0  0  0  0  0  0  0
   15.9914  -13.5833    0.0000 O   0  0  0  0  0  0  0  0  0  0  0  0
   15.2867  -13.9971    0.0000 C   0  0  0  0  0  0  0  0  0  0  0  0
   19.5227  -12.3359    0.0000 Br  0  0  0  0  0  0  0  0  0  0  0  0
   18.1446  -16.4214    0.0000 O   0  0  0  0  0  0  0  0  0  0  0  0
   19.5616  -16.4067    0.0000 C   0  0  0  0  0  0  0  0  0  0  0  0
   19.5658  -17.2265    0.0000 C   0  0  0  0  0  0  0  0  0  0  0  0
   20.2757  -17.6314    0.0000 O   0  0  0  0  0  0  0  0  0  0  0  0
   18.8619  -17.6381    0.0000 C   0  0  0  0  0  0  0  0  0  0  0  0
   18.1524  -17.2345    0.0000 C   0  0  0  0  0  0  0  0  0  0  0  0
   17.4502  -17.6469    0.0000 C   0  0  0  0  0  0  0  0  0  0  0  0
   17.4563  -18.4629    0.0000 C   0  0  0  0  0  0  0  0  0  0  0  0
   18.1704  -18.8647    0.0000 C   0  0  0  0  0  0  0  0  0  0  0  0
   18.8696  -18.4499    0.0000 C   0  0  0  0  0  0  0  0  0  0  0  0
  1  2  2  0
  2  3  1  0
  3  4  2  0
  4  5  1  0
  5  6  2  0
  6  1  1  0
  4  7  1  0
  7  8  2  0
  5  9  1  0
  9 10  1  0
 10 11  1  0
 10 12  2  0
  7 13  1  0
 13 14  1  0
  1 15  1  0
 11 16  1  0
 11 17  2  0
 16 21  1  0
 18 17  1  0
 18 20  1  0
 18 19  2  0
 20 21  2  0
 21 22  1  0
 22 23  2  0
 23 24  1  0
 24 25  2  0
 25 20  1  0
M  END
>  <Classification>  (813) 
1

>  <pchembl>  (813) 
6.85

>  <InChI_steorem>  (813) 
InChI=1S/C18H12BrNO5/c1-24-18(23)11-7-6-10(19)8-13(11)20-17(22)16-9-14(21)12-4-2-3-5-15(12)25-16/h2-9H,1H3,(H,20,22)

>  <source>  (813) 
ChEMBL30

>  <source_id>  (813) 
30

>  <optional_reference>  (813) 
10.1016/j.ejmech.2020.112958

>  <optional_origin>  (813) 
None

>  <target>  (813) 
BCRP

$$$$

     RDKit          2D

 25 27  0  0  0  0  0  0  0  0999 V2000
   32.4995   -4.2835    0.0000 C   0  0  0  0  0  0  0  0  0  0  0  0
   32.4982   -5.1108    0.0000 C   0  0  0  0  0  0  0  0  0  0  0  0
   33.2131   -5.5237    0.0000 C   0  0  0  0  0  0  0  0  0  0  0  0
   33.9295   -5.1103    0.0000 C   0  0  0  0  0  0  0  0  0  0  0  0
   33.9267   -4.2798    0.0000 C   0  0  0  0  0  0  0  0  0  0  0  0
   33.2113   -3.8706    0.0000 C   0  0  0  0  0  0  0  0  0  0  0  0
   31.7835   -5.5227    0.0000 N   0  0  0  0  0  0  0  0  0  0  0  0
   31.7828   -6.3477    0.0000 C   0  0  0  0  0  0  0  0  0  0  0  0
   31.0679   -6.7581    0.0000 C   0  0  0  0  0  0  0  0  0  0  0  0
   31.0669   -7.5824    0.0000 C   0  0  0  0  0  0  0  0  0  0  0  0
   31.7815   -7.9963    0.0000 N   0  0  0  0  0  0  0  0  0  0  0  0
   32.4987   -7.5799    0.0000 C   0  0  0  0  0  0  0  0  0  0  0  0
   32.4962   -6.7570    0.0000 N   0  0  0  0  0  0  0  0  0  0  0  0
   33.2119   -7.9877    0.0000 C   0  0  0  0  0  0  0  0  0  0  0  0
   33.2128   -8.8139    0.0000 C   0  0  0  0  0  0  0  0  0  0  0  0
   33.9276   -9.2242    0.0000 C   0  0  0  0  0  0  0  0  0  0  0  0
   34.6420   -8.8098    0.0000 C   0  0  0  0  0  0  0  0  0  0  0  0
   34.6370   -7.9805    0.0000 C   0  0  0  0  0  0  0  0  0  0  0  0
   33.9217   -7.5738    0.0000 C   0  0  0  0  0  0  0  0  0  0  0  0
   34.6373   -3.8634    0.0000 C   0  0  0  0  0  0  0  0  0  0  0  0
   35.3503   -3.4481    0.0000 N   0  0  0  0  0  0  0  0  0  0  0  0
   30.3519   -7.9940    0.0000 N   0  0  0  0  0  0  0  0  0  0  0  0
   29.6379   -7.5805    0.0000 C   0  0  0  0  0  0  0  0  0  0  0  0
   29.6389   -6.7555    0.0000 C   0  0  0  0  0  0  0  0  0  0  0  0
   28.9229   -7.9922    0.0000 C   0  0  0  0  0  0  0  0  0  0  0  0
  1  2  2  0
  2  3  1  0
  3  4  2  0
  4  5  1  0
  5  6  2  0
  6  1  1  0
  2  7  1  0
  7  8  1  0
  8  9  2  0
  9 10  1  0
 10 11  2  0
 11 12  1  0
 12 13  2  0
 13  8  1  0
 14 15  2  0
 15 16  1  0
 16 17  2  0
 17 18  1  0
 18 19  2  0
 19 14  1  0
 12 14  1  0
 20 21  3  0
  5 20  1  0
 10 22  1  0
 22 23  1  0
 23 24  1  0
 23 25  1  0
M  END
>  <Classification>  (814) 
1

>  <pchembl>  (814) 
6.12

>  <InChI_steorem>  (814) 
InChI=1S/C20H19N5/c1-14(2)22-18-12-19(23-17-10-8-15(13-21)9-11-17)25-20(24-18)16-6-4-3-5-7-16/h3-12,14H,1-2H3,(H2,22,23,24,25)

>  <source>  (814) 
ChEMBL30

>  <source_id>  (814) 
30

>  <optional_reference>  (814) 
10.1016/j.ejmech.2020.113045

>  <optional_origin>  (814) 
None

>  <target>  (814) 
BCRP

$$$$

     RDKit          2D

 25 27  0  0  0  0  0  0  0  0999 V2000
   41.5522   -4.6790    0.0000 C   0  0  0  0  0  0  0  0  0  0  0  0
   41.5511   -5.5065    0.0000 C   0  0  0  0  0  0  0  0  0  0  0  0
   42.2659   -5.9193    0.0000 C   0  0  0  0  0  0  0  0  0  0  0  0
   42.9824   -5.5060    0.0000 C   0  0  0  0  0  0  0  0  0  0  0  0
   42.9795   -4.6754    0.0000 C   0  0  0  0  0  0  0  0  0  0  0  0
   42.2641   -4.2663    0.0000 C   0  0  0  0  0  0  0  0  0  0  0  0
   40.8364   -5.9184    0.0000 N   0  0  0  0  0  0  0  0  0  0  0  0
   40.8357   -6.7434    0.0000 C   0  0  0  0  0  0  0  0  0  0  0  0
   40.1208   -7.1537    0.0000 C   0  0  0  0  0  0  0  0  0  0  0  0
   40.1198   -7.9779    0.0000 C   0  0  0  0  0  0  0  0  0  0  0  0
   40.8345   -8.3918    0.0000 N   0  0  0  0  0  0  0  0  0  0  0  0
   41.5516   -7.9755    0.0000 C   0  0  0  0  0  0  0  0  0  0  0  0
   41.5491   -7.1526    0.0000 N   0  0  0  0  0  0  0  0  0  0  0  0
   42.2648   -8.3833    0.0000 C   0  0  0  0  0  0  0  0  0  0  0  0
   42.2657   -9.2094    0.0000 C   0  0  0  0  0  0  0  0  0  0  0  0
   42.9804   -9.6197    0.0000 C   0  0  0  0  0  0  0  0  0  0  0  0
   43.6947   -9.2052    0.0000 C   0  0  0  0  0  0  0  0  0  0  0  0
   43.6899   -8.3760    0.0000 C   0  0  0  0  0  0  0  0  0  0  0  0
   42.9745   -7.9693    0.0000 C   0  0  0  0  0  0  0  0  0  0  0  0
   43.6902   -4.2591    0.0000 C   0  0  0  0  0  0  0  0  0  0  0  0
   44.4031   -3.8438    0.0000 N   0  0  0  0  0  0  0  0  0  0  0  0
   39.4047   -8.3895    0.0000 N   0  0  0  0  0  0  0  0  0  0  0  0
   38.6909   -7.9761    0.0000 C   0  0  0  0  0  0  0  0  0  0  0  0
   37.9758   -8.3877    0.0000 C   0  0  0  0  0  0  0  0  0  0  0  0
   37.9748   -9.2127    0.0000 C   0  0  0  0  0  0  0  0  0  0  0  0
  1  2  2  0
  2  3  1  0
  3  4  2  0
  4  5  1  0
  5  6  2  0
  6  1  1  0
  2  7  1  0
  7  8  1  0
  8  9  2  0
  9 10  1  0
 10 11  2  0
 11 12  1  0
 12 13  2  0
 13  8  1  0
 14 15  2  0
 15 16  1  0
 16 17  2  0
 17 18  1  0
 18 19  2  0
 19 14  1  0
 12 14  1  0
 20 21  3  0
  5 20  1  0
 10 22  1  0
 22 23  1  0
 23 24  1  0
 24 25  1  0
M  END
>  <Classification>  (815) 
1

>  <pchembl>  (815) 
6.53

>  <InChI_steorem>  (815) 
InChI=1S/C20H19N5/c1-2-12-22-18-13-19(23-17-10-8-15(14-21)9-11-17)25-20(24-18)16-6-4-3-5-7-16/h3-11,13H,2,12H2,1H3,(H2,22,23,24,25)

>  <source>  (815) 
ChEMBL30

>  <source_id>  (815) 
30

>  <optional_reference>  (815) 
10.1016/j.ejmech.2020.113045

>  <optional_origin>  (815) 
None

>  <target>  (815) 
BCRP

$$$$

     RDKit          2D

 25 28  0  0  0  0  0  0  0  0999 V2000
   21.6077  -21.8905    0.0000 C   0  0  0  0  0  0  0  0  0  0  0  0
   22.0878  -22.5538    0.0000 N   0  0  0  0  0  0  0  0  0  0  0  0
   21.6077  -23.2129    0.0000 C   0  0  0  0  0  0  0  0  0  0  0  0
   20.8304  -22.9624    0.0000 C   0  0  0  0  0  0  0  0  0  0  0  0
   20.1214  -23.3710    0.0000 C   0  0  0  0  0  0  0  0  0  0  0  0
   19.4164  -22.9624    0.0000 C   0  0  0  0  0  0  0  0  0  0  0  0
   19.4164  -22.1452    0.0000 C   0  0  0  0  0  0  0  0  0  0  0  0
   20.1214  -21.7366    0.0000 C   0  0  0  0  0  0  0  0  0  0  0  0
   20.8304  -22.1452    0.0000 C   0  0  0  0  0  0  0  0  0  0  0  0
   21.8582  -21.1133    0.0000 O   0  0  0  0  0  0  0  0  0  0  0  0
   21.8582  -23.9901    0.0000 O   0  0  0  0  0  0  0  0  0  0  0  0
   18.7073  -23.3710    0.0000 N   0  0  0  0  0  0  0  0  0  0  0  0
   17.2891  -21.7366    0.0000 C   0  0  0  0  0  0  0  0  0  0  0  0
   17.9982  -22.1452    0.0000 N   0  0  0  0  0  0  0  0  0  0  0  0
   17.9982  -22.9624    0.0000 C   0  0  0  0  0  0  0  0  0  0  0  0
   17.2891  -23.3710    0.0000 C   0  0  0  0  0  0  0  0  0  0  0  0
   16.5842  -22.9624    0.0000 C   0  0  0  0  0  0  0  0  0  0  0  0
   16.5842  -22.1452    0.0000 N   0  0  0  0  0  0  0  0  0  0  0  0
   17.2891  -20.9194    0.0000 C   0  0  0  0  0  0  0  0  0  0  0  0
   16.5842  -20.5067    0.0000 C   0  0  0  0  0  0  0  0  0  0  0  0
   16.5842  -19.6895    0.0000 C   0  0  0  0  0  0  0  0  0  0  0  0
   17.2891  -19.2809    0.0000 C   0  0  0  0  0  0  0  0  0  0  0  0
   17.9982  -19.6895    0.0000 C   0  0  0  0  0  0  0  0  0  0  0  0
   17.9982  -20.5067    0.0000 C   0  0  0  0  0  0  0  0  0  0  0  0
   15.8751  -23.3710    0.0000 C   0  0  0  0  0  0  0  0  0  0  0  0
  1  2  1  0
  2  3  1  0
  3  4  1  0
  4  5  2  0
  5  6  1  0
  6  7  2  0
  7  8  1  0
  8  9  2  0
  1  9  1  0
  4  9  1  0
  1 10  2  0
  3 11  2  0
 13 14  2  0
 14 15  1  0
 15 16  2  0
 16 17  1  0
 17 18  2  0
 13 18  1  0
 19 20  2  0
 20 21  1  0
 21 22  2  0
 22 23  1  0
 23 24  2  0
 19 24  1  0
 13 19  1  0
 17 25  1  0
 12 15  1  0
  6 12  1  0
M  END
>  <Classification>  (816) 
1

>  <pchembl>  (816) 
6.6

>  <InChI_steorem>  (816) 
InChI=1S/C19H14N4O2/c1-11-9-16(22-17(20-11)12-5-3-2-4-6-12)21-13-7-8-14-15(10-13)19(25)23-18(14)24/h2-10H,1H3,(H,20,21,22)(H,23,24,25)

>  <source>  (816) 
ChEMBL30

>  <source_id>  (816) 
30

>  <optional_reference>  (816) 
10.1021/acs.jmedchem.0c00961

>  <optional_origin>  (816) 
None

>  <target>  (816) 
BCRP

$$$$

     RDKit          2D

 26 28  0  0  0  0  0  0  0  0999 V2000
   15.3368   -2.2865    0.0000 F   0  0  0  0  0  0  0  0  0  0  0  0
   14.7590   -2.8684    0.0000 C   0  0  0  0  0  0  0  0  0  0  0  0
   15.5518   -3.0779    0.0000 F   0  0  0  0  0  0  0  0  0  0  0  0
   14.0345   -1.6590    0.0000 C   0  0  0  0  0  0  0  0  0  0  0  0
   13.3199   -1.2601    0.0000 C   0  0  0  0  0  0  0  0  0  0  0  0
   12.6186   -1.6795    0.0000 C   0  0  0  0  0  0  0  0  0  0  0  0
   12.6318   -2.4978    0.0000 C   0  0  0  0  0  0  0  0  0  0  0  0
   13.3443   -2.8931    0.0000 C   0  0  0  0  0  0  0  0  0  0  0  0
   14.0457   -2.4737    0.0000 C   0  0  0  0  0  0  0  0  0  0  0  0
   11.9305   -2.9173    0.0000 N   0  0  0  0  0  0  0  0  0  0  0  0
   12.6082   -4.9720    0.0000 C   0  0  0  0  0  0  0  0  0  0  0  0
   12.6196   -4.1573    0.0000 N   0  0  0  0  0  0  0  0  0  0  0  0
   11.9184   -3.7377    0.0000 C   0  0  0  0  0  0  0  0  0  0  0  0
   11.2058   -4.1328    0.0000 C   0  0  0  0  0  0  0  0  0  0  0  0
   11.1923   -4.9511    0.0000 C   0  0  0  0  0  0  0  0  0  0  0  0
   11.8935   -5.3707    0.0000 N   0  0  0  0  0  0  0  0  0  0  0  0
   13.3095   -5.3917    0.0000 C   0  0  0  0  0  0  0  0  0  0  0  0
   13.2960   -6.2099    0.0000 C   0  0  0  0  0  0  0  0  0  0  0  0
   13.9972   -6.6295    0.0000 C   0  0  0  0  0  0  0  0  0  0  0  0
   14.7120   -6.2309    0.0000 C   0  0  0  0  0  0  0  0  0  0  0  0
   14.7233   -5.4161    0.0000 C   0  0  0  0  0  0  0  0  0  0  0  0
   14.0221   -4.9965    0.0000 C   0  0  0  0  0  0  0  0  0  0  0  0
   10.4776   -5.3498    0.0000 C   0  0  0  0  0  0  0  0  0  0  0  0
   14.7354   -1.2434    0.0000 C   0  0  0  0  0  0  0  0  0  0  0  0
   15.4373   -0.8249    0.0000 N   0  0  0  0  0  0  0  0  0  0  0  0
   14.7711   -3.6891    0.0000 F   0  0  0  0  0  0  0  0  0  0  0  0
  2  1  1  0
  3  2  1  0
  4  5  2  0
  5  6  1  0
  6  7  2  0
  7  8  1  0
  8  9  2  0
  4  9  1  0
 11 12  2  0
 12 13  1  0
 13 14  2  0
 14 15  1  0
 15 16  2  0
 11 16  1  0
 17 18  2  0
 18 19  1  0
 19 20  2  0
 20 21  1  0
 21 22  2  0
 17 22  1  0
 11 17  1  0
 15 23  1  0
 10 13  1  0
  7 10  1  0
 24 25  3  0
  4 24  1  0
  9  2  1  0
  2 26  1  0
M  END
>  <Classification>  (817) 
1

>  <pchembl>  (817) 
7.16

>  <InChI_steorem>  (817) 
InChI=1S/C19H13F3N4/c1-12-9-17(26-18(24-12)13-5-3-2-4-6-13)25-15-8-7-14(11-23)16(10-15)19(20,21)22/h2-10H,1H3,(H,24,25,26)

>  <source>  (817) 
ChEMBL30

>  <source_id>  (817) 
30

>  <optional_reference>  (817) 
10.1021/acs.jmedchem.0c00961

>  <optional_origin>  (817) 
None

>  <target>  (817) 
BCRP

$$$$

     RDKit          2D

 26 28  0  0  0  0  0  0  0  0999 V2000
   19.5754   -8.8034    0.0000 F   0  0  0  0  0  0  0  0  0  0  0  0
   18.9976   -9.3853    0.0000 C   0  0  0  0  0  0  0  0  0  0  0  0
   19.7905   -9.5947    0.0000 F   0  0  0  0  0  0  0  0  0  0  0  0
   18.2732   -8.1758    0.0000 C   0  0  0  0  0  0  0  0  0  0  0  0
   17.5586   -7.7770    0.0000 C   0  0  0  0  0  0  0  0  0  0  0  0
   16.8572   -8.1964    0.0000 C   0  0  0  0  0  0  0  0  0  0  0  0
   16.8705   -9.0147    0.0000 C   0  0  0  0  0  0  0  0  0  0  0  0
   17.5830   -9.4100    0.0000 C   0  0  0  0  0  0  0  0  0  0  0  0
   18.2843   -8.9906    0.0000 C   0  0  0  0  0  0  0  0  0  0  0  0
   16.1692   -9.4342    0.0000 N   0  0  0  0  0  0  0  0  0  0  0  0
   16.8469  -11.4889    0.0000 C   0  0  0  0  0  0  0  0  0  0  0  0
   16.8583  -10.6742    0.0000 N   0  0  0  0  0  0  0  0  0  0  0  0
   16.1570  -10.2546    0.0000 C   0  0  0  0  0  0  0  0  0  0  0  0
   15.4444  -10.6497    0.0000 C   0  0  0  0  0  0  0  0  0  0  0  0
   15.4310  -11.4680    0.0000 C   0  0  0  0  0  0  0  0  0  0  0  0
   16.1322  -11.8876    0.0000 N   0  0  0  0  0  0  0  0  0  0  0  0
   17.5481  -11.9085    0.0000 C   0  0  0  0  0  0  0  0  0  0  0  0
   17.5347  -12.7268    0.0000 C   0  0  0  0  0  0  0  0  0  0  0  0
   18.2359  -13.1464    0.0000 C   0  0  0  0  0  0  0  0  0  0  0  0
   18.9506  -12.7478    0.0000 C   0  0  0  0  0  0  0  0  0  0  0  0
   18.9620  -11.9330    0.0000 C   0  0  0  0  0  0  0  0  0  0  0  0
   18.2607  -11.5134    0.0000 C   0  0  0  0  0  0  0  0  0  0  0  0
   14.7162  -11.8667    0.0000 C   0  0  0  0  0  0  0  0  0  0  0  0
   19.0098  -10.2059    0.0000 F   0  0  0  0  0  0  0  0  0  0  0  0
   18.9750   -7.7573    0.0000 O   0  0  0  0  0  0  0  0  0  0  0  0
   19.6885   -8.1559    0.0000 C   0  0  0  0  0  0  0  0  0  0  0  0
  2  1  1  0
  3  2  1  0
  4  5  2  0
  5  6  1  0
  6  7  2  0
  7  8  1  0
  8  9  2  0
  4  9  1  0
 11 12  2  0
 12 13  1  0
 13 14  2  0
 14 15  1  0
 15 16  2  0
 11 16  1  0
 17 18  2  0
 18 19  1  0
 19 20  2  0
 20 21  1  0
 21 22  2  0
 17 22  1  0
 11 17  1  0
 15 23  1  0
 10 13  1  0
  7 10  1  0
  9  2  1  0
  2 24  1  0
  4 25  1  0
 25 26  1  0
M  END
>  <Classification>  (818) 
1

>  <pchembl>  (818) 
6.22

>  <InChI_steorem>  (818) 
InChI=1S/C19H16F3N3O/c1-12-10-17(25-18(23-12)13-6-4-3-5-7-13)24-14-8-9-16(26-2)15(11-14)19(20,21)22/h3-11H,1-2H3,(H,23,24,25)

>  <source>  (818) 
ChEMBL30

>  <source_id>  (818) 
30

>  <optional_reference>  (818) 
10.1021/acs.jmedchem.0c00961

>  <optional_origin>  (818) 
None

>  <target>  (818) 
BCRP

$$$$

     RDKit          2D

 26 28  0  0  0  0  0  0  0  0999 V2000
    2.6786  -23.5128    0.0000 C   0  0  0  0  0  0  0  0  0  0  0  0
    2.6786  -24.3300    0.0000 C   0  0  0  0  0  0  0  0  0  0  0  0
    3.3839  -24.7345    0.0000 C   0  0  0  0  0  0  0  0  0  0  0  0
    4.0891  -24.3300    0.0000 C   0  0  0  0  0  0  0  0  0  0  0  0
    4.0891  -23.5128    0.0000 N   0  0  0  0  0  0  0  0  0  0  0  0
    3.3839  -23.1001    0.0000 C   0  0  0  0  0  0  0  0  0  0  0  0
    1.9715  -24.7396    0.0000 O   0  0  0  0  0  0  0  0  0  0  0  0
    4.7967  -23.1032    0.0000 C   0  0  0  0  0  0  0  0  0  0  0  0
    5.5423  -23.4378    0.0000 S   0  0  0  0  0  0  0  0  0  0  0  0
    6.0909  -22.8321    0.0000 C   0  0  0  0  0  0  0  0  0  0  0  0
    5.6843  -22.1231    0.0000 C   0  0  0  0  0  0  0  0  0  0  0  0
    4.8845  -22.2908    0.0000 C   0  0  0  0  0  0  0  0  0  0  0  0
    6.9033  -22.9199    0.0000 C   0  0  0  0  0  0  0  0  0  0  0  0
    7.2335  -23.6674    0.0000 C   0  0  0  0  0  0  0  0  0  0  0  0
    8.0460  -23.7552    0.0000 C   0  0  0  0  0  0  0  0  0  0  0  0
    6.7513  -24.3271    0.0000 C   0  0  0  0  0  0  0  0  0  0  0  0
    6.2722  -24.9847    0.0000 N   0  0  0  0  0  0  0  0  0  0  0  0
    8.3710  -24.5029    0.0000 C   0  0  0  0  0  0  0  0  0  0  0  0
    9.1827  -24.5909    0.0000 C   0  0  0  0  0  0  0  0  0  0  0  0
    9.6658  -23.9308    0.0000 C   0  0  0  0  0  0  0  0  0  0  0  0
    9.3315  -23.1805    0.0000 C   0  0  0  0  0  0  0  0  0  0  0  0
    8.5208  -23.0960    0.0000 C   0  0  0  0  0  0  0  0  0  0  0  0
    9.8115  -22.5191    0.0000 O   0  0  0  0  0  0  0  0  0  0  0  0
   10.6242  -22.6040    0.0000 C   0  0  0  0  0  0  0  0  0  0  0  0
   10.4784  -24.0175    0.0000 O   0  0  0  0  0  0  0  0  0  0  0  0
   10.8096  -24.7646    0.0000 C   0  0  0  0  0  0  0  0  0  0  0  0
  1  2  1  0
  1  6  1  0
  2  3  1  0
  3  4  1  0
  4  5  1  0
  5  6  1  0
  2  7  1  0
  8  9  1  0
  9 10  1  0
 10 11  2  0
 11 12  1  0
 12  8  2  0
  5  8  1  0
 10 13  1  0
 13 14  2  3
 14 15  1  0
 14 16  1  0
 16 17  3  0
 15 18  2  0
 18 19  1  0
 19 20  2  0
 20 21  1  0
 21 22  2  0
 22 15  1  0
 21 23  1  0
 23 24  1  0
 20 25  1  0
 25 26  1  0
M  END
>  <Classification>  (819) 
1

>  <pchembl>  (819) 
5.48

>  <InChI_steorem>  (819) 
InChI=1S/C20H22N2O3S/c1-24-18-5-3-14(12-19(18)25-2)15(13-21)11-17-4-6-20(26-17)22-9-7-16(23)8-10-22/h3-6,11-12,16,23H,7-10H2,1-2H3

>  <source>  (819) 
ChEMBL30

>  <source_id>  (819) 
30

>  <optional_reference>  (819) 
10.1016/j.ejmech.2020.112133

>  <optional_origin>  (819) 
None

>  <target>  (819) 
BCRP

$$$$

     RDKit          2D

 26 28  0  0  0  0  0  0  0  0999 V2000
    6.0446  -13.0503    0.0000 C   0  0  0  0  0  0  0  0  0  0  0  0
    6.0434  -13.8777    0.0000 C   0  0  0  0  0  0  0  0  0  0  0  0
    6.7582  -14.2905    0.0000 C   0  0  0  0  0  0  0  0  0  0  0  0
    7.4747  -13.8772    0.0000 C   0  0  0  0  0  0  0  0  0  0  0  0
    7.4718  -13.0466    0.0000 C   0  0  0  0  0  0  0  0  0  0  0  0
    6.7564  -12.6375    0.0000 C   0  0  0  0  0  0  0  0  0  0  0  0
    5.3286  -14.2896    0.0000 N   0  0  0  0  0  0  0  0  0  0  0  0
    5.3280  -15.1147    0.0000 C   0  0  0  0  0  0  0  0  0  0  0  0
    4.6130  -15.5251    0.0000 C   0  0  0  0  0  0  0  0  0  0  0  0
    4.6120  -16.3493    0.0000 C   0  0  0  0  0  0  0  0  0  0  0  0
    5.3268  -16.7632    0.0000 N   0  0  0  0  0  0  0  0  0  0  0  0
    6.0439  -16.3468    0.0000 C   0  0  0  0  0  0  0  0  0  0  0  0
    6.0413  -15.5239    0.0000 N   0  0  0  0  0  0  0  0  0  0  0  0
    6.7570  -16.7546    0.0000 C   0  0  0  0  0  0  0  0  0  0  0  0
    6.7579  -17.5808    0.0000 C   0  0  0  0  0  0  0  0  0  0  0  0
    7.4727  -17.9912    0.0000 C   0  0  0  0  0  0  0  0  0  0  0  0
    8.1871  -17.5766    0.0000 C   0  0  0  0  0  0  0  0  0  0  0  0
    8.1822  -16.7474    0.0000 C   0  0  0  0  0  0  0  0  0  0  0  0
    7.4669  -16.3407    0.0000 C   0  0  0  0  0  0  0  0  0  0  0  0
    8.1826  -12.6303    0.0000 C   0  0  0  0  0  0  0  0  0  0  0  0
    8.8954  -12.2150    0.0000 N   0  0  0  0  0  0  0  0  0  0  0  0
    3.8970  -16.7609    0.0000 N   0  0  0  0  0  0  0  0  0  0  0  0
    3.1830  -16.3475    0.0000 C   0  0  0  0  0  0  0  0  0  0  0  0
    2.4680  -16.7591    0.0000 C   0  0  0  0  0  0  0  0  0  0  0  0
    1.7540  -16.3456    0.0000 C   0  0  0  0  0  0  0  0  0  0  0  0
    1.0391  -16.7572    0.0000 C   0  0  0  0  0  0  0  0  0  0  0  0
  1  2  2  0
  2  3  1  0
  3  4  2  0
  4  5  1  0
  5  6  2  0
  6  1  1  0
  2  7  1  0
  7  8  1  0
  8  9  2  0
  9 10  1  0
 10 11  2  0
 11 12  1  0
 12 13  2  0
 13  8  1  0
 14 15  2  0
 15 16  1  0
 16 17  2  0
 17 18  1  0
 18 19  2  0
 19 14  1  0
 12 14  1  0
 20 21  3  0
  5 20  1  0
 10 22  1  0
 22 23  1  0
 23 24  1  0
 24 25  1  0
 25 26  1  0
M  END
>  <Classification>  (820) 
1

>  <pchembl>  (820) 
6.3

>  <InChI_steorem>  (820) 
InChI=1S/C21H21N5/c1-2-3-13-23-19-14-20(24-18-11-9-16(15-22)10-12-18)26-21(25-19)17-7-5-4-6-8-17/h4-12,14H,2-3,13H2,1H3,(H2,23,24,25,26)

>  <source>  (820) 
ChEMBL30

>  <source_id>  (820) 
30

>  <optional_reference>  (820) 
10.1016/j.ejmech.2020.113045

>  <optional_origin>  (820) 
None

>  <target>  (820) 
BCRP

$$$$

     RDKit          2D

 27 30  0  0  0  0  0  0  0  0999 V2000
   13.7216  -13.0172    0.0000 C   0  0  0  0  0  0  0  0  0  0  0  0
   13.7205  -13.8368    0.0000 C   0  0  0  0  0  0  0  0  0  0  0  0
   14.4285  -14.2457    0.0000 C   0  0  0  0  0  0  0  0  0  0  0  0
   15.1382  -13.8363    0.0000 C   0  0  0  0  0  0  0  0  0  0  0  0
   15.1353  -13.0136    0.0000 C   0  0  0  0  0  0  0  0  0  0  0  0
   14.4267  -12.6084    0.0000 C   0  0  0  0  0  0  0  0  0  0  0  0
   13.0124  -14.2448    0.0000 N   0  0  0  0  0  0  0  0  0  0  0  0
   13.0118  -15.0620    0.0000 C   0  0  0  0  0  0  0  0  0  0  0  0
   12.3037  -15.4685    0.0000 C   0  0  0  0  0  0  0  0  0  0  0  0
   12.3027  -16.2849    0.0000 C   0  0  0  0  0  0  0  0  0  0  0  0
   13.0106  -16.6949    0.0000 N   0  0  0  0  0  0  0  0  0  0  0  0
   13.7210  -16.2825    0.0000 C   0  0  0  0  0  0  0  0  0  0  0  0
   13.7185  -15.4674    0.0000 N   0  0  0  0  0  0  0  0  0  0  0  0
   14.4274  -16.6864    0.0000 C   0  0  0  0  0  0  0  0  0  0  0  0
   14.4283  -17.5047    0.0000 C   0  0  0  0  0  0  0  0  0  0  0  0
   15.1363  -17.9112    0.0000 C   0  0  0  0  0  0  0  0  0  0  0  0
   15.8438  -17.5006    0.0000 C   0  0  0  0  0  0  0  0  0  0  0  0
   15.8390  -16.6792    0.0000 C   0  0  0  0  0  0  0  0  0  0  0  0
   15.1304  -16.2764    0.0000 C   0  0  0  0  0  0  0  0  0  0  0  0
   15.8393  -12.6012    0.0000 C   0  0  0  0  0  0  0  0  0  0  0  0
   16.5454  -12.1899    0.0000 N   0  0  0  0  0  0  0  0  0  0  0  0
   11.5975  -16.6916    0.0000 C   0  0  0  0  0  0  0  0  0  0  0  0
   10.8900  -16.2803    0.0000 C   0  0  0  0  0  0  0  0  0  0  0  0
   10.1823  -16.6874    0.0000 C   0  0  0  0  0  0  0  0  0  0  0  0
   10.1808  -17.5054    0.0000 C   0  0  0  0  0  0  0  0  0  0  0  0
   10.8930  -17.9148    0.0000 C   0  0  0  0  0  0  0  0  0  0  0  0
   11.5978  -17.5054    0.0000 C   0  0  0  0  0  0  0  0  0  0  0  0
  1  2  2  0
  2  3  1  0
  3  4  2  0
  4  5  1  0
  5  6  2  0
  6  1  1  0
  2  7  1  0
  7  8  1  0
  8  9  2  0
  9 10  1  0
 10 11  2  0
 11 12  1  0
 12 13  2  0
 13  8  1  0
 14 15  2  0
 15 16  1  0
 16 17  2  0
 17 18  1  0
 18 19  2  0
 19 14  1  0
 12 14  1  0
 20 21  3  0
  5 20  1  0
 22 23  2  0
 23 24  1  0
 24 25  2  0
 25 26  1  0
 26 27  2  0
 27 22  1  0
 10 22  1  0
M  END
>  <Classification>  (821) 
1

>  <pchembl>  (821) 
5.36

>  <InChI_steorem>  (821) 
InChI=1S/C23H16N4/c24-16-17-11-13-20(14-12-17)25-22-15-21(18-7-3-1-4-8-18)26-23(27-22)19-9-5-2-6-10-19/h1-15H,(H,25,26,27)

>  <source>  (821) 
ChEMBL30

>  <source_id>  (821) 
30

>  <optional_reference>  (821) 
10.1016/j.ejmech.2020.113045

>  <optional_origin>  (821) 
None

>  <target>  (821) 
BCRP

$$$$

     RDKit          2D

 28 31  0  0  0  0  0  0  0  0999 V2000
   21.8192  -12.5839    0.0000 C   0  0  0  0  0  0  0  0  0  0  0  0
   21.8181  -13.4034    0.0000 C   0  0  0  0  0  0  0  0  0  0  0  0
   22.5261  -13.8124    0.0000 C   0  0  0  0  0  0  0  0  0  0  0  0
   23.2358  -13.4029    0.0000 C   0  0  0  0  0  0  0  0  0  0  0  0
   23.2330  -12.5803    0.0000 C   0  0  0  0  0  0  0  0  0  0  0  0
   22.5244  -12.1750    0.0000 C   0  0  0  0  0  0  0  0  0  0  0  0
   21.1101  -13.8115    0.0000 N   0  0  0  0  0  0  0  0  0  0  0  0
   21.1094  -14.6286    0.0000 C   0  0  0  0  0  0  0  0  0  0  0  0
   20.4013  -15.0351    0.0000 C   0  0  0  0  0  0  0  0  0  0  0  0
   20.4003  -15.8516    0.0000 C   0  0  0  0  0  0  0  0  0  0  0  0
   21.1082  -16.2615    0.0000 N   0  0  0  0  0  0  0  0  0  0  0  0
   21.8186  -15.8491    0.0000 C   0  0  0  0  0  0  0  0  0  0  0  0
   21.8161  -15.0340    0.0000 N   0  0  0  0  0  0  0  0  0  0  0  0
   22.5250  -16.2530    0.0000 C   0  0  0  0  0  0  0  0  0  0  0  0
   22.5259  -17.0713    0.0000 C   0  0  0  0  0  0  0  0  0  0  0  0
   23.2339  -17.4779    0.0000 C   0  0  0  0  0  0  0  0  0  0  0  0
   23.9415  -17.0673    0.0000 C   0  0  0  0  0  0  0  0  0  0  0  0
   23.9366  -16.2459    0.0000 C   0  0  0  0  0  0  0  0  0  0  0  0
   23.2280  -15.8430    0.0000 C   0  0  0  0  0  0  0  0  0  0  0  0
   23.9369  -12.1678    0.0000 C   0  0  0  0  0  0  0  0  0  0  0  0
   24.6431  -11.7566    0.0000 N   0  0  0  0  0  0  0  0  0  0  0  0
   19.6951  -16.2582    0.0000 N   0  0  0  0  0  0  0  0  0  0  0  0
   19.6947  -17.0754    0.0000 C   0  0  0  0  0  0  0  0  0  0  0  0
   18.9856  -17.4816    0.0000 C   0  0  0  0  0  0  0  0  0  0  0  0
   18.9848  -18.2980    0.0000 C   0  0  0  0  0  0  0  0  0  0  0  0
   19.6929  -18.7078    0.0000 C   0  0  0  0  0  0  0  0  0  0  0  0
   20.4031  -18.2952    0.0000 C   0  0  0  0  0  0  0  0  0  0  0  0
   20.4004  -17.4801    0.0000 C   0  0  0  0  0  0  0  0  0  0  0  0
  1  2  2  0
  2  3  1  0
  3  4  2  0
  4  5  1  0
  5  6  2  0
  6  1  1  0
  2  7  1  0
  7  8  1  0
  8  9  2  0
  9 10  1  0
 10 11  2  0
 11 12  1  0
 12 13  2  0
 13  8  1  0
 14 15  2  0
 15 16  1  0
 16 17  2  0
 17 18  1  0
 18 19  2  0
 19 14  1  0
 12 14  1  0
 20 21  3  0
  5 20  1  0
 10 22  1  0
 22 23  1  0
 23 24  2  0
 24 25  1  0
 25 26  2  0
 26 27  1  0
 27 28  2  0
 28 23  1  0
M  END
>  <Classification>  (822) 
1

>  <pchembl>  (822) 
6.77

>  <InChI_steorem>  (822) 
InChI=1S/C23H17N5/c24-16-17-11-13-20(14-12-17)26-22-15-21(25-19-9-5-2-6-10-19)27-23(28-22)18-7-3-1-4-8-18/h1-15H,(H2,25,26,27,28)

>  <source>  (822) 
ChEMBL30

>  <source_id>  (822) 
30

>  <optional_reference>  (822) 
10.1016/j.ejmech.2020.113045

>  <optional_origin>  (822) 
None

>  <target>  (822) 
BCRP

$$$$

     RDKit          2D

 29 32  0  0  0  0  0  0  0  0999 V2000
   14.9804  -21.9816    0.0000 C   0  0  0  0  0  0  0  0  0  0  0  0
   14.9793  -22.8011    0.0000 C   0  0  0  0  0  0  0  0  0  0  0  0
   15.6873  -23.2101    0.0000 C   0  0  0  0  0  0  0  0  0  0  0  0
   16.3970  -22.8006    0.0000 C   0  0  0  0  0  0  0  0  0  0  0  0
   16.3942  -21.9780    0.0000 C   0  0  0  0  0  0  0  0  0  0  0  0
   15.6855  -21.5727    0.0000 C   0  0  0  0  0  0  0  0  0  0  0  0
   14.2712  -23.2092    0.0000 N   0  0  0  0  0  0  0  0  0  0  0  0
   14.2706  -24.0263    0.0000 C   0  0  0  0  0  0  0  0  0  0  0  0
   13.5625  -24.4328    0.0000 C   0  0  0  0  0  0  0  0  0  0  0  0
   13.5615  -25.2493    0.0000 C   0  0  0  0  0  0  0  0  0  0  0  0
   14.2694  -25.6592    0.0000 N   0  0  0  0  0  0  0  0  0  0  0  0
   14.9798  -25.2468    0.0000 C   0  0  0  0  0  0  0  0  0  0  0  0
   14.9773  -24.4317    0.0000 N   0  0  0  0  0  0  0  0  0  0  0  0
   15.6862  -25.6507    0.0000 C   0  0  0  0  0  0  0  0  0  0  0  0
   15.6871  -26.4690    0.0000 C   0  0  0  0  0  0  0  0  0  0  0  0
   16.3951  -26.8756    0.0000 C   0  0  0  0  0  0  0  0  0  0  0  0
   17.1026  -26.4650    0.0000 C   0  0  0  0  0  0  0  0  0  0  0  0
   17.0978  -25.6436    0.0000 C   0  0  0  0  0  0  0  0  0  0  0  0
   16.3892  -25.2407    0.0000 C   0  0  0  0  0  0  0  0  0  0  0  0
   17.0981  -21.5655    0.0000 C   0  0  0  0  0  0  0  0  0  0  0  0
   17.8042  -21.1543    0.0000 N   0  0  0  0  0  0  0  0  0  0  0  0
   12.8563  -25.6559    0.0000 N   0  0  0  0  0  0  0  0  0  0  0  0
   12.8559  -26.4731    0.0000 C   0  0  0  0  0  0  0  0  0  0  0  0
   12.1480  -26.8813    0.0000 C   0  0  0  0  0  0  0  0  0  0  0  0
   11.4423  -26.4684    0.0000 N   0  0  0  0  0  0  0  0  0  0  0  0
   10.7349  -26.8760    0.0000 C   0  0  0  0  0  0  0  0  0  0  0  0
   10.7340  -27.6941    0.0000 C   0  0  0  0  0  0  0  0  0  0  0  0
   11.4465  -28.1029    0.0000 C   0  0  0  0  0  0  0  0  0  0  0  0
   12.1510  -27.6930    0.0000 C   0  0  0  0  0  0  0  0  0  0  0  0
  1  2  2  0
  2  3  1  0
  3  4  2  0
  4  5  1  0
  5  6  2  0
  6  1  1  0
  2  7  1  0
  7  8  1  0
  8  9  2  0
  9 10  1  0
 10 11  2  0
 11 12  1  0
 12 13  2  0
 13  8  1  0
 14 15  2  0
 15 16  1  0
 16 17  2  0
 17 18  1  0
 18 19  2  0
 19 14  1  0
 12 14  1  0
 20 21  3  0
  5 20  1  0
 10 22  1  0
 22 23  1  0
 23 24  1  0
 24 25  2  0
 25 26  1  0
 26 27  2  0
 27 28  1  0
 28 29  2  0
 29 24  1  0
M  END
>  <Classification>  (823) 
1

>  <pchembl>  (823) 
6.68

>  <InChI_steorem>  (823) 
InChI=1S/C23H18N6/c24-15-17-9-11-19(12-10-17)27-22-14-21(26-16-20-8-4-5-13-25-20)28-23(29-22)18-6-2-1-3-7-18/h1-14H,16H2,(H2,26,27,28,29)

>  <source>  (823) 
ChEMBL30

>  <source_id>  (823) 
30

>  <optional_reference>  (823) 
10.1016/j.ejmech.2020.113045

>  <optional_origin>  (823) 
None

>  <target>  (823) 
BCRP

$$$$

     RDKit          2D

 29 32  0  0  0  0  0  0  0  0999 V2000
   20.3706  -11.7048    0.0000 C   0  0  0  0  0  0  0  0  0  0  0  0
   20.3694  -12.5243    0.0000 C   0  0  0  0  0  0  0  0  0  0  0  0
   21.0775  -12.9333    0.0000 C   0  0  0  0  0  0  0  0  0  0  0  0
   21.7871  -12.5238    0.0000 C   0  0  0  0  0  0  0  0  0  0  0  0
   21.7843  -11.7012    0.0000 C   0  0  0  0  0  0  0  0  0  0  0  0
   21.0757  -11.2959    0.0000 C   0  0  0  0  0  0  0  0  0  0  0  0
   19.6614  -12.9324    0.0000 N   0  0  0  0  0  0  0  0  0  0  0  0
   19.6608  -13.7495    0.0000 C   0  0  0  0  0  0  0  0  0  0  0  0
   18.9526  -14.1560    0.0000 C   0  0  0  0  0  0  0  0  0  0  0  0
   18.9516  -14.9725    0.0000 C   0  0  0  0  0  0  0  0  0  0  0  0
   19.6595  -15.3824    0.0000 N   0  0  0  0  0  0  0  0  0  0  0  0
   20.3699  -14.9700    0.0000 C   0  0  0  0  0  0  0  0  0  0  0  0
   20.3674  -14.1549    0.0000 N   0  0  0  0  0  0  0  0  0  0  0  0
   21.0763  -15.3739    0.0000 C   0  0  0  0  0  0  0  0  0  0  0  0
   21.0772  -16.1922    0.0000 C   0  0  0  0  0  0  0  0  0  0  0  0
   21.7852  -16.5988    0.0000 C   0  0  0  0  0  0  0  0  0  0  0  0
   22.4928  -16.1882    0.0000 C   0  0  0  0  0  0  0  0  0  0  0  0
   22.4879  -15.3668    0.0000 C   0  0  0  0  0  0  0  0  0  0  0  0
   21.7794  -14.9639    0.0000 C   0  0  0  0  0  0  0  0  0  0  0  0
   22.4882  -11.2887    0.0000 C   0  0  0  0  0  0  0  0  0  0  0  0
   23.1944  -10.8775    0.0000 N   0  0  0  0  0  0  0  0  0  0  0  0
   18.2465  -15.3791    0.0000 N   0  0  0  0  0  0  0  0  0  0  0  0
   18.2461  -16.1963    0.0000 C   0  0  0  0  0  0  0  0  0  0  0  0
   17.5369  -16.6025    0.0000 C   0  0  0  0  0  0  0  0  0  0  0  0
   17.5362  -17.4189    0.0000 C   0  0  0  0  0  0  0  0  0  0  0  0
   18.2442  -17.8287    0.0000 C   0  0  0  0  0  0  0  0  0  0  0  0
   18.9545  -17.4161    0.0000 C   0  0  0  0  0  0  0  0  0  0  0  0
   18.9518  -16.6010    0.0000 C   0  0  0  0  0  0  0  0  0  0  0  0
   16.8281  -17.8268    0.0000 O   0  0  0  0  0  0  0  0  0  0  0  0
  1  2  2  0
  2  3  1  0
  3  4  2  0
  4  5  1  0
  5  6  2  0
  6  1  1  0
  2  7  1  0
  7  8  1  0
  8  9  2  0
  9 10  1  0
 10 11  2  0
 11 12  1  0
 12 13  2  0
 13  8  1  0
 14 15  2  0
 15 16  1  0
 16 17  2  0
 17 18  1  0
 18 19  2  0
 19 14  1  0
 12 14  1  0
 20 21  3  0
  5 20  1  0
 10 22  1  0
 22 23  1  0
 23 24  2  0
 24 25  1  0
 25 26  2  0
 26 27  1  0
 27 28  2  0
 28 23  1  0
 25 29  1  0
M  END
>  <Classification>  (824) 
1

>  <pchembl>  (824) 
6.22

>  <InChI_steorem>  (824) 
InChI=1S/C23H17N5O/c24-15-16-9-11-18(12-10-16)25-21-14-22(26-19-7-4-8-20(29)13-19)28-23(27-21)17-5-2-1-3-6-17/h1-14,29H,(H2,25,26,27,28)

>  <source>  (824) 
ChEMBL30

>  <source_id>  (824) 
30

>  <optional_reference>  (824) 
10.1016/j.ejmech.2020.113045

>  <optional_origin>  (824) 
None

>  <target>  (824) 
BCRP

$$$$

     RDKit          2D

 29 32  0  0  0  0  0  0  0  0999 V2000
   22.2732  -21.6720    0.0000 C   0  0  0  0  0  0  0  0  0  0  0  0
   22.2721  -22.4916    0.0000 C   0  0  0  0  0  0  0  0  0  0  0  0
   22.9801  -22.9005    0.0000 C   0  0  0  0  0  0  0  0  0  0  0  0
   23.6898  -22.4911    0.0000 C   0  0  0  0  0  0  0  0  0  0  0  0
   23.6870  -21.6684    0.0000 C   0  0  0  0  0  0  0  0  0  0  0  0
   22.9783  -21.2632    0.0000 C   0  0  0  0  0  0  0  0  0  0  0  0
   21.5641  -22.8996    0.0000 N   0  0  0  0  0  0  0  0  0  0  0  0
   21.5634  -23.7168    0.0000 C   0  0  0  0  0  0  0  0  0  0  0  0
   20.8553  -24.1233    0.0000 C   0  0  0  0  0  0  0  0  0  0  0  0
   20.8543  -24.9397    0.0000 C   0  0  0  0  0  0  0  0  0  0  0  0
   21.5622  -25.3497    0.0000 N   0  0  0  0  0  0  0  0  0  0  0  0
   22.2726  -24.9373    0.0000 C   0  0  0  0  0  0  0  0  0  0  0  0
   22.2701  -24.1222    0.0000 N   0  0  0  0  0  0  0  0  0  0  0  0
   22.9790  -25.3412    0.0000 C   0  0  0  0  0  0  0  0  0  0  0  0
   22.9799  -26.1595    0.0000 C   0  0  0  0  0  0  0  0  0  0  0  0
   23.6879  -26.5660    0.0000 C   0  0  0  0  0  0  0  0  0  0  0  0
   24.3954  -26.1554    0.0000 C   0  0  0  0  0  0  0  0  0  0  0  0
   24.3906  -25.3340    0.0000 C   0  0  0  0  0  0  0  0  0  0  0  0
   23.6820  -24.9312    0.0000 C   0  0  0  0  0  0  0  0  0  0  0  0
   24.3909  -21.2560    0.0000 C   0  0  0  0  0  0  0  0  0  0  0  0
   25.0971  -20.8447    0.0000 N   0  0  0  0  0  0  0  0  0  0  0  0
   20.1491  -25.3464    0.0000 N   0  0  0  0  0  0  0  0  0  0  0  0
   20.1487  -26.1635    0.0000 C   0  0  0  0  0  0  0  0  0  0  0  0
   19.4408  -26.5718    0.0000 C   0  0  0  0  0  0  0  0  0  0  0  0
   18.7351  -26.1589    0.0000 C   0  0  0  0  0  0  0  0  0  0  0  0
   18.0277  -26.5665    0.0000 N   0  0  0  0  0  0  0  0  0  0  0  0
   18.0268  -27.3845    0.0000 C   0  0  0  0  0  0  0  0  0  0  0  0
   18.7393  -27.7933    0.0000 C   0  0  0  0  0  0  0  0  0  0  0  0
   19.4438  -27.3834    0.0000 C   0  0  0  0  0  0  0  0  0  0  0  0
  1  2  2  0
  2  3  1  0
  3  4  2  0
  4  5  1  0
  5  6  2  0
  6  1  1  0
  2  7  1  0
  7  8  1  0
  8  9  2  0
  9 10  1  0
 10 11  2  0
 11 12  1  0
 12 13  2  0
 13  8  1  0
 14 15  2  0
 15 16  1  0
 16 17  2  0
 17 18  1  0
 18 19  2  0
 19 14  1  0
 12 14  1  0
 20 21  3  0
  5 20  1  0
 10 22  1  0
 22 23  1  0
 23 24  1  0
 24 25  2  0
 25 26  1  0
 26 27  2  0
 27 28  1  0
 28 29  2  0
 29 24  1  0
M  END
>  <Classification>  (825) 
1

>  <pchembl>  (825) 
6.43

>  <InChI_steorem>  (825) 
InChI=1S/C23H18N6/c24-14-17-8-10-20(11-9-17)27-22-13-21(26-16-18-5-4-12-25-15-18)28-23(29-22)19-6-2-1-3-7-19/h1-13,15H,16H2,(H2,26,27,28,29)

>  <source>  (825) 
ChEMBL30

>  <source_id>  (825) 
30

>  <optional_reference>  (825) 
10.1016/j.ejmech.2020.113045

>  <optional_origin>  (825) 
None

>  <target>  (825) 
BCRP

$$$$

     RDKit          2D

 29 32  0  0  0  0  0  0  0  0999 V2000
   30.9074  -13.0709    0.0000 C   0  0  0  0  0  0  0  0  0  0  0  0
   30.9063  -13.8904    0.0000 C   0  0  0  0  0  0  0  0  0  0  0  0
   31.6143  -14.2994    0.0000 C   0  0  0  0  0  0  0  0  0  0  0  0
   32.3240  -13.8900    0.0000 C   0  0  0  0  0  0  0  0  0  0  0  0
   32.3211  -13.0673    0.0000 C   0  0  0  0  0  0  0  0  0  0  0  0
   31.6125  -12.6620    0.0000 C   0  0  0  0  0  0  0  0  0  0  0  0
   30.1982  -14.2985    0.0000 N   0  0  0  0  0  0  0  0  0  0  0  0
   30.1976  -15.1157    0.0000 C   0  0  0  0  0  0  0  0  0  0  0  0
   29.4894  -15.5221    0.0000 C   0  0  0  0  0  0  0  0  0  0  0  0
   29.4884  -16.3386    0.0000 C   0  0  0  0  0  0  0  0  0  0  0  0
   30.1964  -16.7485    0.0000 N   0  0  0  0  0  0  0  0  0  0  0  0
   30.9067  -16.3361    0.0000 C   0  0  0  0  0  0  0  0  0  0  0  0
   30.9042  -15.5210    0.0000 N   0  0  0  0  0  0  0  0  0  0  0  0
   31.6132  -16.7400    0.0000 C   0  0  0  0  0  0  0  0  0  0  0  0
   31.6141  -17.5583    0.0000 C   0  0  0  0  0  0  0  0  0  0  0  0
   32.3220  -17.9649    0.0000 C   0  0  0  0  0  0  0  0  0  0  0  0
   33.0296  -17.5543    0.0000 C   0  0  0  0  0  0  0  0  0  0  0  0
   33.0247  -16.7329    0.0000 C   0  0  0  0  0  0  0  0  0  0  0  0
   32.3162  -16.3300    0.0000 C   0  0  0  0  0  0  0  0  0  0  0  0
   33.0251  -12.6548    0.0000 C   0  0  0  0  0  0  0  0  0  0  0  0
   33.7312  -12.2436    0.0000 N   0  0  0  0  0  0  0  0  0  0  0  0
   28.7833  -16.7452    0.0000 N   0  0  0  0  0  0  0  0  0  0  0  0
   28.7829  -17.5624    0.0000 C   0  0  0  0  0  0  0  0  0  0  0  0
   28.0750  -17.9706    0.0000 C   0  0  0  0  0  0  0  0  0  0  0  0
   27.3693  -17.5578    0.0000 C   0  0  0  0  0  0  0  0  0  0  0  0
   26.6618  -17.9653    0.0000 C   0  0  0  0  0  0  0  0  0  0  0  0
   26.6610  -18.7834    0.0000 C   0  0  0  0  0  0  0  0  0  0  0  0
   27.3734  -19.1922    0.0000 C   0  0  0  0  0  0  0  0  0  0  0  0
   28.0780  -18.7823    0.0000 C   0  0  0  0  0  0  0  0  0  0  0  0
  1  2  2  0
  2  3  1  0
  3  4  2  0
  4  5  1  0
  5  6  2  0
  6  1  1  0
  2  7  1  0
  7  8  1  0
  8  9  2  0
  9 10  1  0
 10 11  2  0
 11 12  1  0
 12 13  2  0
 13  8  1  0
 14 15  2  0
 15 16  1  0
 16 17  2  0
 17 18  1  0
 18 19  2  0
 19 14  1  0
 12 14  1  0
 20 21  3  0
  5 20  1  0
 10 22  1  0
 22 23  1  0
 23 24  1  0
 24 25  2  0
 25 26  1  0
 26 27  2  0
 27 28  1  0
 28 29  2  0
 29 24  1  0
M  END
>  <Classification>  (826) 
1

>  <pchembl>  (826) 
6.55

>  <InChI_steorem>  (826) 
InChI=1S/C24H19N5/c25-16-18-11-13-21(14-12-18)27-23-15-22(26-17-19-7-3-1-4-8-19)28-24(29-23)20-9-5-2-6-10-20/h1-15H,17H2,(H2,26,27,28,29)

>  <source>  (826) 
ChEMBL30

>  <source_id>  (826) 
30

>  <optional_reference>  (826) 
10.1016/j.ejmech.2020.113045

>  <optional_origin>  (826) 
None

>  <target>  (826) 
BCRP

$$$$

     RDKit          2D

 29 32  0  0  0  0  0  0  0  0999 V2000
   31.5265  -21.0199    0.0000 C   0  0  0  0  0  0  0  0  0  0  0  0
   31.5253  -21.8395    0.0000 C   0  0  0  0  0  0  0  0  0  0  0  0
   32.2334  -22.2484    0.0000 C   0  0  0  0  0  0  0  0  0  0  0  0
   32.9430  -21.8390    0.0000 C   0  0  0  0  0  0  0  0  0  0  0  0
   32.9402  -21.0163    0.0000 C   0  0  0  0  0  0  0  0  0  0  0  0
   32.2316  -20.6111    0.0000 C   0  0  0  0  0  0  0  0  0  0  0  0
   30.8173  -22.2475    0.0000 N   0  0  0  0  0  0  0  0  0  0  0  0
   30.8167  -23.0647    0.0000 C   0  0  0  0  0  0  0  0  0  0  0  0
   30.1085  -23.4712    0.0000 C   0  0  0  0  0  0  0  0  0  0  0  0
   30.1075  -24.2876    0.0000 C   0  0  0  0  0  0  0  0  0  0  0  0
   30.8154  -24.6976    0.0000 N   0  0  0  0  0  0  0  0  0  0  0  0
   31.5258  -24.2852    0.0000 C   0  0  0  0  0  0  0  0  0  0  0  0
   31.5233  -23.4701    0.0000 N   0  0  0  0  0  0  0  0  0  0  0  0
   32.2322  -24.6891    0.0000 C   0  0  0  0  0  0  0  0  0  0  0  0
   32.2331  -25.5074    0.0000 C   0  0  0  0  0  0  0  0  0  0  0  0
   32.9411  -25.9139    0.0000 C   0  0  0  0  0  0  0  0  0  0  0  0
   33.6487  -25.5033    0.0000 C   0  0  0  0  0  0  0  0  0  0  0  0
   33.6438  -24.6819    0.0000 C   0  0  0  0  0  0  0  0  0  0  0  0
   32.9353  -24.2791    0.0000 C   0  0  0  0  0  0  0  0  0  0  0  0
   33.6441  -20.6039    0.0000 C   0  0  0  0  0  0  0  0  0  0  0  0
   34.3503  -20.1926    0.0000 N   0  0  0  0  0  0  0  0  0  0  0  0
   29.4024  -24.6943    0.0000 N   0  0  0  0  0  0  0  0  0  0  0  0
   29.4020  -25.5114    0.0000 C   0  0  0  0  0  0  0  0  0  0  0  0
   28.6940  -25.9197    0.0000 C   0  0  0  0  0  0  0  0  0  0  0  0
   27.9883  -25.5068    0.0000 C   0  0  0  0  0  0  0  0  0  0  0  0
   27.2809  -25.9144    0.0000 C   0  0  0  0  0  0  0  0  0  0  0  0
   27.2801  -26.7324    0.0000 N   0  0  0  0  0  0  0  0  0  0  0  0
   27.9925  -27.1412    0.0000 C   0  0  0  0  0  0  0  0  0  0  0  0
   28.6970  -26.7313    0.0000 C   0  0  0  0  0  0  0  0  0  0  0  0
  1  2  2  0
  2  3  1  0
  3  4  2  0
  4  5  1  0
  5  6  2  0
  6  1  1  0
  2  7  1  0
  7  8  1  0
  8  9  2  0
  9 10  1  0
 10 11  2  0
 11 12  1  0
 12 13  2  0
 13  8  1  0
 14 15  2  0
 15 16  1  0
 16 17  2  0
 17 18  1  0
 18 19  2  0
 19 14  1  0
 12 14  1  0
 20 21  3  0
  5 20  1  0
 10 22  1  0
 22 23  1  0
 23 24  1  0
 24 25  2  0
 25 26  1  0
 26 27  2  0
 27 28  1  0
 28 29  2  0
 29 24  1  0
M  END
>  <Classification>  (827) 
1

>  <pchembl>  (827) 
6.36

>  <InChI_steorem>  (827) 
InChI=1S/C23H18N6/c24-15-17-6-8-20(9-7-17)27-22-14-21(26-16-18-10-12-25-13-11-18)28-23(29-22)19-4-2-1-3-5-19/h1-14H,16H2,(H2,26,27,28,29)

>  <source>  (827) 
ChEMBL30

>  <source_id>  (827) 
30

>  <optional_reference>  (827) 
10.1016/j.ejmech.2020.113045

>  <optional_origin>  (827) 
None

>  <target>  (827) 
BCRP

$$$$

     RDKit          2D

 29 32  0  0  0  0  0  0  0  0999 V2000
   33.4609   -1.5103    0.0000 C   0  0  0  0  0  0  0  0  0  0  0  0
   32.7504   -1.1042    0.0000 C   0  0  0  0  0  0  0  0  0  0  0  0
   32.0457   -1.5164    0.0000 C   0  0  0  0  0  0  0  0  0  0  0  0
   32.0502   -2.3345    0.0000 C   0  0  0  0  0  0  0  0  0  0  0  0
   32.7653   -2.7386    0.0000 C   0  0  0  0  0  0  0  0  0  0  0  0
   33.4671   -2.3241    0.0000 C   0  0  0  0  0  0  0  0  0  0  0  0
   31.3455   -2.7482    0.0000 C   0  0  0  0  0  0  0  0  0  0  0  0
   32.7731   -3.5557    0.0000 N   0  0  0  0  0  0  0  0  0  0  0  0
   33.4847   -3.9576    0.0000 C   0  0  0  0  0  0  0  0  0  0  0  0
   33.4924   -4.7747    0.0000 C   0  0  0  0  0  0  0  0  0  0  0  0
   34.1884   -3.5422    0.0000 O   0  0  0  0  0  0  0  0  0  0  0  0
   32.7880   -5.1829    0.0000 O   0  0  0  0  0  0  0  0  0  0  0  0
   34.2050   -5.1683    0.0000 C   0  0  0  0  0  0  0  0  0  0  0  0
   34.2092   -5.9881    0.0000 C   0  0  0  0  0  0  0  0  0  0  0  0
   34.9191   -6.3929    0.0000 O   0  0  0  0  0  0  0  0  0  0  0  0
   33.5053   -6.3997    0.0000 C   0  0  0  0  0  0  0  0  0  0  0  0
   32.7958   -5.9960    0.0000 C   0  0  0  0  0  0  0  0  0  0  0  0
   32.0936   -6.4085    0.0000 C   0  0  0  0  0  0  0  0  0  0  0  0
   32.0997   -7.2245    0.0000 C   0  0  0  0  0  0  0  0  0  0  0  0
   32.8138   -7.6262    0.0000 C   0  0  0  0  0  0  0  0  0  0  0  0
   33.5130   -7.2114    0.0000 C   0  0  0  0  0  0  0  0  0  0  0  0
   34.1668   -1.0933    0.0000 C   0  0  0  0  0  0  0  0  0  0  0  0
   30.5959   -2.4205    0.0000 C   0  0  0  0  0  0  0  0  0  0  0  0
   30.0536   -3.0318    0.0000 N   0  0  0  0  0  0  0  0  0  0  0  0
   30.4674   -3.7365    0.0000 N   0  0  0  0  0  0  0  0  0  0  0  0
   31.2654   -3.5606    0.0000 N   0  0  0  0  0  0  0  0  0  0  0  0
   29.2403   -2.9523    0.0000 C   0  0  0  0  0  0  0  0  0  0  0  0
   28.9024   -2.2082    0.0000 C   0  0  0  0  0  0  0  0  0  0  0  0
   28.0891   -2.1288    0.0000 O   0  0  0  0  0  0  0  0  0  0  0  0
  1  2  2  0
  2  3  1  0
  3  4  2  0
  4  5  1  0
  5  6  2  0
  6  1  1  0
  4  7  1  0
  5  8  1  0
  8  9  1  0
  9 10  1  0
  9 11  2  0
 10 12  1  0
 10 13  2  0
 12 17  1  0
 14 13  1  0
 14 16  1  0
 14 15  2  0
 16 17  2  0
 17 18  1  0
 18 19  2  0
 19 20  1  0
 20 21  2  0
 21 16  1  0
  1 22  1  0
  7 23  2  0
 23 24  1  0
 24 25  1  0
 25 26  2  0
 26  7  1  0
 24 27  1  0
 27 28  1  0
 28 29  1  0
M  END
>  <Classification>  (828) 
1

>  <pchembl>  (828) 
6.35

>  <InChI_steorem>  (828) 
InChI=1S/C21H18N4O4/c1-13-6-7-14(17-12-25(8-9-26)24-23-17)16(10-13)22-21(28)20-11-18(27)15-4-2-3-5-19(15)29-20/h2-7,10-12,26H,8-9H2,1H3,(H,22,28)

>  <source>  (828) 
ChEMBL30

>  <source_id>  (828) 
30

>  <optional_reference>  (828) 
10.1016/j.ejmech.2020.112958

>  <optional_origin>  (828) 
None

>  <target>  (828) 
BCRP

$$$$

     RDKit          2D

 29 32  0  0  0  0  0  0  0  0999 V2000
   40.4867  -21.8247    0.0000 C   0  0  0  0  0  0  0  0  0  0  0  0
   40.4855  -22.6443    0.0000 C   0  0  0  0  0  0  0  0  0  0  0  0
   41.1936  -23.0532    0.0000 C   0  0  0  0  0  0  0  0  0  0  0  0
   41.9033  -22.6438    0.0000 C   0  0  0  0  0  0  0  0  0  0  0  0
   41.9004  -21.8211    0.0000 C   0  0  0  0  0  0  0  0  0  0  0  0
   41.1918  -21.4159    0.0000 C   0  0  0  0  0  0  0  0  0  0  0  0
   39.7775  -23.0523    0.0000 N   0  0  0  0  0  0  0  0  0  0  0  0
   39.7769  -23.8695    0.0000 C   0  0  0  0  0  0  0  0  0  0  0  0
   39.0687  -24.2760    0.0000 C   0  0  0  0  0  0  0  0  0  0  0  0
   39.0677  -25.0924    0.0000 C   0  0  0  0  0  0  0  0  0  0  0  0
   39.7757  -25.5024    0.0000 N   0  0  0  0  0  0  0  0  0  0  0  0
   40.4860  -25.0900    0.0000 C   0  0  0  0  0  0  0  0  0  0  0  0
   40.4835  -24.2749    0.0000 N   0  0  0  0  0  0  0  0  0  0  0  0
   41.1924  -25.4939    0.0000 C   0  0  0  0  0  0  0  0  0  0  0  0
   41.1933  -26.3122    0.0000 C   0  0  0  0  0  0  0  0  0  0  0  0
   41.9013  -26.7187    0.0000 C   0  0  0  0  0  0  0  0  0  0  0  0
   42.6089  -26.3082    0.0000 C   0  0  0  0  0  0  0  0  0  0  0  0
   42.6040  -25.4867    0.0000 C   0  0  0  0  0  0  0  0  0  0  0  0
   41.8955  -25.0839    0.0000 C   0  0  0  0  0  0  0  0  0  0  0  0
   42.6044  -21.4087    0.0000 C   0  0  0  0  0  0  0  0  0  0  0  0
   43.3105  -20.9974    0.0000 N   0  0  0  0  0  0  0  0  0  0  0  0
   38.3626  -25.4991    0.0000 N   0  0  0  0  0  0  0  0  0  0  0  0
   38.3622  -26.3163    0.0000 C   0  0  0  0  0  0  0  0  0  0  0  0
   37.6531  -26.7225    0.0000 C   0  0  0  0  0  0  0  0  0  0  0  0
   37.6523  -27.5389    0.0000 C   0  0  0  0  0  0  0  0  0  0  0  0
   38.3603  -27.9487    0.0000 C   0  0  0  0  0  0  0  0  0  0  0  0
   39.0706  -27.5361    0.0000 C   0  0  0  0  0  0  0  0  0  0  0  0
   39.0679  -26.7210    0.0000 C   0  0  0  0  0  0  0  0  0  0  0  0
   36.9462  -26.3124    0.0000 O   0  0  0  0  0  0  0  0  0  0  0  0
  1  2  2  0
  2  3  1  0
  3  4  2  0
  4  5  1  0
  5  6  2  0
  6  1  1  0
  2  7  1  0
  7  8  1  0
  8  9  2  0
  9 10  1  0
 10 11  2  0
 11 12  1  0
 12 13  2  0
 13  8  1  0
 14 15  2  0
 15 16  1  0
 16 17  2  0
 17 18  1  0
 18 19  2  0
 19 14  1  0
 12 14  1  0
 20 21  3  0
  5 20  1  0
 10 22  1  0
 22 23  1  0
 23 24  2  0
 24 25  1  0
 25 26  2  0
 26 27  1  0
 27 28  2  0
 28 23  1  0
 24 29  1  0
M  END
>  <Classification>  (829) 
1

>  <pchembl>  (829) 
6.65

>  <InChI_steorem>  (829) 
InChI=1S/C23H17N5O/c24-15-16-10-12-18(13-11-16)25-21-14-22(26-19-8-4-5-9-20(19)29)28-23(27-21)17-6-2-1-3-7-17/h1-14,29H,(H2,25,26,27,28)

>  <source>  (829) 
ChEMBL30

>  <source_id>  (829) 
30

>  <optional_reference>  (829) 
10.1016/j.ejmech.2020.113045

>  <optional_origin>  (829) 
None

>  <target>  (829) 
BCRP

$$$$

     RDKit          2D

 29 32  0  0  0  0  0  0  0  0999 V2000
    4.6252   -2.9551    0.0000 C   0  0  0  0  0  0  0  0  0  0  0  0
    4.6241   -3.7746    0.0000 C   0  0  0  0  0  0  0  0  0  0  0  0
    5.3321   -4.1836    0.0000 C   0  0  0  0  0  0  0  0  0  0  0  0
    6.0418   -3.7741    0.0000 C   0  0  0  0  0  0  0  0  0  0  0  0
    6.0389   -2.9515    0.0000 C   0  0  0  0  0  0  0  0  0  0  0  0
    5.3303   -2.5462    0.0000 C   0  0  0  0  0  0  0  0  0  0  0  0
    3.9160   -4.1826    0.0000 N   0  0  0  0  0  0  0  0  0  0  0  0
    3.9154   -4.9998    0.0000 C   0  0  0  0  0  0  0  0  0  0  0  0
    3.2072   -5.4063    0.0000 C   0  0  0  0  0  0  0  0  0  0  0  0
    3.2062   -6.2227    0.0000 C   0  0  0  0  0  0  0  0  0  0  0  0
    3.9142   -6.6327    0.0000 N   0  0  0  0  0  0  0  0  0  0  0  0
    4.6245   -6.2203    0.0000 C   0  0  0  0  0  0  0  0  0  0  0  0
    4.6220   -5.4052    0.0000 N   0  0  0  0  0  0  0  0  0  0  0  0
    5.3310   -6.6242    0.0000 C   0  0  0  0  0  0  0  0  0  0  0  0
    5.3319   -7.4425    0.0000 C   0  0  0  0  0  0  0  0  0  0  0  0
    6.0399   -7.8491    0.0000 C   0  0  0  0  0  0  0  0  0  0  0  0
    6.7474   -7.4385    0.0000 C   0  0  0  0  0  0  0  0  0  0  0  0
    6.7425   -6.6171    0.0000 C   0  0  0  0  0  0  0  0  0  0  0  0
    6.0340   -6.2142    0.0000 C   0  0  0  0  0  0  0  0  0  0  0  0
    6.7429   -2.5390    0.0000 C   0  0  0  0  0  0  0  0  0  0  0  0
    7.4490   -2.1278    0.0000 N   0  0  0  0  0  0  0  0  0  0  0  0
    2.5011   -6.6294    0.0000 N   0  0  0  0  0  0  0  0  0  0  0  0
    2.5007   -7.4466    0.0000 C   0  0  0  0  0  0  0  0  0  0  0  0
    1.7916   -7.8528    0.0000 C   0  0  0  0  0  0  0  0  0  0  0  0
    1.7908   -8.6692    0.0000 C   0  0  0  0  0  0  0  0  0  0  0  0
    2.4988   -9.0790    0.0000 C   0  0  0  0  0  0  0  0  0  0  0  0
    3.2091   -8.6664    0.0000 C   0  0  0  0  0  0  0  0  0  0  0  0
    3.2064   -7.8513    0.0000 C   0  0  0  0  0  0  0  0  0  0  0  0
    2.4995   -9.8962    0.0000 O   0  0  0  0  0  0  0  0  0  0  0  0
  1  2  2  0
  2  3  1  0
  3  4  2  0
  4  5  1  0
  5  6  2  0
  6  1  1  0
  2  7  1  0
  7  8  1  0
  8  9  2  0
  9 10  1  0
 10 11  2  0
 11 12  1  0
 12 13  2  0
 13  8  1  0
 14 15  2  0
 15 16  1  0
 16 17  2  0
 17 18  1  0
 18 19  2  0
 19 14  1  0
 12 14  1  0
 20 21  3  0
  5 20  1  0
 10 22  1  0
 22 23  1  0
 23 24  2  0
 24 25  1  0
 25 26  2  0
 26 27  1  0
 27 28  2  0
 28 23  1  0
 26 29  1  0
M  END
>  <Classification>  (830) 
1

>  <pchembl>  (830) 
6.41

>  <InChI_steorem>  (830) 
InChI=1S/C23H17N5O/c24-15-16-6-8-18(9-7-16)25-21-14-22(26-19-10-12-20(29)13-11-19)28-23(27-21)17-4-2-1-3-5-17/h1-14,29H,(H2,25,26,27,28)

>  <source>  (830) 
ChEMBL30

>  <source_id>  (830) 
30

>  <optional_reference>  (830) 
10.1016/j.ejmech.2020.113045

>  <optional_origin>  (830) 
None

>  <target>  (830) 
BCRP

$$$$

     RDKit          2D

 30 33  0  0  0  0  0  0  0  0999 V2000
   12.1120   -3.1738    0.0000 C   0  0  0  0  0  0  0  0  0  0  0  0
   12.1109   -3.9933    0.0000 C   0  0  0  0  0  0  0  0  0  0  0  0
   12.8189   -4.4023    0.0000 C   0  0  0  0  0  0  0  0  0  0  0  0
   13.5286   -3.9929    0.0000 C   0  0  0  0  0  0  0  0  0  0  0  0
   13.5257   -3.1702    0.0000 C   0  0  0  0  0  0  0  0  0  0  0  0
   12.8171   -2.7649    0.0000 C   0  0  0  0  0  0  0  0  0  0  0  0
   11.4028   -4.4014    0.0000 N   0  0  0  0  0  0  0  0  0  0  0  0
   11.4022   -5.2186    0.0000 C   0  0  0  0  0  0  0  0  0  0  0  0
   10.6940   -5.6250    0.0000 C   0  0  0  0  0  0  0  0  0  0  0  0
   10.6930   -6.4415    0.0000 C   0  0  0  0  0  0  0  0  0  0  0  0
   11.4010   -6.8515    0.0000 N   0  0  0  0  0  0  0  0  0  0  0  0
   12.1113   -6.4390    0.0000 C   0  0  0  0  0  0  0  0  0  0  0  0
   12.1088   -5.6239    0.0000 N   0  0  0  0  0  0  0  0  0  0  0  0
   12.8178   -6.8429    0.0000 C   0  0  0  0  0  0  0  0  0  0  0  0
   12.8187   -7.6612    0.0000 C   0  0  0  0  0  0  0  0  0  0  0  0
   13.5266   -8.0678    0.0000 C   0  0  0  0  0  0  0  0  0  0  0  0
   14.2342   -7.6572    0.0000 C   0  0  0  0  0  0  0  0  0  0  0  0
   14.2293   -6.8358    0.0000 C   0  0  0  0  0  0  0  0  0  0  0  0
   13.5208   -6.4329    0.0000 C   0  0  0  0  0  0  0  0  0  0  0  0
   14.2297   -2.7578    0.0000 C   0  0  0  0  0  0  0  0  0  0  0  0
   14.9358   -2.3465    0.0000 N   0  0  0  0  0  0  0  0  0  0  0  0
    9.9879   -6.8481    0.0000 N   0  0  0  0  0  0  0  0  0  0  0  0
    9.9875   -7.6653    0.0000 C   0  0  0  0  0  0  0  0  0  0  0  0
    9.2784   -8.0715    0.0000 C   0  0  0  0  0  0  0  0  0  0  0  0
    9.2776   -8.8880    0.0000 C   0  0  0  0  0  0  0  0  0  0  0  0
    9.9856   -9.2977    0.0000 C   0  0  0  0  0  0  0  0  0  0  0  0
   10.6959   -8.8851    0.0000 C   0  0  0  0  0  0  0  0  0  0  0  0
   10.6932   -8.0700    0.0000 C   0  0  0  0  0  0  0  0  0  0  0  0
    9.9898  -10.1122    0.0000 C   0  0  0  0  0  0  0  0  0  0  0  0
    9.9905  -10.9293    0.0000 N   0  0  0  0  0  0  0  0  0  0  0  0
  1  2  2  0
  2  3  1  0
  3  4  2  0
  4  5  1  0
  5  6  2  0
  6  1  1  0
  2  7  1  0
  7  8  1  0
  8  9  2  0
  9 10  1  0
 10 11  2  0
 11 12  1  0
 12 13  2  0
 13  8  1  0
 14 15  2  0
 15 16  1  0
 16 17  2  0
 17 18  1  0
 18 19  2  0
 19 14  1  0
 12 14  1  0
 20 21  3  0
  5 20  1  0
 10 22  1  0
 22 23  1  0
 23 24  2  0
 24 25  1  0
 25 26  2  0
 26 27  1  0
 27 28  2  0
 28 23  1  0
 29 30  3  0
 26 29  1  0
M  END
>  <Classification>  (831) 
1

>  <pchembl>  (831) 
6.88

>  <InChI_steorem>  (831) 
InChI=1S/C24H16N6/c25-15-17-6-10-20(11-7-17)27-22-14-23(28-21-12-8-18(16-26)9-13-21)30-24(29-22)19-4-2-1-3-5-19/h1-14H,(H2,27,28,29,30)

>  <source>  (831) 
ChEMBL30

>  <source_id>  (831) 
30

>  <optional_reference>  (831) 
10.1016/j.ejmech.2020.113045

>  <optional_origin>  (831) 
None

>  <target>  (831) 
BCRP

$$$$

     RDKit          2D

 31 34  0  0  0  0  0  0  0  0999 V2000
   39.9089  -12.3899    0.0000 C   0  0  0  0  0  0  0  0  0  0  0  0
   39.9077  -13.2094    0.0000 C   0  0  0  0  0  0  0  0  0  0  0  0
   40.6158  -13.6184    0.0000 C   0  0  0  0  0  0  0  0  0  0  0  0
   41.3254  -13.2090    0.0000 C   0  0  0  0  0  0  0  0  0  0  0  0
   41.3226  -12.3863    0.0000 C   0  0  0  0  0  0  0  0  0  0  0  0
   40.6140  -11.9810    0.0000 C   0  0  0  0  0  0  0  0  0  0  0  0
   39.1997  -13.6175    0.0000 N   0  0  0  0  0  0  0  0  0  0  0  0
   39.1991  -14.4347    0.0000 C   0  0  0  0  0  0  0  0  0  0  0  0
   38.4909  -14.8412    0.0000 C   0  0  0  0  0  0  0  0  0  0  0  0
   38.4899  -15.6576    0.0000 C   0  0  0  0  0  0  0  0  0  0  0  0
   39.1978  -16.0676    0.0000 N   0  0  0  0  0  0  0  0  0  0  0  0
   39.9082  -15.6551    0.0000 C   0  0  0  0  0  0  0  0  0  0  0  0
   39.9057  -14.8400    0.0000 N   0  0  0  0  0  0  0  0  0  0  0  0
   40.6146  -16.0590    0.0000 C   0  0  0  0  0  0  0  0  0  0  0  0
   40.6155  -16.8773    0.0000 C   0  0  0  0  0  0  0  0  0  0  0  0
   41.3235  -17.2839    0.0000 C   0  0  0  0  0  0  0  0  0  0  0  0
   42.0311  -16.8733    0.0000 C   0  0  0  0  0  0  0  0  0  0  0  0
   42.0262  -16.0519    0.0000 C   0  0  0  0  0  0  0  0  0  0  0  0
   41.3177  -15.6490    0.0000 C   0  0  0  0  0  0  0  0  0  0  0  0
   42.0265  -11.9739    0.0000 C   0  0  0  0  0  0  0  0  0  0  0  0
   42.7327  -11.5626    0.0000 N   0  0  0  0  0  0  0  0  0  0  0  0
   37.7848  -16.0642    0.0000 N   0  0  0  0  0  0  0  0  0  0  0  0
   37.7844  -16.8814    0.0000 C   0  0  0  0  0  0  0  0  0  0  0  0
   37.0764  -17.2896    0.0000 C   0  0  0  0  0  0  0  0  0  0  0  0
   37.0794  -18.1013    0.0000 C   0  0  0  0  0  0  0  0  0  0  0  0
   36.3733  -18.5125    0.0000 C   0  0  0  0  0  0  0  0  0  0  0  0
   35.6661  -18.1046    0.0000 C   0  0  0  0  0  0  0  0  0  0  0  0
   34.9604  -18.5151    0.0000 C   0  0  0  0  0  0  0  0  0  0  0  0
   34.9630  -19.3331    0.0000 C   0  0  0  0  0  0  0  0  0  0  0  0
   35.6772  -19.7389    0.0000 C   0  0  0  0  0  0  0  0  0  0  0  0
   36.3800  -19.3261    0.0000 C   0  0  0  0  0  0  0  0  0  0  0  0
  1  2  2  0
  2  3  1  0
  3  4  2  0
  4  5  1  0
  5  6  2  0
  6  1  1  0
  2  7  1  0
  7  8  1  0
  8  9  2  0
  9 10  1  0
 10 11  2  0
 11 12  1  0
 12 13  2  0
 13  8  1  0
 14 15  2  0
 15 16  1  0
 16 17  2  0
 17 18  1  0
 18 19  2  0
 19 14  1  0
 12 14  1  0
 20 21  3  0
  5 20  1  0
 10 22  1  0
 22 23  1  0
 23 24  1  0
 25 24  1  0
 25 26  1  0
 26 27  2  0
 27 28  1  0
 28 29  2  0
 29 30  1  0
 30 31  2  0
 31 26  1  0
M  END
>  <Classification>  (832) 
1

>  <pchembl>  (832) 
7.02

>  <InChI_steorem>  (832) 
InChI=1S/C26H23N5/c27-19-21-13-15-23(16-14-21)29-25-18-24(28-17-7-10-20-8-3-1-4-9-20)30-26(31-25)22-11-5-2-6-12-22/h1-6,8-9,11-16,18H,7,10,17H2,(H2,28,29,30,31)

>  <source>  (832) 
ChEMBL30

>  <source_id>  (832) 
30

>  <optional_reference>  (832) 
10.1016/j.ejmech.2020.113045

>  <optional_origin>  (832) 
None

>  <target>  (832) 
BCRP

$$$$

     RDKit          2D

 32 35  0  0  0  0  0  0  0  0999 V2000
    5.7313  -20.7764    0.0000 C   0  0  0  0  0  0  0  0  0  0  0  0
    5.7302  -21.5960    0.0000 C   0  0  0  0  0  0  0  0  0  0  0  0
    6.4382  -22.0049    0.0000 C   0  0  0  0  0  0  0  0  0  0  0  0
    7.1479  -21.5955    0.0000 C   0  0  0  0  0  0  0  0  0  0  0  0
    7.1450  -20.7728    0.0000 C   0  0  0  0  0  0  0  0  0  0  0  0
    6.4364  -20.3676    0.0000 C   0  0  0  0  0  0  0  0  0  0  0  0
    5.0221  -22.0040    0.0000 N   0  0  0  0  0  0  0  0  0  0  0  0
    5.0215  -22.8212    0.0000 C   0  0  0  0  0  0  0  0  0  0  0  0
    4.3133  -23.2277    0.0000 C   0  0  0  0  0  0  0  0  0  0  0  0
    4.3123  -24.0441    0.0000 C   0  0  0  0  0  0  0  0  0  0  0  0
    5.0203  -24.4541    0.0000 N   0  0  0  0  0  0  0  0  0  0  0  0
    5.7306  -24.0417    0.0000 C   0  0  0  0  0  0  0  0  0  0  0  0
    5.7281  -23.2266    0.0000 N   0  0  0  0  0  0  0  0  0  0  0  0
    6.4371  -24.4455    0.0000 C   0  0  0  0  0  0  0  0  0  0  0  0
    6.4380  -25.2638    0.0000 C   0  0  0  0  0  0  0  0  0  0  0  0
    7.1459  -25.6704    0.0000 C   0  0  0  0  0  0  0  0  0  0  0  0
    7.8535  -25.2598    0.0000 C   0  0  0  0  0  0  0  0  0  0  0  0
    7.8486  -24.4384    0.0000 C   0  0  0  0  0  0  0  0  0  0  0  0
    7.1401  -24.0355    0.0000 C   0  0  0  0  0  0  0  0  0  0  0  0
    7.8490  -20.3604    0.0000 C   0  0  0  0  0  0  0  0  0  0  0  0
    8.5551  -19.9491    0.0000 N   0  0  0  0  0  0  0  0  0  0  0  0
    3.6072  -24.4507    0.0000 N   0  0  0  0  0  0  0  0  0  0  0  0
    3.6068  -25.2679    0.0000 C   0  0  0  0  0  0  0  0  0  0  0  0
    2.8989  -25.6762    0.0000 C   0  0  0  0  0  0  0  0  0  0  0  0
    2.9019  -26.4878    0.0000 C   0  0  0  0  0  0  0  0  0  0  0  0
    2.1957  -26.8990    0.0000 C   0  0  0  0  0  0  0  0  0  0  0  0
    2.2024  -27.7126    0.0000 C   0  0  0  0  0  0  0  0  0  0  0  0
    1.4996  -28.1200    0.0000 C   0  0  0  0  0  0  0  0  0  0  0  0
    1.5060  -28.9328    0.0000 C   0  0  0  0  0  0  0  0  0  0  0  0
    2.2144  -29.3345    0.0000 C   0  0  0  0  0  0  0  0  0  0  0  0
    2.9179  -28.9176    0.0000 C   0  0  0  0  0  0  0  0  0  0  0  0
    2.9081  -28.1061    0.0000 C   0  0  0  0  0  0  0  0  0  0  0  0
  1  2  2  0
  2  3  1  0
  3  4  2  0
  4  5  1  0
  5  6  2  0
  6  1  1  0
  2  7  1  0
  7  8  1  0
  8  9  2  0
  9 10  1  0
 10 11  2  0
 11 12  1  0
 12 13  2  0
 13  8  1  0
 14 15  2  0
 15 16  1  0
 16 17  2  0
 17 18  1  0
 18 19  2  0
 19 14  1  0
 12 14  1  0
 20 21  3  0
  5 20  1  0
 10 22  1  0
 22 23  1  0
 23 24  1  0
 25 24  1  0
 25 26  1  0
 27 26  1  0
 27 28  2  0
 28 29  1  0
 29 30  2  0
 30 31  1  0
 31 32  2  0
 32 27  1  0
M  END
>  <Classification>  (833) 
1

>  <pchembl>  (833) 
6.83

>  <InChI_steorem>  (833) 
InChI=1S/C27H25N5/c28-20-22-14-16-24(17-15-22)30-26-19-25(31-27(32-26)23-12-5-2-6-13-23)29-18-8-7-11-21-9-3-1-4-10-21/h1-6,9-10,12-17,19H,7-8,11,18H2,(H2,29,30,31,32)

>  <source>  (833) 
ChEMBL30

>  <source_id>  (833) 
30

>  <optional_reference>  (833) 
10.1016/j.ejmech.2020.113045

>  <optional_origin>  (833) 
None

>  <target>  (833) 
BCRP

$$$$

     RDKit          2D

 33 34  0  0  0  0  0  0  0  0999 V2000
    2.9538   -0.0408    0.0000 O   0  0  0  0  0  0  0  0  0  0  0  0
    2.9538    1.6092    0.0000 O   0  0  0  0  0  0  0  0  0  0  0  0
   12.9564   -0.0408    0.0000 O   0  0  0  0  0  0  0  0  0  0  0  0
   12.9564   -1.6908    0.0000 O   0  0  0  0  0  0  0  0  0  0  0  0
    6.6366    1.3881    0.0000 N   0  0  0  0  0  0  0  0  0  0  0  0
    8.6695   -0.0408    0.0000 N   0  0  0  0  0  0  0  0  0  0  0  0
    5.8116   -0.0408    0.0000 C   0  0  0  0  0  0  0  0  0  0  0  0
    5.0972    0.3717    0.0000 C   0  0  0  0  0  0  0  0  0  0  0  0
    5.3991   -0.7553    0.0000 C   0  0  0  0  0  0  0  0  0  0  0  0
    4.3827   -0.0408    0.0000 C   0  0  0  0  0  0  0  0  0  0  0  0
    6.5261   -0.4533    0.0000 C   0  0  0  0  0  0  0  0  0  0  0  0
    3.6682    0.3717    0.0000 C   0  0  0  0  0  0  0  0  0  0  0  0
    5.0972    1.1967    0.0000 C   0  0  0  0  0  0  0  0  0  0  0  0
    6.2241    0.6736    0.0000 C   0  0  0  0  0  0  0  0  0  0  0  0
    3.6682    1.1967    0.0000 C   0  0  0  0  0  0  0  0  0  0  0  0
    4.3827    1.6092    0.0000 C   0  0  0  0  0  0  0  0  0  0  0  0
    7.2406   -0.0408    0.0000 C   0  0  0  0  0  0  0  0  0  0  0  0
    5.8116   -1.4698    0.0000 C   0  0  0  0  0  0  0  0  0  0  0  0
    4.5741   -0.7553    0.0000 C   0  0  0  0  0  0  0  0  0  0  0  0
   12.2419   -0.4533    0.0000 C   0  0  0  0  0  0  0  0  0  0  0  0
   12.2419   -1.2783    0.0000 C   0  0  0  0  0  0  0  0  0  0  0  0
   10.8129   -0.4533    0.0000 C   0  0  0  0  0  0  0  0  0  0  0  0
    7.9551   -0.4533    0.0000 C   0  0  0  0  0  0  0  0  0  0  0  0
   11.5274   -0.0408    0.0000 C   0  0  0  0  0  0  0  0  0  0  0  0
   11.5274   -1.6908    0.0000 C   0  0  0  0  0  0  0  0  0  0  0  0
   10.8129   -1.2783    0.0000 C   0  0  0  0  0  0  0  0  0  0  0  0
   10.0985   -0.0408    0.0000 C   0  0  0  0  0  0  0  0  0  0  0  0
    9.3840   -0.4533    0.0000 C   0  0  0  0  0  0  0  0  0  0  0  0
    2.2393    0.3717    0.0000 C   0  0  0  0  0  0  0  0  0  0  0  0
    2.9538    2.4342    0.0000 C   0  0  0  0  0  0  0  0  0  0  0  0
    8.6695    0.7842    0.0000 C   0  0  0  0  0  0  0  0  0  0  0  0
   12.9564    0.7842    0.0000 C   0  0  0  0  0  0  0  0  0  0  0  0
   13.6708   -1.2783    0.0000 C   0  0  0  0  0  0  0  0  0  0  0  0
  1 12  1  0
  1 29  1  0
  2 15  1  0
  2 30  1  0
  3 20  1  0
  3 32  1  0
  4 21  1  0
  4 33  1  0
  5 14  3  0
  6 23  1  0
  6 28  1  0
  6 31  1  0
  7  8  1  0
  7  9  1  0
  7 11  1  0
  7 14  1  0
  8 10  2  0
  8 13  1  0
  9 18  1  0
  9 19  1  0
 10 12  1  0
 11 17  1  0
 12 15  2  0
 13 16  2  0
 15 16  1  0
 17 23  1  0
 20 21  2  0
 20 24  1  0
 21 25  1  0
 22 24  2  0
 22 26  1  0
 22 27  1  0
 25 26  2  0
 27 28  1  0
M  END
>  <Classification>  (834) 
1

>  <pchembl>  (834) 
5.92

>  <InChI_steorem>  (834) 
InChI=1S/C27H38N2O4/c1-20(2)27(19-28,22-10-12-24(31-5)26(18-22)33-7)14-8-15-29(3)16-13-21-9-11-23(30-4)25(17-21)32-6/h9-12,17-18,20H,8,13-16H2,1-7H3

>  <source>  (834) 
ChEMBL30

>  <source_id>  (834) 
30

>  <optional_reference>  (834) 
10.1016/j.ejmech.2021.113317

>  <optional_origin>  (834) 
None

>  <target>  (834) 
BCRP

$$$$

     RDKit          2D

 33 37  0  0  0  0  0  0  0  0999 V2000
   20.8151   -1.8487    0.0000 C   0  0  0  0  0  0  0  0  0  0  0  0
   20.1046   -1.4427    0.0000 C   0  0  0  0  0  0  0  0  0  0  0  0
   19.3998   -1.8548    0.0000 C   0  0  0  0  0  0  0  0  0  0  0  0
   19.4043   -2.6729    0.0000 C   0  0  0  0  0  0  0  0  0  0  0  0
   20.1195   -3.0770    0.0000 C   0  0  0  0  0  0  0  0  0  0  0  0
   20.8213   -2.6625    0.0000 C   0  0  0  0  0  0  0  0  0  0  0  0
   18.6996   -3.0867    0.0000 C   0  0  0  0  0  0  0  0  0  0  0  0
   20.1272   -3.8942    0.0000 N   0  0  0  0  0  0  0  0  0  0  0  0
   20.8388   -4.2960    0.0000 C   0  0  0  0  0  0  0  0  0  0  0  0
   20.8466   -5.1132    0.0000 C   0  0  0  0  0  0  0  0  0  0  0  0
   21.5426   -3.8807    0.0000 O   0  0  0  0  0  0  0  0  0  0  0  0
   20.1422   -5.5214    0.0000 O   0  0  0  0  0  0  0  0  0  0  0  0
   21.5592   -5.5067    0.0000 C   0  0  0  0  0  0  0  0  0  0  0  0
   21.5634   -6.3265    0.0000 C   0  0  0  0  0  0  0  0  0  0  0  0
   22.2733   -6.7314    0.0000 O   0  0  0  0  0  0  0  0  0  0  0  0
   20.8594   -6.7381    0.0000 C   0  0  0  0  0  0  0  0  0  0  0  0
   20.1500   -6.3345    0.0000 C   0  0  0  0  0  0  0  0  0  0  0  0
   19.4478   -6.7469    0.0000 C   0  0  0  0  0  0  0  0  0  0  0  0
   19.4538   -7.5629    0.0000 C   0  0  0  0  0  0  0  0  0  0  0  0
   20.1679   -7.9647    0.0000 C   0  0  0  0  0  0  0  0  0  0  0  0
   20.8672   -7.5499    0.0000 C   0  0  0  0  0  0  0  0  0  0  0  0
   21.5210   -1.4317    0.0000 C   0  0  0  0  0  0  0  0  0  0  0  0
   17.9501   -2.7589    0.0000 C   0  0  0  0  0  0  0  0  0  0  0  0
   17.4078   -3.3702    0.0000 N   0  0  0  0  0  0  0  0  0  0  0  0
   17.8216   -4.0749    0.0000 N   0  0  0  0  0  0  0  0  0  0  0  0
   18.6196   -3.8991    0.0000 N   0  0  0  0  0  0  0  0  0  0  0  0
   16.5944   -3.2908    0.0000 C   0  0  0  0  0  0  0  0  0  0  0  0
   16.2566   -2.5467    0.0000 C   0  0  0  0  0  0  0  0  0  0  0  0
   15.4433   -2.4672    0.0000 N   0  0  0  0  0  0  0  0  0  0  0  0
   15.0321   -1.7652    0.0000 C   0  0  0  0  0  0  0  0  0  0  0  0
   14.2341   -1.9410    0.0000 C   0  0  0  0  0  0  0  0  0  0  0  0
   14.1546   -2.7544    0.0000 C   0  0  0  0  0  0  0  0  0  0  0  0
   14.9036   -3.0811    0.0000 C   0  0  0  0  0  0  0  0  0  0  0  0
  1  2  2  0
  2  3  1  0
  3  4  2  0
  4  5  1  0
  5  6  2  0
  6  1  1  0
  4  7  1  0
  5  8  1  0
  8  9  1  0
  9 10  1  0
  9 11  2  0
 10 12  1  0
 10 13  2  0
 12 17  1  0
 14 13  1  0
 14 16  1  0
 14 15  2  0
 16 17  2  0
 17 18  1  0
 18 19  2  0
 19 20  1  0
 20 21  2  0
 21 16  1  0
  1 22  1  0
  7 23  2  0
 23 24  1  0
 24 25  1  0
 25 26  2  0
 26  7  1  0
 24 27  1  0
 27 28  1  0
 28 29  1  0
 29 30  1  0
 30 31  1  0
 31 32  1  0
 32 33  1  0
 33 29  1  0
M  END
>  <Classification>  (835) 
1

>  <pchembl>  (835) 
6.96

>  <InChI_steorem>  (835) 
InChI=1S/C25H25N5O3/c1-17-8-9-18(21-16-30(28-27-21)13-12-29-10-4-5-11-29)20(14-17)26-25(32)24-15-22(31)19-6-2-3-7-23(19)33-24/h2-3,6-9,14-16H,4-5,10-13H2,1H3,(H,26,32)

>  <source>  (835) 
ChEMBL30

>  <source_id>  (835) 
30

>  <optional_reference>  (835) 
10.1016/j.ejmech.2020.112958

>  <optional_origin>  (835) 
None

>  <target>  (835) 
BCRP

$$$$

     RDKit          2D

 33 37  0  0  0  0  0  0  0  0999 V2000
   39.7164   -3.3457    0.0000 C   0  0  0  0  0  0  0  0  0  0  0  0
   38.9010   -3.3405    0.0000 C   0  0  0  0  0  0  0  0  0  0  0  0
   38.4905   -4.0429    0.0000 C   0  0  0  0  0  0  0  0  0  0  0  0
   38.8943   -4.7511    0.0000 C   0  0  0  0  0  0  0  0  0  0  0  0
   39.7128   -4.7524    0.0000 C   0  0  0  0  0  0  0  0  0  0  0  0
   40.1196   -4.0494    0.0000 C   0  0  0  0  0  0  0  0  0  0  0  0
   40.9368   -4.0510    0.0000 C   0  0  0  0  0  0  0  0  0  0  0  0
   41.3469   -3.3442    0.0000 C   0  0  0  0  0  0  0  0  0  0  0  0
   42.1641   -3.3459    0.0000 N   0  0  0  0  0  0  0  0  0  0  0  0
   42.5741   -2.6390    0.0000 C   0  0  0  0  0  0  0  0  0  0  0  0
   42.5712   -4.0544    0.0000 C   0  0  0  0  0  0  0  0  0  0  0  0
   43.3913   -2.6407    0.0000 C   0  0  0  0  0  0  0  0  0  0  0  0
   43.7984   -3.3492    0.0000 C   0  0  0  0  0  0  0  0  0  0  0  0
   43.3876   -4.0547    0.0000 C   0  0  0  0  0  0  0  0  0  0  0  0
   43.7930   -4.7611    0.0000 C   0  0  0  0  0  0  0  0  0  0  0  0
   44.6092   -4.7632    0.0000 C   0  0  0  0  0  0  0  0  0  0  0  0
   45.0181   -4.0531    0.0000 C   0  0  0  0  0  0  0  0  0  0  0  0
   44.6103   -3.3496    0.0000 C   0  0  0  0  0  0  0  0  0  0  0  0
   37.6741   -4.0436    0.0000 N   0  0  0  0  0  0  0  0  0  0  0  0
   37.1972   -3.3800    0.0000 N   0  0  0  0  0  0  0  0  0  0  0  0
   36.4187   -3.6284    0.0000 N   0  0  0  0  0  0  0  0  0  0  0  0
   36.4144   -4.4456    0.0000 C   0  0  0  0  0  0  0  0  0  0  0  0
   37.1902   -4.7021    0.0000 C   0  0  0  0  0  0  0  0  0  0  0  0
   45.8353   -4.0520    0.0000 O   0  0  0  0  0  0  0  0  0  0  0  0
   46.2449   -4.7591    0.0000 C   0  0  0  0  0  0  0  0  0  0  0  0
   45.0172   -5.4713    0.0000 O   0  0  0  0  0  0  0  0  0  0  0  0
   44.6080   -6.1787    0.0000 C   0  0  0  0  0  0  0  0  0  0  0  0
   35.7543   -4.9218    0.0000 C   0  0  0  0  0  0  0  0  0  0  0  0
   35.0090   -4.5838    0.0000 C   0  0  0  0  0  0  0  0  0  0  0  0
   34.3458   -5.0600    0.0000 C   0  0  0  0  0  0  0  0  0  0  0  0
   34.4266   -5.8741    0.0000 C   0  0  0  0  0  0  0  0  0  0  0  0
   35.1764   -6.2097    0.0000 C   0  0  0  0  0  0  0  0  0  0  0  0
   35.8364   -5.7315    0.0000 C   0  0  0  0  0  0  0  0  0  0  0  0
  1  2  2  0
  2  3  1  0
  3  4  2  0
  4  5  1  0
  5  6  2  0
  6  1  1  0
  6  7  1  0
  7  8  1  0
  8  9  1  0
  9 10  1  0
  9 11  1  0
 10 12  1  0
 11 14  1  0
 12 13  1  0
 13 14  2  0
 14 15  1  0
 15 16  2  0
 16 17  1  0
 17 18  2  0
 18 13  1  0
 19 20  1  0
 20 21  2  0
 21 22  1  0
 22 23  2  0
 23 19  1  0
  3 19  1  0
 17 24  1  0
 24 25  1  0
 16 26  1  0
 26 27  1  0
 28 29  2  0
 29 30  1  0
 30 31  2  0
 31 32  1  0
 32 33  2  0
 33 28  1  0
 22 28  1  0
M  END
>  <Classification>  (836) 
1

>  <pchembl>  (836) 
5.44

>  <InChI_steorem>  (836) 
InChI=1S/C27H28N4O2/c1-32-26-16-22-13-15-30(18-23(22)17-27(26)33-2)14-12-20-8-10-24(11-9-20)31-19-25(28-29-31)21-6-4-3-5-7-21/h3-11,16-17,19H,12-15,18H2,1-2H3

>  <source>  (836) 
ChEMBL30

>  <source_id>  (836) 
30

>  <optional_reference>  (836) 
10.1016/j.ejmech.2020.112958

>  <optional_origin>  (836) 
None

>  <target>  (836) 
BCRP

$$$$

     RDKit          2D

 34 38  0  0  0  0  0  0  0  0999 V2000
    8.3467   -1.8157    0.0000 C   0  0  0  0  0  0  0  0  0  0  0  0
    7.6362   -1.4097    0.0000 C   0  0  0  0  0  0  0  0  0  0  0  0
    6.9315   -1.8218    0.0000 C   0  0  0  0  0  0  0  0  0  0  0  0
    6.9360   -2.6399    0.0000 C   0  0  0  0  0  0  0  0  0  0  0  0
    7.6511   -3.0440    0.0000 C   0  0  0  0  0  0  0  0  0  0  0  0
    8.3529   -2.6295    0.0000 C   0  0  0  0  0  0  0  0  0  0  0  0
    6.2313   -3.0536    0.0000 C   0  0  0  0  0  0  0  0  0  0  0  0
    7.6589   -3.8612    0.0000 N   0  0  0  0  0  0  0  0  0  0  0  0
    8.3705   -4.2630    0.0000 C   0  0  0  0  0  0  0  0  0  0  0  0
    8.3783   -5.0801    0.0000 C   0  0  0  0  0  0  0  0  0  0  0  0
    9.0742   -3.8477    0.0000 O   0  0  0  0  0  0  0  0  0  0  0  0
    7.6738   -5.4884    0.0000 O   0  0  0  0  0  0  0  0  0  0  0  0
    9.0908   -5.4737    0.0000 C   0  0  0  0  0  0  0  0  0  0  0  0
    9.0950   -6.2935    0.0000 C   0  0  0  0  0  0  0  0  0  0  0  0
    9.8049   -6.6983    0.0000 O   0  0  0  0  0  0  0  0  0  0  0  0
    8.3911   -6.7051    0.0000 C   0  0  0  0  0  0  0  0  0  0  0  0
    7.6816   -6.3015    0.0000 C   0  0  0  0  0  0  0  0  0  0  0  0
    6.9795   -6.7139    0.0000 C   0  0  0  0  0  0  0  0  0  0  0  0
    6.9855   -7.5299    0.0000 C   0  0  0  0  0  0  0  0  0  0  0  0
    7.6996   -7.9316    0.0000 C   0  0  0  0  0  0  0  0  0  0  0  0
    8.3988   -7.5169    0.0000 C   0  0  0  0  0  0  0  0  0  0  0  0
    9.0526   -1.3987    0.0000 C   0  0  0  0  0  0  0  0  0  0  0  0
    5.4817   -2.7259    0.0000 C   0  0  0  0  0  0  0  0  0  0  0  0
    4.9394   -3.3372    0.0000 N   0  0  0  0  0  0  0  0  0  0  0  0
    5.3532   -4.0419    0.0000 N   0  0  0  0  0  0  0  0  0  0  0  0
    6.1512   -3.8660    0.0000 N   0  0  0  0  0  0  0  0  0  0  0  0
    4.1261   -3.2577    0.0000 C   0  0  0  0  0  0  0  0  0  0  0  0
    3.7882   -2.5137    0.0000 C   0  0  0  0  0  0  0  0  0  0  0  0
    2.9749   -2.4342    0.0000 N   0  0  0  0  0  0  0  0  0  0  0  0
    2.6370   -1.6901    0.0000 C   0  0  0  0  0  0  0  0  0  0  0  0
    2.4994   -3.0988    0.0000 C   0  0  0  0  0  0  0  0  0  0  0  0
    1.6861   -3.0194    0.0000 C   0  0  0  0  0  0  0  0  0  0  0  0
    1.3483   -2.2753    0.0000 O   0  0  0  0  0  0  0  0  0  0  0  0
    1.8237   -1.6107    0.0000 C   0  0  0  0  0  0  0  0  0  0  0  0
  1  2  2  0
  2  3  1  0
  3  4  2  0
  4  5  1  0
  5  6  2  0
  6  1  1  0
  4  7  1  0
  5  8  1  0
  8  9  1  0
  9 10  1  0
  9 11  2  0
 10 12  1  0
 10 13  2  0
 12 17  1  0
 14 13  1  0
 14 16  1  0
 14 15  2  0
 16 17  2  0
 17 18  1  0
 18 19  2  0
 19 20  1  0
 20 21  2  0
 21 16  1  0
  1 22  1  0
  7 23  2  0
 23 24  1  0
 24 25  1  0
 25 26  2  0
 26  7  1  0
 24 27  1  0
 27 28  1  0
 28 29  1  0
 29 30  1  0
 29 31  1  0
 31 32  1  0
 30 34  1  0
 32 33  1  0
 33 34  1  0
M  END
>  <Classification>  (837) 
1

>  <pchembl>  (837) 
6.73

>  <InChI_steorem>  (837) 
InChI=1S/C25H25N5O4/c1-17-6-7-18(21-16-30(28-27-21)9-8-29-10-12-33-13-11-29)20(14-17)26-25(32)24-15-22(31)19-4-2-3-5-23(19)34-24/h2-7,14-16H,8-13H2,1H3,(H,26,32)

>  <source>  (837) 
ChEMBL30

>  <source_id>  (837) 
30

>  <optional_reference>  (837) 
10.1016/j.ejmech.2020.112958

>  <optional_origin>  (837) 
None

>  <target>  (837) 
BCRP

$$$$

     RDKit          2D

 36 40  0  0  0  0  0  0  0  0999 V2000
   17.8352  -23.8551    0.0000 C   0  0  0  0  0  0  0  0  0  0  0  0
   17.1247  -23.4491    0.0000 C   0  0  0  0  0  0  0  0  0  0  0  0
   16.4200  -23.8612    0.0000 C   0  0  0  0  0  0  0  0  0  0  0  0
   16.4245  -24.6793    0.0000 C   0  0  0  0  0  0  0  0  0  0  0  0
   17.1396  -25.0834    0.0000 C   0  0  0  0  0  0  0  0  0  0  0  0
   17.8414  -24.6689    0.0000 C   0  0  0  0  0  0  0  0  0  0  0  0
   15.7198  -25.0930    0.0000 C   0  0  0  0  0  0  0  0  0  0  0  0
   15.7258  -25.9102    0.0000 O   0  0  0  0  0  0  0  0  0  0  0  0
   17.1474  -25.9006    0.0000 N   0  0  0  0  0  0  0  0  0  0  0  0
   17.8590  -26.3024    0.0000 C   0  0  0  0  0  0  0  0  0  0  0  0
   17.8668  -27.1195    0.0000 C   0  0  0  0  0  0  0  0  0  0  0  0
   18.5627  -25.8871    0.0000 O   0  0  0  0  0  0  0  0  0  0  0  0
   15.0091  -24.6897    0.0000 C   0  0  0  0  0  0  0  0  0  0  0  0
   14.3044  -25.1034    0.0000 C   0  0  0  0  0  0  0  0  0  0  0  0
   17.1623  -27.5278    0.0000 O   0  0  0  0  0  0  0  0  0  0  0  0
   18.5793  -27.5131    0.0000 C   0  0  0  0  0  0  0  0  0  0  0  0
   18.5835  -28.3329    0.0000 C   0  0  0  0  0  0  0  0  0  0  0  0
   19.2934  -28.7377    0.0000 O   0  0  0  0  0  0  0  0  0  0  0  0
   17.8796  -28.7445    0.0000 C   0  0  0  0  0  0  0  0  0  0  0  0
   17.1701  -28.3409    0.0000 C   0  0  0  0  0  0  0  0  0  0  0  0
   16.4680  -28.7533    0.0000 C   0  0  0  0  0  0  0  0  0  0  0  0
   16.4740  -29.5693    0.0000 C   0  0  0  0  0  0  0  0  0  0  0  0
   17.1881  -29.9710    0.0000 C   0  0  0  0  0  0  0  0  0  0  0  0
   17.8873  -29.5563    0.0000 C   0  0  0  0  0  0  0  0  0  0  0  0
   18.5411  -23.4381    0.0000 C   0  0  0  0  0  0  0  0  0  0  0  0
   19.2896  -23.7660    0.0000 C   0  0  0  0  0  0  0  0  0  0  0  0
   19.8328  -23.1554    0.0000 N   0  0  0  0  0  0  0  0  0  0  0  0
   19.4199  -22.4501    0.0000 N   0  0  0  0  0  0  0  0  0  0  0  0
   18.6217  -22.6249    0.0000 N   0  0  0  0  0  0  0  0  0  0  0  0
   20.6460  -23.2359    0.0000 C   0  0  0  0  0  0  0  0  0  0  0  0
   20.9829  -23.9805    0.0000 C   0  0  0  0  0  0  0  0  0  0  0  0
   21.7961  -24.0610    0.0000 N   0  0  0  0  0  0  0  0  0  0  0  0
   22.2120  -24.7641    0.0000 C   0  0  0  0  0  0  0  0  0  0  0  0
   23.0103  -24.5894    0.0000 C   0  0  0  0  0  0  0  0  0  0  0  0
   23.0908  -23.7762    0.0000 C   0  0  0  0  0  0  0  0  0  0  0  0
   22.3423  -23.4484    0.0000 C   0  0  0  0  0  0  0  0  0  0  0  0
  1  2  2  0
  2  3  1  0
  3  4  2  0
  4  5  1  0
  5  6  2  0
  6  1  1  0
  4  7  1  0
  7  8  2  0
  5  9  1  0
  9 10  1  0
 10 11  1  0
 10 12  2  0
  7 13  1  0
 13 14  1  0
 11 15  1  0
 11 16  2  0
 15 20  1  0
 17 16  1  0
 17 19  1  0
 17 18  2  0
 19 20  2  0
 20 21  1  0
 21 22  2  0
 22 23  1  0
 23 24  2  0
 24 19  1  0
 25 26  2  0
 26 27  1  0
 27 28  1  0
 28 29  2  0
 29 25  1  0
  1 25  1  0
 27 30  1  0
 30 31  1  0
 31 32  1  0
 32 33  1  0
 33 34  1  0
 34 35  1  0
 35 36  1  0
 36 32  1  0
M  END
>  <Classification>  (838) 
1

>  <pchembl>  (838) 
6.8

>  <InChI_steorem>  (838) 
InChI=1S/C27H27N5O4/c1-2-23(33)19-10-9-18(22-17-32(30-29-22)14-13-31-11-5-6-12-31)15-21(19)28-27(35)26-16-24(34)20-7-3-4-8-25(20)36-26/h3-4,7-10,15-17H,2,5-6,11-14H2,1H3,(H,28,35)

>  <source>  (838) 
ChEMBL30

>  <source_id>  (838) 
30

>  <optional_reference>  (838) 
10.1016/j.ejmech.2020.112958

>  <optional_origin>  (838) 
None

>  <target>  (838) 
BCRP

$$$$

     RDKit          2D

 37 41  0  0  0  0  0  0  0  0999 V2000
   18.7294   -5.0157    0.0000 C   0  0  0  0  0  0  0  0  0  0  0  0
   19.4372   -4.6041    0.0000 C   0  0  0  0  0  0  0  0  0  0  0  0
   20.1490   -5.0157    0.0000 C   0  0  0  0  0  0  0  0  0  0  0  0
   20.1490   -5.8348    0.0000 C   0  0  0  0  0  0  0  0  0  0  0  0
   19.4372   -6.2423    0.0000 C   0  0  0  0  0  0  0  0  0  0  0  0
   18.7294   -5.8348    0.0000 C   0  0  0  0  0  0  0  0  0  0  0  0
   17.9511   -6.0848    0.0000 C   0  0  0  0  0  0  0  0  0  0  0  0
   17.4699   -5.4231    0.0000 N   0  0  0  0  0  0  0  0  0  0  0  0
   17.9512   -4.7615    0.0000 N   0  0  0  0  0  0  0  0  0  0  0  0
   17.7393   -3.9702    0.0000 C   0  0  0  0  0  0  0  0  0  0  0  0
   16.9480   -3.7583    0.0000 C   0  0  0  0  0  0  0  0  0  0  0  0
   18.3187   -3.3909    0.0000 C   0  0  0  0  0  0  0  0  0  0  0  0
   20.8564   -5.4234    0.0000 C   0  0  0  0  0  0  0  0  0  0  0  0
   21.5639   -5.8348    0.0000 C   0  0  0  0  0  0  0  0  0  0  0  0
   21.5639   -6.6494    0.0000 N   0  0  0  0  0  0  0  0  0  0  0  0
   20.8565   -7.0608    0.0000 C   0  0  0  0  0  0  0  0  0  0  0  0
   20.1490   -6.6494    0.0000 C   0  0  0  0  0  0  0  0  0  0  0  0
   22.2754   -7.0608    0.0000 C   0  0  0  0  0  0  0  0  0  0  0  0
   22.9829   -6.6494    0.0000 C   0  0  0  0  0  0  0  0  0  0  0  0
   22.9832   -5.8347    0.0000 C   0  0  0  0  0  0  0  0  0  0  0  0
   23.6881   -5.4260    0.0000 C   0  0  0  0  0  0  0  0  0  0  0  0
   24.4000   -5.8335    0.0000 N   0  0  0  0  0  0  0  0  0  0  0  0
   24.3981   -6.6505    0.0000 C   0  0  0  0  0  0  0  0  0  0  0  0
   23.6947   -7.0633    0.0000 C   0  0  0  0  0  0  0  0  0  0  0  0
   25.1097   -7.0578    0.0000 C   0  0  0  0  0  0  0  0  0  0  0  0
   25.8174   -6.6508    0.0000 C   0  0  0  0  0  0  0  0  0  0  0  0
   26.5253   -7.0573    0.0000 C   0  0  0  0  0  0  0  0  0  0  0  0
   26.5253   -7.8763    0.0000 C   0  0  0  0  0  0  0  0  0  0  0  0
   25.8199   -8.2868    0.0000 C   0  0  0  0  0  0  0  0  0  0  0  0
   25.1097   -7.8816    0.0000 C   0  0  0  0  0  0  0  0  0  0  0  0
   27.2328   -8.2836    0.0000 C   0  0  0  0  0  0  0  0  0  0  0  0
   27.9402   -7.8763    0.0000 O   0  0  0  0  0  0  0  0  0  0  0  0
   27.2328   -9.1024    0.0000 O   0  0  0  0  0  0  0  0  0  0  0  0
   23.6881   -4.6073    0.0000 O   0  0  0  0  0  0  0  0  0  0  0  0
   22.9807   -4.2000    0.0000 C   0  0  0  0  0  0  0  0  0  0  0  0
   22.2754   -7.8796    0.0000 O   0  0  0  0  0  0  0  0  0  0  0  0
   19.4372   -3.7853    0.0000 O   0  0  0  0  0  0  0  0  0  0  0  0
  1  2  1  0
  3  2  1  0
  4  3  1  0
  5  4  1  0
  6  5  1  0
  1  6  2  0
  6  7  1  0
  7  8  2  0
  8  9  1  0
  1  9  1  0
  9 10  1  0
 10 11  1  0
 10 12  1  0
  4 13  1  0
 14 13  1  0
 15 14  1  0
 16 15  1  0
 17 16  1  0
  4 17  1  0
 15 18  1  0
 18 19  1  0
 20 19  2  0
 21 20  1  0
 22 21  2  0
 23 22  1  0
 24 23  2  0
 19 24  1  0
 25 23  1  0
 26 25  2  0
 27 26  1  0
 28 27  2  0
 29 28  1  0
 30 29  2  0
 25 30  1  0
 28 31  1  0
 31 32  2  0
 31 33  1  0
 21 34  1  0
 34 35  1  0
 18 36  2  0
  2 37  2  0
M  END
>  <Classification>  (839) 
0

>  <pchembl>  (839) 
4.17

>  <InChI_steorem>  (839) 
InChI=1S/C28H30N4O5/c1-17(2)32-25-21(16-29-32)14-28(15-23(25)33)8-10-31(11-9-28)26(34)20-12-22(30-24(13-20)37-3)18-4-6-19(7-5-18)27(35)36/h4-7,12-13,16-17H,8-11,14-15H2,1-3H3,(H,35,36)

>  <source>  (839) 
ChEMBL30

>  <source_id>  (839) 
30

>  <optional_reference>  (839) 
10.1021/acs.jmedchem.0c00640

>  <optional_origin>  (839) 
None

>  <target>  (839) 
BCRP

$$$$

     RDKit          2D

 37 41  0  0  0  0  0  0  0  0999 V2000
    6.2624  -23.7478    0.0000 C   0  0  0  0  0  0  0  0  0  0  0  0
    5.5520  -23.3417    0.0000 C   0  0  0  0  0  0  0  0  0  0  0  0
    4.8472  -23.7539    0.0000 C   0  0  0  0  0  0  0  0  0  0  0  0
    4.8517  -24.5720    0.0000 C   0  0  0  0  0  0  0  0  0  0  0  0
    5.5668  -24.9761    0.0000 C   0  0  0  0  0  0  0  0  0  0  0  0
    6.2687  -24.5616    0.0000 C   0  0  0  0  0  0  0  0  0  0  0  0
    4.1470  -24.9857    0.0000 C   0  0  0  0  0  0  0  0  0  0  0  0
    4.1530  -25.8029    0.0000 O   0  0  0  0  0  0  0  0  0  0  0  0
    5.5746  -25.7933    0.0000 N   0  0  0  0  0  0  0  0  0  0  0  0
    6.2862  -26.1951    0.0000 C   0  0  0  0  0  0  0  0  0  0  0  0
    6.2940  -27.0122    0.0000 C   0  0  0  0  0  0  0  0  0  0  0  0
    6.9900  -25.7798    0.0000 O   0  0  0  0  0  0  0  0  0  0  0  0
    3.4363  -24.5824    0.0000 C   0  0  0  0  0  0  0  0  0  0  0  0
    2.7316  -24.9961    0.0000 C   0  0  0  0  0  0  0  0  0  0  0  0
    5.5896  -27.4204    0.0000 O   0  0  0  0  0  0  0  0  0  0  0  0
    7.0066  -27.4058    0.0000 C   0  0  0  0  0  0  0  0  0  0  0  0
    7.0108  -28.2256    0.0000 C   0  0  0  0  0  0  0  0  0  0  0  0
    7.7207  -28.6304    0.0000 O   0  0  0  0  0  0  0  0  0  0  0  0
    6.3068  -28.6372    0.0000 C   0  0  0  0  0  0  0  0  0  0  0  0
    5.5974  -28.2335    0.0000 C   0  0  0  0  0  0  0  0  0  0  0  0
    4.8952  -28.6460    0.0000 C   0  0  0  0  0  0  0  0  0  0  0  0
    4.9012  -29.4620    0.0000 C   0  0  0  0  0  0  0  0  0  0  0  0
    5.6153  -29.8637    0.0000 C   0  0  0  0  0  0  0  0  0  0  0  0
    6.3146  -29.4490    0.0000 C   0  0  0  0  0  0  0  0  0  0  0  0
    6.9683  -23.3308    0.0000 C   0  0  0  0  0  0  0  0  0  0  0  0
    7.7169  -23.6587    0.0000 C   0  0  0  0  0  0  0  0  0  0  0  0
    8.2600  -23.0481    0.0000 N   0  0  0  0  0  0  0  0  0  0  0  0
    7.8472  -22.3428    0.0000 N   0  0  0  0  0  0  0  0  0  0  0  0
    7.0489  -22.5176    0.0000 N   0  0  0  0  0  0  0  0  0  0  0  0
    9.0732  -23.1286    0.0000 C   0  0  0  0  0  0  0  0  0  0  0  0
    9.4101  -23.8731    0.0000 C   0  0  0  0  0  0  0  0  0  0  0  0
   10.2233  -23.9537    0.0000 N   0  0  0  0  0  0  0  0  0  0  0  0
   10.5602  -24.6982    0.0000 C   0  0  0  0  0  0  0  0  0  0  0  0
   10.6997  -23.2897    0.0000 C   0  0  0  0  0  0  0  0  0  0  0  0
   11.5129  -23.3702    0.0000 C   0  0  0  0  0  0  0  0  0  0  0  0
   11.8498  -24.1147    0.0000 O   0  0  0  0  0  0  0  0  0  0  0  0
   11.3734  -24.7787    0.0000 C   0  0  0  0  0  0  0  0  0  0  0  0
  1  2  2  0
  2  3  1  0
  3  4  2  0
  4  5  1  0
  5  6  2  0
  6  1  1  0
  4  7  1  0
  7  8  2  0
  5  9  1  0
  9 10  1  0
 10 11  1  0
 10 12  2  0
  7 13  1  0
 13 14  1  0
 11 15  1  0
 11 16  2  0
 15 20  1  0
 17 16  1  0
 17 19  1  0
 17 18  2  0
 19 20  2  0
 20 21  1  0
 21 22  2  0
 22 23  1  0
 23 24  2  0
 24 19  1  0
 25 26  2  0
 26 27  1  0
 27 28  1  0
 28 29  2  0
 29 25  1  0
  1 25  1  0
 27 30  1  0
 30 31  1  0
 31 32  1  0
 32 33  1  0
 32 34  1  0
 34 35  1  0
 33 37  1  0
 35 36  1  0
 36 37  1  0
M  END
>  <Classification>  (840) 
1

>  <pchembl>  (840) 
6.51

>  <InChI_steorem>  (840) 
InChI=1S/C27H27N5O5/c1-2-23(33)19-8-7-18(22-17-32(30-29-22)10-9-31-11-13-36-14-12-31)15-21(19)28-27(35)26-16-24(34)20-5-3-4-6-25(20)37-26/h3-8,15-17H,2,9-14H2,1H3,(H,28,35)

>  <source>  (840) 
ChEMBL30

>  <source_id>  (840) 
30

>  <optional_reference>  (840) 
10.1016/j.ejmech.2020.112958

>  <optional_origin>  (840) 
None

>  <target>  (840) 
BCRP

$$$$

     RDKit          2D

 46 52  0  0  0  0  0  0  0  0999 V2000
   22.4796   -2.4969    0.0000 C   0  0  0  0  0  0  0  0  0  0  0  0
   22.4785   -3.3206    0.0000 C   0  0  0  0  0  0  0  0  0  0  0  0
   23.1906   -3.7296    0.0000 C   0  0  0  0  0  0  0  0  0  0  0  0
   23.9044   -3.3201    0.0000 C   0  0  0  0  0  0  0  0  0  0  0  0
   23.9016   -2.4933    0.0000 C   0  0  0  0  0  0  0  0  0  0  0  0
   23.1888   -2.0839    0.0000 C   0  0  0  0  0  0  0  0  0  0  0  0
   21.7704   -3.7286    0.0000 C   0  0  0  0  0  0  0  0  0  0  0  0
   21.7698   -4.5500    0.0000 O   0  0  0  0  0  0  0  0  0  0  0  0
   23.1904   -4.5509    0.0000 N   0  0  0  0  0  0  0  0  0  0  0  0
   23.9022   -4.9638    0.0000 C   0  0  0  0  0  0  0  0  0  0  0  0
   23.9020   -5.7851    0.0000 C   0  0  0  0  0  0  0  0  0  0  0  0
   24.6141   -4.5512    0.0000 O   0  0  0  0  0  0  0  0  0  0  0  0
   23.1896   -6.1892    0.0000 N   0  0  0  0  0  0  0  0  0  0  0  0
   24.6156   -7.0066    0.0000 C   0  0  0  0  0  0  0  0  0  0  0  0
   24.6127   -6.1874    0.0000 C   0  0  0  0  0  0  0  0  0  0  0  0
   23.9013   -7.4235    0.0000 C   0  0  0  0  0  0  0  0  0  0  0  0
   23.1925   -7.0109    0.0000 C   0  0  0  0  0  0  0  0  0  0  0  0
   22.4844   -7.4211    0.0000 C   0  0  0  0  0  0  0  0  0  0  0  0
   22.4839   -8.2395    0.0000 C   0  0  0  0  0  0  0  0  0  0  0  0
   23.1974   -8.6461    0.0000 C   0  0  0  0  0  0  0  0  0  0  0  0
   23.9026   -8.2377    0.0000 C   0  0  0  0  0  0  0  0  0  0  0  0
   24.6115   -2.0755    0.0000 C   0  0  0  0  0  0  0  0  0  0  0  0
   25.3634   -2.4050    0.0000 C   0  0  0  0  0  0  0  0  0  0  0  0
   25.9120   -1.7956    0.0000 N   0  0  0  0  0  0  0  0  0  0  0  0
   25.4966   -1.0853    0.0000 N   0  0  0  0  0  0  0  0  0  0  0  0
   24.6939   -1.2583    0.0000 N   0  0  0  0  0  0  0  0  0  0  0  0
   26.7292   -1.8780    0.0000 C   0  0  0  0  0  0  0  0  0  0  0  0
   27.0611   -2.6299    0.0000 C   0  0  0  0  0  0  0  0  0  0  0  0
   27.8775   -2.7126    0.0000 C   0  0  0  0  0  0  0  0  0  0  0  0
   28.3603   -2.0451    0.0000 C   0  0  0  0  0  0  0  0  0  0  0  0
   28.0169   -1.2929    0.0000 C   0  0  0  0  0  0  0  0  0  0  0  0
   27.2015   -1.2138    0.0000 C   0  0  0  0  0  0  0  0  0  0  0  0
   29.1776   -2.1263    0.0000 C   0  0  0  0  0  0  0  0  0  0  0  0
   29.6542   -1.4625    0.0000 C   0  0  0  0  0  0  0  0  0  0  0  0
   30.4674   -1.5434    0.0000 N   0  0  0  0  0  0  0  0  0  0  0  0
   30.9440   -0.8796    0.0000 C   0  0  0  0  0  0  0  0  0  0  0  0
   30.8039   -2.2881    0.0000 C   0  0  0  0  0  0  0  0  0  0  0  0
   31.7572   -0.9605    0.0000 C   0  0  0  0  0  0  0  0  0  0  0  0
   32.0938   -1.7051    0.0000 C   0  0  0  0  0  0  0  0  0  0  0  0
   31.6173   -2.3670    0.0000 C   0  0  0  0  0  0  0  0  0  0  0  0
   31.9524   -3.1084    0.0000 C   0  0  0  0  0  0  0  0  0  0  0  0
   32.7636   -3.1891    0.0000 C   0  0  0  0  0  0  0  0  0  0  0  0
   33.2387   -2.5225    0.0000 C   0  0  0  0  0  0  0  0  0  0  0  0
   32.9010   -1.7837    0.0000 C   0  0  0  0  0  0  0  0  0  0  0  0
   21.0630   -3.3195    0.0000 O   0  0  0  0  0  0  0  0  0  0  0  0
   20.3550   -3.7275    0.0000 C   0  0  0  0  0  0  0  0  0  0  0  0
  1  2  2  0
  2  3  1  0
  3  4  2  0
  4  5  1  0
  5  6  2  0
  6  1  1  0
  2  7  1  0
  7  8  2  0
  3  9  1  0
  9 10  1  0
 10 11  1  0
 10 12  2  0
 11 13  2  0
 13 17  1  0
 16 14  1  0
 14 15  2  0
 15 11  1  0
 16 17  2  0
 17 18  1  0
 18 19  2  0
 19 20  1  0
 20 21  2  0
 21 16  1  0
 22 23  2  0
 23 24  1  0
 24 25  1  0
 25 26  2  0
 26 22  1  0
  5 22  1  0
 24 27  1  0
 27 28  2  0
 28 29  1  0
 29 30  2  0
 30 31  1  0
 31 32  2  0
 32 27  1  0
 30 33  1  0
 33 34  1  0
 34 35  1  0
 35 36  1  0
 35 37  1  0
 36 38  1  0
 37 40  1  0
 38 39  1  0
 39 40  2  0
 40 41  1  0
 41 42  2  0
 42 43  1  0
 43 44  2  0
 44 39  1  0
  7 45  1  0
 45 46  1  0
M  END
>  <Classification>  (841) 
1

>  <pchembl>  (841) 
6.31

>  <InChI_steorem>  (841) 
InChI=1S/C37H32N6O3/c1-46-37(45)31-16-12-28(22-34(31)39-36(44)33-17-13-27-7-4-5-9-32(27)38-33)35-24-43(41-40-35)30-14-10-25(11-15-30)18-20-42-21-19-26-6-2-3-8-29(26)23-42/h2-17,22,24H,18-21,23H2,1H3,(H,39,44)

>  <source>  (841) 
ChEMBL30

>  <source_id>  (841) 
30

>  <optional_reference>  (841) 
10.1016/j.ejmech.2020.112133

>  <optional_origin>  (841) 
None

>  <target>  (841) 
BCRP

$$$$

     RDKit          2D

 47 52  0  0  0  0  0  0  0  0999 V2000
   36.4284   -2.4513    0.0000 C   0  0  0  0  0  0  0  0  0  0  0  0
   35.7179   -2.0452    0.0000 C   0  0  0  0  0  0  0  0  0  0  0  0
   35.0132   -2.4574    0.0000 C   0  0  0  0  0  0  0  0  0  0  0  0
   35.0176   -3.2755    0.0000 C   0  0  0  0  0  0  0  0  0  0  0  0
   35.7328   -3.6796    0.0000 C   0  0  0  0  0  0  0  0  0  0  0  0
   36.4346   -3.2651    0.0000 C   0  0  0  0  0  0  0  0  0  0  0  0
   34.3129   -3.6892    0.0000 C   0  0  0  0  0  0  0  0  0  0  0  0
   34.3189   -4.5064    0.0000 O   0  0  0  0  0  0  0  0  0  0  0  0
   35.7406   -4.4968    0.0000 N   0  0  0  0  0  0  0  0  0  0  0  0
   36.4521   -4.8986    0.0000 C   0  0  0  0  0  0  0  0  0  0  0  0
   36.4599   -5.7157    0.0000 C   0  0  0  0  0  0  0  0  0  0  0  0
   37.1559   -4.4833    0.0000 O   0  0  0  0  0  0  0  0  0  0  0  0
   33.6023   -3.2859    0.0000 C   0  0  0  0  0  0  0  0  0  0  0  0
   32.8976   -3.6996    0.0000 C   0  0  0  0  0  0  0  0  0  0  0  0
   37.1343   -2.0343    0.0000 C   0  0  0  0  0  0  0  0  0  0  0  0
   37.8828   -2.3622    0.0000 C   0  0  0  0  0  0  0  0  0  0  0  0
   38.4259   -1.7516    0.0000 N   0  0  0  0  0  0  0  0  0  0  0  0
   38.0131   -1.0463    0.0000 N   0  0  0  0  0  0  0  0  0  0  0  0
   37.2148   -1.2211    0.0000 N   0  0  0  0  0  0  0  0  0  0  0  0
   39.2349   -1.8299    0.0000 C   0  0  0  0  0  0  0  0  0  0  0  0
   39.5710   -2.5760    0.0000 C   0  0  0  0  0  0  0  0  0  0  0  0
   40.3834   -2.6568    0.0000 C   0  0  0  0  0  0  0  0  0  0  0  0
   40.8606   -1.9923    0.0000 C   0  0  0  0  0  0  0  0  0  0  0  0
   40.5196   -1.2450    0.0000 C   0  0  0  0  0  0  0  0  0  0  0  0
   39.7082   -1.1679    0.0000 C   0  0  0  0  0  0  0  0  0  0  0  0
   41.6739   -2.0718    0.0000 C   0  0  0  0  0  0  0  0  0  0  0  0
   42.0118   -2.8159    0.0000 C   0  0  0  0  0  0  0  0  0  0  0  0
   42.8251   -2.8953    0.0000 N   0  0  0  0  0  0  0  0  0  0  0  0
   43.1596   -3.6394    0.0000 C   0  0  0  0  0  0  0  0  0  0  0  0
   44.1118   -2.3122    0.0000 C   0  0  0  0  0  0  0  0  0  0  0  0
   43.2963   -2.2289    0.0000 C   0  0  0  0  0  0  0  0  0  0  0  0
   44.4483   -3.0580    0.0000 C   0  0  0  0  0  0  0  0  0  0  0  0
   43.9711   -3.7174    0.0000 C   0  0  0  0  0  0  0  0  0  0  0  0
   44.3037   -4.4582    0.0000 C   0  0  0  0  0  0  0  0  0  0  0  0
   45.1132   -4.5409    0.0000 C   0  0  0  0  0  0  0  0  0  0  0  0
   45.5890   -3.8767    0.0000 C   0  0  0  0  0  0  0  0  0  0  0  0
   45.2538   -3.1385    0.0000 C   0  0  0  0  0  0  0  0  0  0  0  0
   46.4023   -3.9564    0.0000 O   0  0  0  0  0  0  0  0  0  0  0  0
   46.7399   -4.7006    0.0000 C   0  0  0  0  0  0  0  0  0  0  0  0
   45.4491   -5.2858    0.0000 O   0  0  0  0  0  0  0  0  0  0  0  0
   44.9720   -5.9493    0.0000 C   0  0  0  0  0  0  0  0  0  0  0  0
   35.7570   -6.1274    0.0000 N   0  0  0  0  0  0  0  0  0  0  0  0
   35.7644   -6.9438    0.0000 C   0  0  0  0  0  0  0  0  0  0  0  0
   36.4765   -7.3464    0.0000 C   0  0  0  0  0  0  0  0  0  0  0  0
   37.1826   -6.9267    0.0000 C   0  0  0  0  0  0  0  0  0  0  0  0
   37.1717   -6.1117    0.0000 C   0  0  0  0  0  0  0  0  0  0  0  0
   35.0604   -7.3588    0.0000 N   0  0  0  0  0  0  0  0  0  0  0  0
  1  2  2  0
  2  3  1  0
  3  4  2  0
  4  5  1  0
  5  6  2  0
  6  1  1  0
  4  7  1  0
  7  8  2  0
  5  9  1  0
  9 10  1  0
 10 11  1  0
 10 12  2  0
  7 13  1  0
 13 14  1  0
 15 16  2  0
 16 17  1  0
 17 18  1  0
 18 19  2  0
 19 15  1  0
  1 15  1  0
 20 21  2  0
 21 22  1  0
 22 23  2  0
 23 24  1  0
 24 25  2  0
 25 20  1  0
 17 20  1  0
 23 26  1  0
 26 27  1  0
 27 28  1  0
 28 29  1  0
 28 31  1  0
 29 33  1  0
 32 30  1  0
 30 31  1  0
 32 33  2  0
 33 34  1  0
 34 35  2  0
 35 36  1  0
 36 37  2  0
 37 32  1  0
 36 38  1  0
 38 39  1  0
 35 40  1  0
 40 41  1  0
 11 42  2  0
 42 43  1  0
 43 44  2  0
 44 45  1  0
 45 46  2  0
 46 11  1  0
 43 47  1  0
M  END
>  <Classification>  (842) 
1

>  <pchembl>  (842) 
7.09

>  <InChI_steorem>  (842) 
InChI=1S/C36H37N7O4/c1-4-32(44)28-13-10-25(18-30(28)39-36(45)29-6-5-7-35(37)38-29)31-22-43(41-40-31)27-11-8-23(9-12-27)14-16-42-17-15-24-19-33(46-2)34(47-3)20-26(24)21-42/h5-13,18-20,22H,4,14-17,21H2,1-3H3,(H2,37,38)(H,39,45)

>  <source>  (842) 
ChEMBL30

>  <source_id>  (842) 
30

>  <optional_reference>  (842) 
10.1016/j.ejmech.2020.112958

>  <optional_origin>  (842) 
None

>  <target>  (842) 
BCRP

$$$$

     RDKit          2D

 47 52  0  0  0  0  0  0  0  0999 V2000
   36.9855  -13.5205    0.0000 C   0  0  0  0  0  0  0  0  0  0  0  0
   36.2751  -13.1145    0.0000 C   0  0  0  0  0  0  0  0  0  0  0  0
   35.5703  -13.5266    0.0000 C   0  0  0  0  0  0  0  0  0  0  0  0
   35.5748  -14.3447    0.0000 C   0  0  0  0  0  0  0  0  0  0  0  0
   36.2899  -14.7488    0.0000 C   0  0  0  0  0  0  0  0  0  0  0  0
   36.9918  -14.3343    0.0000 C   0  0  0  0  0  0  0  0  0  0  0  0
   34.8701  -14.7585    0.0000 C   0  0  0  0  0  0  0  0  0  0  0  0
   34.8761  -15.5756    0.0000 O   0  0  0  0  0  0  0  0  0  0  0  0
   36.2977  -15.5660    0.0000 N   0  0  0  0  0  0  0  0  0  0  0  0
   37.0093  -15.9678    0.0000 C   0  0  0  0  0  0  0  0  0  0  0  0
   37.0171  -16.7850    0.0000 C   0  0  0  0  0  0  0  0  0  0  0  0
   37.7131  -15.5525    0.0000 O   0  0  0  0  0  0  0  0  0  0  0  0
   34.1594  -14.3551    0.0000 C   0  0  0  0  0  0  0  0  0  0  0  0
   33.4547  -14.7689    0.0000 C   0  0  0  0  0  0  0  0  0  0  0  0
   37.6914  -13.1035    0.0000 C   0  0  0  0  0  0  0  0  0  0  0  0
   38.4400  -13.4314    0.0000 C   0  0  0  0  0  0  0  0  0  0  0  0
   38.9831  -12.8208    0.0000 N   0  0  0  0  0  0  0  0  0  0  0  0
   38.5702  -12.1155    0.0000 N   0  0  0  0  0  0  0  0  0  0  0  0
   37.7720  -12.2903    0.0000 N   0  0  0  0  0  0  0  0  0  0  0  0
   39.7920  -12.8991    0.0000 C   0  0  0  0  0  0  0  0  0  0  0  0
   40.1281  -13.6452    0.0000 C   0  0  0  0  0  0  0  0  0  0  0  0
   40.9406  -13.7260    0.0000 C   0  0  0  0  0  0  0  0  0  0  0  0
   41.4178  -13.0616    0.0000 C   0  0  0  0  0  0  0  0  0  0  0  0
   41.0768  -12.3143    0.0000 C   0  0  0  0  0  0  0  0  0  0  0  0
   40.2653  -12.2371    0.0000 C   0  0  0  0  0  0  0  0  0  0  0  0
   42.2311  -13.1410    0.0000 C   0  0  0  0  0  0  0  0  0  0  0  0
   42.5689  -13.8851    0.0000 C   0  0  0  0  0  0  0  0  0  0  0  0
   43.3823  -13.9646    0.0000 N   0  0  0  0  0  0  0  0  0  0  0  0
   43.7168  -14.7086    0.0000 C   0  0  0  0  0  0  0  0  0  0  0  0
   44.6690  -13.3814    0.0000 C   0  0  0  0  0  0  0  0  0  0  0  0
   43.8535  -13.2981    0.0000 C   0  0  0  0  0  0  0  0  0  0  0  0
   45.0055  -14.1272    0.0000 C   0  0  0  0  0  0  0  0  0  0  0  0
   44.5283  -14.7866    0.0000 C   0  0  0  0  0  0  0  0  0  0  0  0
   44.8608  -15.5275    0.0000 C   0  0  0  0  0  0  0  0  0  0  0  0
   45.6703  -15.6101    0.0000 C   0  0  0  0  0  0  0  0  0  0  0  0
   46.1462  -14.9459    0.0000 C   0  0  0  0  0  0  0  0  0  0  0  0
   45.8110  -14.2077    0.0000 C   0  0  0  0  0  0  0  0  0  0  0  0
   46.9595  -15.0256    0.0000 O   0  0  0  0  0  0  0  0  0  0  0  0
   47.2971  -15.7698    0.0000 C   0  0  0  0  0  0  0  0  0  0  0  0
   46.0063  -16.3551    0.0000 O   0  0  0  0  0  0  0  0  0  0  0  0
   45.5292  -17.0185    0.0000 C   0  0  0  0  0  0  0  0  0  0  0  0
   36.3142  -17.1966    0.0000 N   0  0  0  0  0  0  0  0  0  0  0  0
   36.3216  -18.0130    0.0000 C   0  0  0  0  0  0  0  0  0  0  0  0
   37.0337  -18.4157    0.0000 C   0  0  0  0  0  0  0  0  0  0  0  0
   37.7398  -17.9959    0.0000 C   0  0  0  0  0  0  0  0  0  0  0  0
   37.7289  -17.1809    0.0000 C   0  0  0  0  0  0  0  0  0  0  0  0
   35.6176  -18.4280    0.0000 C   0  0  0  0  0  0  0  0  0  0  0  0
  1  2  2  0
  2  3  1  0
  3  4  2  0
  4  5  1  0
  5  6  2  0
  6  1  1  0
  4  7  1  0
  7  8  2  0
  5  9  1  0
  9 10  1  0
 10 11  1  0
 10 12  2  0
  7 13  1  0
 13 14  1  0
 15 16  2  0
 16 17  1  0
 17 18  1  0
 18 19  2  0
 19 15  1  0
  1 15  1  0
 20 21  2  0
 21 22  1  0
 22 23  2  0
 23 24  1  0
 24 25  2  0
 25 20  1  0
 17 20  1  0
 23 26  1  0
 26 27  1  0
 27 28  1  0
 28 29  1  0
 28 31  1  0
 29 33  1  0
 32 30  1  0
 30 31  1  0
 32 33  2  0
 33 34  1  0
 34 35  2  0
 35 36  1  0
 36 37  2  0
 37 32  1  0
 36 38  1  0
 38 39  1  0
 35 40  1  0
 40 41  1  0
 11 42  2  0
 42 43  1  0
 43 44  2  0
 44 45  1  0
 45 46  2  0
 46 11  1  0
 43 47  1  0
M  END
>  <Classification>  (843) 
1

>  <pchembl>  (843) 
6.78

>  <InChI_steorem>  (843) 
InChI=1S/C37H38N6O4/c1-5-34(44)30-14-11-27(19-32(30)39-37(45)31-8-6-7-24(2)38-31)33-23-43(41-40-33)29-12-9-25(10-13-29)15-17-42-18-16-26-20-35(46-3)36(47-4)21-28(26)22-42/h6-14,19-21,23H,5,15-18,22H2,1-4H3,(H,39,45)

>  <source>  (843) 
ChEMBL30

>  <source_id>  (843) 
30

>  <optional_reference>  (843) 
10.1016/j.ejmech.2020.112958

>  <optional_origin>  (843) 
None

>  <target>  (843) 
BCRP

$$$$

     RDKit          2D

 47 52  0  0  0  0  0  0  0  0999 V2000
    4.4300  -24.2554    0.0000 C   0  0  0  0  0  0  0  0  0  0  0  0
    3.7195  -23.8494    0.0000 C   0  0  0  0  0  0  0  0  0  0  0  0
    3.0148  -24.2616    0.0000 C   0  0  0  0  0  0  0  0  0  0  0  0
    3.0192  -25.0796    0.0000 C   0  0  0  0  0  0  0  0  0  0  0  0
    3.7344  -25.4838    0.0000 C   0  0  0  0  0  0  0  0  0  0  0  0
    4.4362  -25.0693    0.0000 C   0  0  0  0  0  0  0  0  0  0  0  0
    2.3145  -25.4934    0.0000 C   0  0  0  0  0  0  0  0  0  0  0  0
    2.3205  -26.3106    0.0000 O   0  0  0  0  0  0  0  0  0  0  0  0
    3.7422  -26.3009    0.0000 N   0  0  0  0  0  0  0  0  0  0  0  0
    4.4537  -26.7027    0.0000 C   0  0  0  0  0  0  0  0  0  0  0  0
    4.4615  -27.5199    0.0000 C   0  0  0  0  0  0  0  0  0  0  0  0
    5.1575  -26.2874    0.0000 O   0  0  0  0  0  0  0  0  0  0  0  0
    1.6038  -25.0900    0.0000 C   0  0  0  0  0  0  0  0  0  0  0  0
    0.8992  -25.5038    0.0000 C   0  0  0  0  0  0  0  0  0  0  0  0
    5.1359  -23.8385    0.0000 C   0  0  0  0  0  0  0  0  0  0  0  0
    5.8844  -24.1663    0.0000 C   0  0  0  0  0  0  0  0  0  0  0  0
    6.4275  -23.5557    0.0000 N   0  0  0  0  0  0  0  0  0  0  0  0
    6.0147  -22.8504    0.0000 N   0  0  0  0  0  0  0  0  0  0  0  0
    5.2164  -23.0253    0.0000 N   0  0  0  0  0  0  0  0  0  0  0  0
    7.2365  -23.6341    0.0000 C   0  0  0  0  0  0  0  0  0  0  0  0
    7.5726  -24.3801    0.0000 C   0  0  0  0  0  0  0  0  0  0  0  0
    8.3850  -24.4609    0.0000 C   0  0  0  0  0  0  0  0  0  0  0  0
    8.8622  -23.7965    0.0000 C   0  0  0  0  0  0  0  0  0  0  0  0
    8.5212  -23.0492    0.0000 C   0  0  0  0  0  0  0  0  0  0  0  0
    7.7098  -22.9720    0.0000 C   0  0  0  0  0  0  0  0  0  0  0  0
    9.6755  -23.8759    0.0000 C   0  0  0  0  0  0  0  0  0  0  0  0
   10.0134  -24.6200    0.0000 C   0  0  0  0  0  0  0  0  0  0  0  0
   10.8267  -24.6995    0.0000 N   0  0  0  0  0  0  0  0  0  0  0  0
   11.1612  -25.4435    0.0000 C   0  0  0  0  0  0  0  0  0  0  0  0
   12.1134  -24.1164    0.0000 C   0  0  0  0  0  0  0  0  0  0  0  0
   11.2979  -24.0331    0.0000 C   0  0  0  0  0  0  0  0  0  0  0  0
   12.4499  -24.8621    0.0000 C   0  0  0  0  0  0  0  0  0  0  0  0
   11.9727  -25.5215    0.0000 C   0  0  0  0  0  0  0  0  0  0  0  0
   12.3053  -26.2624    0.0000 C   0  0  0  0  0  0  0  0  0  0  0  0
   13.1148  -26.3451    0.0000 C   0  0  0  0  0  0  0  0  0  0  0  0
   13.5906  -25.6808    0.0000 C   0  0  0  0  0  0  0  0  0  0  0  0
   13.2554  -24.9426    0.0000 C   0  0  0  0  0  0  0  0  0  0  0  0
   14.4039  -25.7606    0.0000 O   0  0  0  0  0  0  0  0  0  0  0  0
   14.7415  -26.5048    0.0000 C   0  0  0  0  0  0  0  0  0  0  0  0
   13.4507  -27.0900    0.0000 O   0  0  0  0  0  0  0  0  0  0  0  0
   12.9736  -27.7534    0.0000 C   0  0  0  0  0  0  0  0  0  0  0  0
    3.7586  -27.9315    0.0000 N   0  0  0  0  0  0  0  0  0  0  0  0
    3.7660  -28.7479    0.0000 C   0  0  0  0  0  0  0  0  0  0  0  0
    4.4781  -29.1506    0.0000 C   0  0  0  0  0  0  0  0  0  0  0  0
    5.1842  -28.7308    0.0000 C   0  0  0  0  0  0  0  0  0  0  0  0
    5.1733  -27.9158    0.0000 C   0  0  0  0  0  0  0  0  0  0  0  0
    3.0620  -29.1629    0.0000 Cl  0  0  0  0  0  0  0  0  0  0  0  0
  1  2  2  0
  2  3  1  0
  3  4  2  0
  4  5  1  0
  5  6  2  0
  6  1  1  0
  4  7  1  0
  7  8  2  0
  5  9  1  0
  9 10  1  0
 10 11  1  0
 10 12  2  0
  7 13  1  0
 13 14  1  0
 15 16  2  0
 16 17  1  0
 17 18  1  0
 18 19  2  0
 19 15  1  0
  1 15  1  0
 20 21  2  0
 21 22  1  0
 22 23  2  0
 23 24  1  0
 24 25  2  0
 25 20  1  0
 17 20  1  0
 23 26  1  0
 26 27  1  0
 27 28  1  0
 28 29  1  0
 28 31  1  0
 29 33  1  0
 32 30  1  0
 30 31  1  0
 32 33  2  0
 33 34  1  0
 34 35  2  0
 35 36  1  0
 36 37  2  0
 37 32  1  0
 36 38  1  0
 38 39  1  0
 35 40  1  0
 40 41  1  0
 11 42  2  0
 42 43  1  0
 43 44  2  0
 44 45  1  0
 45 46  2  0
 46 11  1  0
 43 47  1  0
M  END
>  <Classification>  (844) 
1

>  <pchembl>  (844) 
6.94

>  <InChI_steorem>  (844) 
InChI=1S/C36H35ClN6O4/c1-4-32(44)28-13-10-25(18-30(28)39-36(45)29-6-5-7-35(37)38-29)31-22-43(41-40-31)27-11-8-23(9-12-27)14-16-42-17-15-24-19-33(46-2)34(47-3)20-26(24)21-42/h5-13,18-20,22H,4,14-17,21H2,1-3H3,(H,39,45)

>  <source>  (844) 
ChEMBL30

>  <source_id>  (844) 
30

>  <optional_reference>  (844) 
10.1016/j.ejmech.2020.112958

>  <optional_origin>  (844) 
None

>  <target>  (844) 
BCRP

$$$$

     RDKit          2D

 47 52  0  0  0  0  0  0  0  0999 V2000
    4.5827   -2.4802    0.0000 C   0  0  0  0  0  0  0  0  0  0  0  0
    3.8722   -2.0741    0.0000 C   0  0  0  0  0  0  0  0  0  0  0  0
    3.1675   -2.4863    0.0000 C   0  0  0  0  0  0  0  0  0  0  0  0
    3.1719   -3.3044    0.0000 C   0  0  0  0  0  0  0  0  0  0  0  0
    3.8871   -3.7085    0.0000 C   0  0  0  0  0  0  0  0  0  0  0  0
    4.5889   -3.2940    0.0000 C   0  0  0  0  0  0  0  0  0  0  0  0
    2.4672   -3.7181    0.0000 C   0  0  0  0  0  0  0  0  0  0  0  0
    2.4732   -4.5353    0.0000 O   0  0  0  0  0  0  0  0  0  0  0  0
    3.8949   -4.5256    0.0000 N   0  0  0  0  0  0  0  0  0  0  0  0
    4.6064   -4.9275    0.0000 C   0  0  0  0  0  0  0  0  0  0  0  0
    4.6142   -5.7446    0.0000 C   0  0  0  0  0  0  0  0  0  0  0  0
    5.3102   -4.5121    0.0000 O   0  0  0  0  0  0  0  0  0  0  0  0
    1.7566   -3.3147    0.0000 C   0  0  0  0  0  0  0  0  0  0  0  0
    1.0519   -3.7285    0.0000 C   0  0  0  0  0  0  0  0  0  0  0  0
    5.2886   -2.0632    0.0000 C   0  0  0  0  0  0  0  0  0  0  0  0
    6.0371   -2.3910    0.0000 C   0  0  0  0  0  0  0  0  0  0  0  0
    6.5802   -1.7805    0.0000 N   0  0  0  0  0  0  0  0  0  0  0  0
    6.1674   -1.0752    0.0000 N   0  0  0  0  0  0  0  0  0  0  0  0
    5.3691   -1.2500    0.0000 N   0  0  0  0  0  0  0  0  0  0  0  0
    7.3892   -1.8588    0.0000 C   0  0  0  0  0  0  0  0  0  0  0  0
    7.7253   -2.6049    0.0000 C   0  0  0  0  0  0  0  0  0  0  0  0
    8.5377   -2.6857    0.0000 C   0  0  0  0  0  0  0  0  0  0  0  0
    9.0149   -2.0212    0.0000 C   0  0  0  0  0  0  0  0  0  0  0  0
    8.6739   -1.2739    0.0000 C   0  0  0  0  0  0  0  0  0  0  0  0
    7.8625   -1.1967    0.0000 C   0  0  0  0  0  0  0  0  0  0  0  0
    9.8282   -2.1007    0.0000 C   0  0  0  0  0  0  0  0  0  0  0  0
   10.1661   -2.8448    0.0000 C   0  0  0  0  0  0  0  0  0  0  0  0
   10.9794   -2.9242    0.0000 N   0  0  0  0  0  0  0  0  0  0  0  0
   11.3139   -3.6683    0.0000 C   0  0  0  0  0  0  0  0  0  0  0  0
   12.2661   -2.3411    0.0000 C   0  0  0  0  0  0  0  0  0  0  0  0
   11.4506   -2.2578    0.0000 C   0  0  0  0  0  0  0  0  0  0  0  0
   12.6026   -3.0869    0.0000 C   0  0  0  0  0  0  0  0  0  0  0  0
   12.1254   -3.7462    0.0000 C   0  0  0  0  0  0  0  0  0  0  0  0
   12.4580   -4.4871    0.0000 C   0  0  0  0  0  0  0  0  0  0  0  0
   13.2675   -4.5698    0.0000 C   0  0  0  0  0  0  0  0  0  0  0  0
   13.7433   -3.9056    0.0000 C   0  0  0  0  0  0  0  0  0  0  0  0
   13.4081   -3.1674    0.0000 C   0  0  0  0  0  0  0  0  0  0  0  0
   14.5566   -3.9853    0.0000 O   0  0  0  0  0  0  0  0  0  0  0  0
   14.8942   -4.7295    0.0000 C   0  0  0  0  0  0  0  0  0  0  0  0
   13.6034   -5.3147    0.0000 O   0  0  0  0  0  0  0  0  0  0  0  0
   13.1263   -5.9782    0.0000 C   0  0  0  0  0  0  0  0  0  0  0  0
    3.9113   -6.1563    0.0000 N   0  0  0  0  0  0  0  0  0  0  0  0
    3.9187   -6.9727    0.0000 C   0  0  0  0  0  0  0  0  0  0  0  0
    4.6308   -7.3753    0.0000 C   0  0  0  0  0  0  0  0  0  0  0  0
    5.3369   -6.9556    0.0000 C   0  0  0  0  0  0  0  0  0  0  0  0
    5.3260   -6.1406    0.0000 C   0  0  0  0  0  0  0  0  0  0  0  0
    3.2147   -7.3877    0.0000 O   0  0  0  0  0  0  0  0  0  0  0  0
  1  2  2  0
  2  3  1  0
  3  4  2  0
  4  5  1  0
  5  6  2  0
  6  1  1  0
  4  7  1  0
  7  8  2  0
  5  9  1  0
  9 10  1  0
 10 11  1  0
 10 12  2  0
  7 13  1  0
 13 14  1  0
 15 16  2  0
 16 17  1  0
 17 18  1  0
 18 19  2  0
 19 15  1  0
  1 15  1  0
 20 21  2  0
 21 22  1  0
 22 23  2  0
 23 24  1  0
 24 25  2  0
 25 20  1  0
 17 20  1  0
 23 26  1  0
 26 27  1  0
 27 28  1  0
 28 29  1  0
 28 31  1  0
 29 33  1  0
 32 30  1  0
 30 31  1  0
 32 33  2  0
 33 34  1  0
 34 35  2  0
 35 36  1  0
 36 37  2  0
 37 32  1  0
 36 38  1  0
 38 39  1  0
 35 40  1  0
 40 41  1  0
 11 42  2  0
 42 43  1  0
 43 44  2  0
 44 45  1  0
 45 46  2  0
 46 11  1  0
 43 47  1  0
M  END
>  <Classification>  (845) 
1

>  <pchembl>  (845) 
6.48

>  <InChI_steorem>  (845) 
InChI=1S/C36H36N6O5/c1-4-32(43)28-13-10-25(18-30(28)38-36(45)29-6-5-7-35(44)37-29)31-22-42(40-39-31)27-11-8-23(9-12-27)14-16-41-17-15-24-19-33(46-2)34(47-3)20-26(24)21-41/h5-13,18-20,22H,4,14-17,21H2,1-3H3,(H,37,44)(H,38,45)

>  <source>  (845) 
ChEMBL30

>  <source_id>  (845) 
30

>  <optional_reference>  (845) 
10.1016/j.ejmech.2020.112958

>  <optional_origin>  (845) 
None

>  <target>  (845) 
BCRP

$$$$

     RDKit          2D

 48 53  0  0  0  0  0  0  0  0999 V2000
   20.5550  -23.8881    0.0000 C   0  0  0  0  0  0  0  0  0  0  0  0
   19.8446  -23.4821    0.0000 C   0  0  0  0  0  0  0  0  0  0  0  0
   19.1398  -23.8942    0.0000 C   0  0  0  0  0  0  0  0  0  0  0  0
   19.1443  -24.7123    0.0000 C   0  0  0  0  0  0  0  0  0  0  0  0
   19.8594  -25.1164    0.0000 C   0  0  0  0  0  0  0  0  0  0  0  0
   20.5613  -24.7019    0.0000 C   0  0  0  0  0  0  0  0  0  0  0  0
   18.4396  -25.1261    0.0000 C   0  0  0  0  0  0  0  0  0  0  0  0
   18.4456  -25.9432    0.0000 O   0  0  0  0  0  0  0  0  0  0  0  0
   19.8672  -25.9336    0.0000 N   0  0  0  0  0  0  0  0  0  0  0  0
   20.5788  -26.3354    0.0000 C   0  0  0  0  0  0  0  0  0  0  0  0
   20.5866  -27.1526    0.0000 C   0  0  0  0  0  0  0  0  0  0  0  0
   21.2826  -25.9201    0.0000 O   0  0  0  0  0  0  0  0  0  0  0  0
   17.7289  -24.7227    0.0000 C   0  0  0  0  0  0  0  0  0  0  0  0
   17.0242  -25.1365    0.0000 C   0  0  0  0  0  0  0  0  0  0  0  0
   21.2609  -23.4711    0.0000 C   0  0  0  0  0  0  0  0  0  0  0  0
   22.0095  -23.7990    0.0000 C   0  0  0  0  0  0  0  0  0  0  0  0
   22.5526  -23.1884    0.0000 N   0  0  0  0  0  0  0  0  0  0  0  0
   22.1397  -22.4831    0.0000 N   0  0  0  0  0  0  0  0  0  0  0  0
   21.3415  -22.6579    0.0000 N   0  0  0  0  0  0  0  0  0  0  0  0
   23.3615  -23.2667    0.0000 C   0  0  0  0  0  0  0  0  0  0  0  0
   23.6976  -24.0128    0.0000 C   0  0  0  0  0  0  0  0  0  0  0  0
   24.5101  -24.0936    0.0000 C   0  0  0  0  0  0  0  0  0  0  0  0
   24.9873  -23.4292    0.0000 C   0  0  0  0  0  0  0  0  0  0  0  0
   24.6463  -22.6819    0.0000 C   0  0  0  0  0  0  0  0  0  0  0  0
   23.8348  -22.6047    0.0000 C   0  0  0  0  0  0  0  0  0  0  0  0
   25.8006  -23.5086    0.0000 C   0  0  0  0  0  0  0  0  0  0  0  0
   26.1385  -24.2527    0.0000 C   0  0  0  0  0  0  0  0  0  0  0  0
   26.9518  -24.3322    0.0000 N   0  0  0  0  0  0  0  0  0  0  0  0
   27.2863  -25.0762    0.0000 C   0  0  0  0  0  0  0  0  0  0  0  0
   28.2385  -23.7490    0.0000 C   0  0  0  0  0  0  0  0  0  0  0  0
   27.4230  -23.6657    0.0000 C   0  0  0  0  0  0  0  0  0  0  0  0
   28.5750  -24.4948    0.0000 C   0  0  0  0  0  0  0  0  0  0  0  0
   28.0978  -25.1542    0.0000 C   0  0  0  0  0  0  0  0  0  0  0  0
   28.4303  -25.8951    0.0000 C   0  0  0  0  0  0  0  0  0  0  0  0
   29.2398  -25.9777    0.0000 C   0  0  0  0  0  0  0  0  0  0  0  0
   29.7157  -25.3135    0.0000 C   0  0  0  0  0  0  0  0  0  0  0  0
   29.3805  -24.5753    0.0000 C   0  0  0  0  0  0  0  0  0  0  0  0
   30.5290  -25.3932    0.0000 O   0  0  0  0  0  0  0  0  0  0  0  0
   30.8666  -26.1374    0.0000 C   0  0  0  0  0  0  0  0  0  0  0  0
   29.5758  -26.7227    0.0000 O   0  0  0  0  0  0  0  0  0  0  0  0
   29.0987  -27.3861    0.0000 C   0  0  0  0  0  0  0  0  0  0  0  0
   19.8837  -27.5642    0.0000 N   0  0  0  0  0  0  0  0  0  0  0  0
   19.8911  -28.3806    0.0000 C   0  0  0  0  0  0  0  0  0  0  0  0
   20.6032  -28.7833    0.0000 C   0  0  0  0  0  0  0  0  0  0  0  0
   21.3093  -28.3635    0.0000 C   0  0  0  0  0  0  0  0  0  0  0  0
   21.2984  -27.5485    0.0000 C   0  0  0  0  0  0  0  0  0  0  0  0
   19.1871  -28.7956    0.0000 O   0  0  0  0  0  0  0  0  0  0  0  0
   19.1945  -29.6128    0.0000 C   0  0  0  0  0  0  0  0  0  0  0  0
  1  2  2  0
  2  3  1  0
  3  4  2  0
  4  5  1  0
  5  6  2  0
  6  1  1  0
  4  7  1  0
  7  8  2  0
  5  9  1  0
  9 10  1  0
 10 11  1  0
 10 12  2  0
  7 13  1  0
 13 14  1  0
 15 16  2  0
 16 17  1  0
 17 18  1  0
 18 19  2  0
 19 15  1  0
  1 15  1  0
 20 21  2  0
 21 22  1  0
 22 23  2  0
 23 24  1  0
 24 25  2  0
 25 20  1  0
 17 20  1  0
 23 26  1  0
 26 27  1  0
 27 28  1  0
 28 29  1  0
 28 31  1  0
 29 33  1  0
 32 30  1  0
 30 31  1  0
 32 33  2  0
 33 34  1  0
 34 35  2  0
 35 36  1  0
 36 37  2  0
 37 32  1  0
 36 38  1  0
 38 39  1  0
 35 40  1  0
 40 41  1  0
 11 42  2  0
 42 43  1  0
 43 44  2  0
 44 45  1  0
 45 46  2  0
 46 11  1  0
 43 47  1  0
 47 48  1  0
M  END
>  <Classification>  (846) 
1

>  <pchembl>  (846) 
6.49

>  <InChI_steorem>  (846) 
InChI=1S/C37H38N6O5/c1-5-33(44)29-14-11-26(19-31(29)39-37(45)30-7-6-8-36(38-30)48-4)32-23-43(41-40-32)28-12-9-24(10-13-28)15-17-42-18-16-25-20-34(46-2)35(47-3)21-27(25)22-42/h6-14,19-21,23H,5,15-18,22H2,1-4H3,(H,39,45)

>  <source>  (846) 
ChEMBL30

>  <source_id>  (846) 
30

>  <optional_reference>  (846) 
10.1016/j.ejmech.2020.112958

>  <optional_origin>  (846) 
None

>  <target>  (846) 
BCRP

$$$$

     RDKit          2D

 48 53  0  0  0  0  0  0  0  0999 V2000
   36.6554  -23.7602    0.0000 C   0  0  0  0  0  0  0  0  0  0  0  0
   35.9449  -23.3541    0.0000 C   0  0  0  0  0  0  0  0  0  0  0  0
   35.2402  -23.7663    0.0000 C   0  0  0  0  0  0  0  0  0  0  0  0
   35.2446  -24.5843    0.0000 C   0  0  0  0  0  0  0  0  0  0  0  0
   35.9598  -24.9885    0.0000 C   0  0  0  0  0  0  0  0  0  0  0  0
   36.6616  -24.5740    0.0000 C   0  0  0  0  0  0  0  0  0  0  0  0
   34.5399  -24.9981    0.0000 C   0  0  0  0  0  0  0  0  0  0  0  0
   34.5459  -25.8153    0.0000 O   0  0  0  0  0  0  0  0  0  0  0  0
   35.9676  -25.8056    0.0000 N   0  0  0  0  0  0  0  0  0  0  0  0
   36.6791  -26.2075    0.0000 C   0  0  0  0  0  0  0  0  0  0  0  0
   36.6869  -27.0246    0.0000 C   0  0  0  0  0  0  0  0  0  0  0  0
   37.3829  -25.7921    0.0000 O   0  0  0  0  0  0  0  0  0  0  0  0
   33.8292  -24.5947    0.0000 C   0  0  0  0  0  0  0  0  0  0  0  0
   33.1246  -25.0085    0.0000 C   0  0  0  0  0  0  0  0  0  0  0  0
   37.3613  -23.3432    0.0000 C   0  0  0  0  0  0  0  0  0  0  0  0
   38.1098  -23.6710    0.0000 C   0  0  0  0  0  0  0  0  0  0  0  0
   38.6529  -23.0605    0.0000 N   0  0  0  0  0  0  0  0  0  0  0  0
   38.2401  -22.3552    0.0000 N   0  0  0  0  0  0  0  0  0  0  0  0
   37.4418  -22.5300    0.0000 N   0  0  0  0  0  0  0  0  0  0  0  0
   39.4619  -23.1388    0.0000 C   0  0  0  0  0  0  0  0  0  0  0  0
   39.7980  -23.8849    0.0000 C   0  0  0  0  0  0  0  0  0  0  0  0
   40.6104  -23.9657    0.0000 C   0  0  0  0  0  0  0  0  0  0  0  0
   41.0876  -23.3012    0.0000 C   0  0  0  0  0  0  0  0  0  0  0  0
   40.7466  -22.5539    0.0000 C   0  0  0  0  0  0  0  0  0  0  0  0
   39.9352  -22.4767    0.0000 C   0  0  0  0  0  0  0  0  0  0  0  0
   41.9009  -23.3807    0.0000 C   0  0  0  0  0  0  0  0  0  0  0  0
   42.2388  -24.1248    0.0000 C   0  0  0  0  0  0  0  0  0  0  0  0
   43.0521  -24.2042    0.0000 N   0  0  0  0  0  0  0  0  0  0  0  0
   43.3866  -24.9483    0.0000 C   0  0  0  0  0  0  0  0  0  0  0  0
   44.3388  -23.6211    0.0000 C   0  0  0  0  0  0  0  0  0  0  0  0
   43.5233  -23.5378    0.0000 C   0  0  0  0  0  0  0  0  0  0  0  0
   44.6753  -24.3669    0.0000 C   0  0  0  0  0  0  0  0  0  0  0  0
   44.1981  -25.0262    0.0000 C   0  0  0  0  0  0  0  0  0  0  0  0
   44.5307  -25.7671    0.0000 C   0  0  0  0  0  0  0  0  0  0  0  0
   45.3402  -25.8498    0.0000 C   0  0  0  0  0  0  0  0  0  0  0  0
   45.8160  -25.1856    0.0000 C   0  0  0  0  0  0  0  0  0  0  0  0
   45.4808  -24.4474    0.0000 C   0  0  0  0  0  0  0  0  0  0  0  0
   46.6293  -25.2653    0.0000 O   0  0  0  0  0  0  0  0  0  0  0  0
   46.9669  -26.0095    0.0000 C   0  0  0  0  0  0  0  0  0  0  0  0
   45.6761  -26.5947    0.0000 O   0  0  0  0  0  0  0  0  0  0  0  0
   45.1990  -27.2581    0.0000 C   0  0  0  0  0  0  0  0  0  0  0  0
   35.9840  -27.4363    0.0000 N   0  0  0  0  0  0  0  0  0  0  0  0
   35.9914  -28.2527    0.0000 C   0  0  0  0  0  0  0  0  0  0  0  0
   36.7035  -28.6553    0.0000 C   0  0  0  0  0  0  0  0  0  0  0  0
   37.4096  -28.2356    0.0000 C   0  0  0  0  0  0  0  0  0  0  0  0
   37.3987  -27.4206    0.0000 C   0  0  0  0  0  0  0  0  0  0  0  0
   36.7124  -29.4725    0.0000 O   0  0  0  0  0  0  0  0  0  0  0  0
   36.0092  -29.8887    0.0000 C   0  0  0  0  0  0  0  0  0  0  0  0
  1  2  2  0
  2  3  1  0
  3  4  2  0
  4  5  1  0
  5  6  2  0
  6  1  1  0
  4  7  1  0
  7  8  2  0
  5  9  1  0
  9 10  1  0
 10 11  1  0
 10 12  2  0
  7 13  1  0
 13 14  1  0
 15 16  2  0
 16 17  1  0
 17 18  1  0
 18 19  2  0
 19 15  1  0
  1 15  1  0
 20 21  2  0
 21 22  1  0
 22 23  2  0
 23 24  1  0
 24 25  2  0
 25 20  1  0
 17 20  1  0
 23 26  1  0
 26 27  1  0
 27 28  1  0
 28 29  1  0
 28 31  1  0
 29 33  1  0
 32 30  1  0
 30 31  1  0
 32 33  2  0
 33 34  1  0
 34 35  2  0
 35 36  1  0
 36 37  2  0
 37 32  1  0
 36 38  1  0
 38 39  1  0
 35 40  1  0
 40 41  1  0
 11 42  2  0
 42 43  1  0
 43 44  2  0
 44 45  1  0
 45 46  2  0
 46 11  1  0
 44 47  1  0
 47 48  1  0
M  END
>  <Classification>  (847) 
1

>  <pchembl>  (847) 
6.94

>  <InChI_steorem>  (847) 
InChI=1S/C37H38N6O5/c1-5-34(44)30-12-8-26(18-32(30)39-37(45)31-13-11-29(46-2)21-38-31)33-23-43(41-40-33)28-9-6-24(7-10-28)14-16-42-17-15-25-19-35(47-3)36(48-4)20-27(25)22-42/h6-13,18-21,23H,5,14-17,22H2,1-4H3,(H,39,45)

>  <source>  (847) 
ChEMBL30

>  <source_id>  (847) 
30

>  <optional_reference>  (847) 
10.1016/j.ejmech.2020.112958

>  <optional_origin>  (847) 
None

>  <target>  (847) 
BCRP

$$$$

     RDKit          2D

 49 54  0  0  0  0  0  0  0  0999 V2000
   20.4436   -2.3894    0.0000 C   0  0  0  0  0  0  0  0  0  0  0  0
   19.7332   -1.9833    0.0000 C   0  0  0  0  0  0  0  0  0  0  0  0
   19.0284   -2.3955    0.0000 C   0  0  0  0  0  0  0  0  0  0  0  0
   19.0329   -3.2136    0.0000 C   0  0  0  0  0  0  0  0  0  0  0  0
   19.7480   -3.6177    0.0000 C   0  0  0  0  0  0  0  0  0  0  0  0
   20.4498   -3.2032    0.0000 C   0  0  0  0  0  0  0  0  0  0  0  0
   18.3282   -3.6273    0.0000 C   0  0  0  0  0  0  0  0  0  0  0  0
   18.3342   -4.4445    0.0000 O   0  0  0  0  0  0  0  0  0  0  0  0
   19.7558   -4.4348    0.0000 N   0  0  0  0  0  0  0  0  0  0  0  0
   20.4674   -4.8367    0.0000 C   0  0  0  0  0  0  0  0  0  0  0  0
   20.4752   -5.6538    0.0000 C   0  0  0  0  0  0  0  0  0  0  0  0
   21.1712   -4.4213    0.0000 O   0  0  0  0  0  0  0  0  0  0  0  0
   17.6175   -3.2239    0.0000 C   0  0  0  0  0  0  0  0  0  0  0  0
   16.9128   -3.6377    0.0000 C   0  0  0  0  0  0  0  0  0  0  0  0
   21.1495   -1.9724    0.0000 C   0  0  0  0  0  0  0  0  0  0  0  0
   21.8980   -2.3002    0.0000 C   0  0  0  0  0  0  0  0  0  0  0  0
   22.4412   -1.6897    0.0000 N   0  0  0  0  0  0  0  0  0  0  0  0
   22.0283   -0.9844    0.0000 N   0  0  0  0  0  0  0  0  0  0  0  0
   21.2301   -1.1592    0.0000 N   0  0  0  0  0  0  0  0  0  0  0  0
   23.2501   -1.7680    0.0000 C   0  0  0  0  0  0  0  0  0  0  0  0
   23.5862   -2.5141    0.0000 C   0  0  0  0  0  0  0  0  0  0  0  0
   24.3986   -2.5949    0.0000 C   0  0  0  0  0  0  0  0  0  0  0  0
   24.8758   -1.9304    0.0000 C   0  0  0  0  0  0  0  0  0  0  0  0
   24.5348   -1.1831    0.0000 C   0  0  0  0  0  0  0  0  0  0  0  0
   23.7234   -1.1059    0.0000 C   0  0  0  0  0  0  0  0  0  0  0  0
   25.6892   -2.0099    0.0000 C   0  0  0  0  0  0  0  0  0  0  0  0
   26.0270   -2.7540    0.0000 C   0  0  0  0  0  0  0  0  0  0  0  0
   26.8403   -2.8334    0.0000 N   0  0  0  0  0  0  0  0  0  0  0  0
   27.1749   -3.5775    0.0000 C   0  0  0  0  0  0  0  0  0  0  0  0
   28.1271   -2.2503    0.0000 C   0  0  0  0  0  0  0  0  0  0  0  0
   27.3115   -2.1670    0.0000 C   0  0  0  0  0  0  0  0  0  0  0  0
   28.4635   -2.9961    0.0000 C   0  0  0  0  0  0  0  0  0  0  0  0
   27.9863   -3.6555    0.0000 C   0  0  0  0  0  0  0  0  0  0  0  0
   28.3189   -4.3963    0.0000 C   0  0  0  0  0  0  0  0  0  0  0  0
   29.1284   -4.4790    0.0000 C   0  0  0  0  0  0  0  0  0  0  0  0
   29.6042   -3.8148    0.0000 C   0  0  0  0  0  0  0  0  0  0  0  0
   29.2690   -3.0766    0.0000 C   0  0  0  0  0  0  0  0  0  0  0  0
   30.4175   -3.8945    0.0000 O   0  0  0  0  0  0  0  0  0  0  0  0
   30.7551   -4.6387    0.0000 C   0  0  0  0  0  0  0  0  0  0  0  0
   29.4644   -5.2239    0.0000 O   0  0  0  0  0  0  0  0  0  0  0  0
   28.9872   -5.8874    0.0000 C   0  0  0  0  0  0  0  0  0  0  0  0
   19.7722   -6.0655    0.0000 N   0  0  0  0  0  0  0  0  0  0  0  0
   19.7797   -6.8819    0.0000 C   0  0  0  0  0  0  0  0  0  0  0  0
   20.4918   -7.2845    0.0000 C   0  0  0  0  0  0  0  0  0  0  0  0
   21.1979   -6.8648    0.0000 C   0  0  0  0  0  0  0  0  0  0  0  0
   21.1869   -6.0498    0.0000 C   0  0  0  0  0  0  0  0  0  0  0  0
   19.0713   -7.3011    0.0000 N   0  0  0  0  0  0  0  0  0  0  0  0
   19.0787   -8.1182    0.0000 O   0  0  0  0  0  0  0  0  0  0  0  0
   18.3599   -6.8989    0.0000 O   0  0  0  0  0  0  0  0  0  0  0  0
  1  2  2  0
  2  3  1  0
  3  4  2  0
  4  5  1  0
  5  6  2  0
  6  1  1  0
  4  7  1  0
  7  8  2  0
  5  9  1  0
  9 10  1  0
 10 11  1  0
 10 12  2  0
  7 13  1  0
 13 14  1  0
 15 16  2  0
 16 17  1  0
 17 18  1  0
 18 19  2  0
 19 15  1  0
  1 15  1  0
 20 21  2  0
 21 22  1  0
 22 23  2  0
 23 24  1  0
 24 25  2  0
 25 20  1  0
 17 20  1  0
 23 26  1  0
 26 27  1  0
 27 28  1  0
 28 29  1  0
 28 31  1  0
 29 33  1  0
 32 30  1  0
 30 31  1  0
 32 33  2  0
 33 34  1  0
 34 35  2  0
 35 36  1  0
 36 37  2  0
 37 32  1  0
 36 38  1  0
 38 39  1  0
 35 40  1  0
 40 41  1  0
 11 42  2  0
 42 43  1  0
 43 44  2  0
 44 45  1  0
 45 46  2  0
 46 11  1  0
 47 48  2  0
 47 49  1  0
 43 47  1  0
M  CHG  2  47   1  49  -1
M  END
>  <Classification>  (848) 
1

>  <pchembl>  (848) 
7.16

>  <InChI_steorem>  (848) 
InChI=1S/C36H35N7O6/c1-4-32(44)28-13-10-25(18-30(28)38-36(45)29-6-5-7-35(37-29)43(46)47)31-22-42(40-39-31)27-11-8-23(9-12-27)14-16-41-17-15-24-19-33(48-2)34(49-3)20-26(24)21-41/h5-13,18-20,22H,4,14-17,21H2,1-3H3,(H,38,45)

>  <source>  (848) 
ChEMBL30

>  <source_id>  (848) 
30

>  <optional_reference>  (848) 
10.1016/j.ejmech.2020.112958

>  <optional_origin>  (848) 
None

>  <target>  (848) 
BCRP

$$$$

     RDKit          2D

 49 55  0  0  0  0  0  0  0  0999 V2000
   20.0115  -12.9842    0.0000 C   0  0  0  0  0  0  0  0  0  0  0  0
   20.0104  -13.8079    0.0000 C   0  0  0  0  0  0  0  0  0  0  0  0
   20.7225  -14.2169    0.0000 C   0  0  0  0  0  0  0  0  0  0  0  0
   21.4363  -13.8074    0.0000 C   0  0  0  0  0  0  0  0  0  0  0  0
   21.4335  -12.9806    0.0000 C   0  0  0  0  0  0  0  0  0  0  0  0
   20.7208  -12.5712    0.0000 C   0  0  0  0  0  0  0  0  0  0  0  0
   19.3023  -14.2159    0.0000 C   0  0  0  0  0  0  0  0  0  0  0  0
   19.3017  -15.0372    0.0000 O   0  0  0  0  0  0  0  0  0  0  0  0
   20.7223  -15.0382    0.0000 N   0  0  0  0  0  0  0  0  0  0  0  0
   21.4341  -15.4511    0.0000 C   0  0  0  0  0  0  0  0  0  0  0  0
   21.4339  -16.2724    0.0000 C   0  0  0  0  0  0  0  0  0  0  0  0
   22.1460  -15.0385    0.0000 O   0  0  0  0  0  0  0  0  0  0  0  0
   20.7215  -16.6765    0.0000 N   0  0  0  0  0  0  0  0  0  0  0  0
   22.1475  -17.4938    0.0000 C   0  0  0  0  0  0  0  0  0  0  0  0
   22.1446  -16.6746    0.0000 C   0  0  0  0  0  0  0  0  0  0  0  0
   21.4332  -17.9108    0.0000 C   0  0  0  0  0  0  0  0  0  0  0  0
   20.7244  -17.4982    0.0000 C   0  0  0  0  0  0  0  0  0  0  0  0
   20.0163  -17.9084    0.0000 C   0  0  0  0  0  0  0  0  0  0  0  0
   20.0158  -18.7268    0.0000 C   0  0  0  0  0  0  0  0  0  0  0  0
   20.7293  -19.1333    0.0000 C   0  0  0  0  0  0  0  0  0  0  0  0
   21.4345  -18.7250    0.0000 C   0  0  0  0  0  0  0  0  0  0  0  0
   22.1434  -12.5628    0.0000 C   0  0  0  0  0  0  0  0  0  0  0  0
   22.8953  -12.8923    0.0000 C   0  0  0  0  0  0  0  0  0  0  0  0
   23.4440  -12.2829    0.0000 N   0  0  0  0  0  0  0  0  0  0  0  0
   23.0285  -11.5726    0.0000 N   0  0  0  0  0  0  0  0  0  0  0  0
   22.2258  -11.7456    0.0000 N   0  0  0  0  0  0  0  0  0  0  0  0
   24.2611  -12.3653    0.0000 C   0  0  0  0  0  0  0  0  0  0  0  0
   24.5930  -13.1172    0.0000 C   0  0  0  0  0  0  0  0  0  0  0  0
   25.4094  -13.1998    0.0000 C   0  0  0  0  0  0  0  0  0  0  0  0
   25.8922  -12.5323    0.0000 C   0  0  0  0  0  0  0  0  0  0  0  0
   25.5488  -11.7802    0.0000 C   0  0  0  0  0  0  0  0  0  0  0  0
   24.7334  -11.7011    0.0000 C   0  0  0  0  0  0  0  0  0  0  0  0
   26.7095  -12.6136    0.0000 C   0  0  0  0  0  0  0  0  0  0  0  0
   27.1861  -11.9498    0.0000 C   0  0  0  0  0  0  0  0  0  0  0  0
   27.9993  -12.0307    0.0000 N   0  0  0  0  0  0  0  0  0  0  0  0
   28.4759  -11.3669    0.0000 C   0  0  0  0  0  0  0  0  0  0  0  0
   28.3359  -12.7754    0.0000 C   0  0  0  0  0  0  0  0  0  0  0  0
   29.2891  -11.4478    0.0000 C   0  0  0  0  0  0  0  0  0  0  0  0
   29.6257  -12.1924    0.0000 C   0  0  0  0  0  0  0  0  0  0  0  0
   29.1492  -12.8543    0.0000 C   0  0  0  0  0  0  0  0  0  0  0  0
   29.4843  -13.5957    0.0000 C   0  0  0  0  0  0  0  0  0  0  0  0
   30.2956  -13.6764    0.0000 C   0  0  0  0  0  0  0  0  0  0  0  0
   30.7706  -13.0098    0.0000 C   0  0  0  0  0  0  0  0  0  0  0  0
   30.4329  -12.2710    0.0000 C   0  0  0  0  0  0  0  0  0  0  0  0
   18.5950  -13.8068    0.0000 C   0  0  0  0  0  0  0  0  0  0  0  0
   31.5841  -13.0874    0.0000 O   0  0  0  0  0  0  0  0  0  0  0  0
   31.9236  -13.8308    0.0000 C   0  0  0  0  0  0  0  0  0  0  0  0
   30.6334  -14.4205    0.0000 O   0  0  0  0  0  0  0  0  0  0  0  0
   30.1580  -15.0851    0.0000 C   0  0  0  0  0  0  0  0  0  0  0  0
  1  2  2  0
  2  3  1  0
  3  4  2  0
  4  5  1  0
  5  6  2  0
  6  1  1  0
  2  7  1  0
  7  8  2  0
  3  9  1  0
  9 10  1  0
 10 11  1  0
 10 12  2  0
 11 13  2  0
 13 17  1  0
 16 14  1  0
 14 15  2  0
 15 11  1  0
 16 17  2  0
 17 18  1  0
 18 19  2  0
 19 20  1  0
 20 21  2  0
 21 16  1  0
 22 23  2  0
 23 24  1  0
 24 25  1  0
 25 26  2  0
 26 22  1  0
  5 22  1  0
 24 27  1  0
 27 28  2  0
 28 29  1  0
 29 30  2  0
 30 31  1  0
 31 32  2  0
 32 27  1  0
 30 33  1  0
 33 34  1  0
 34 35  1  0
 35 36  1  0
 35 37  1  0
 36 38  1  0
 37 40  1  0
 38 39  1  0
 39 40  2  0
 40 41  1  0
 41 42  2  0
 42 43  1  0
 43 44  2  0
 44 39  1  0
  7 45  1  0
 43 46  1  0
 46 47  1  0
 42 48  1  0
 48 49  1  0
M  END
>  <Classification>  (849) 
1

>  <pchembl>  (849) 
6.85

>  <InChI_steorem>  (849) 
InChI=1S/C39H36N6O4/c1-25(46)32-14-10-29(20-35(32)41-39(47)34-15-11-27-6-4-5-7-33(27)40-34)36-24-45(43-42-36)31-12-8-26(9-13-31)16-18-44-19-17-28-21-37(48-2)38(49-3)22-30(28)23-44/h4-15,20-22,24H,16-19,23H2,1-3H3,(H,41,47)

>  <source>  (849) 
ChEMBL30

>  <source_id>  (849) 
30

>  <optional_reference>  (849) 
10.1016/j.ejmech.2020.112133

>  <optional_origin>  (849) 
None

>  <target>  (849) 
BCRP

$$$$

     RDKit          2D

 49 55  0  0  0  0  0  0  0  0999 V2000
   34.8118  -23.0258    0.0000 C   0  0  0  0  0  0  0  0  0  0  0  0
   34.8106  -23.8453    0.0000 C   0  0  0  0  0  0  0  0  0  0  0  0
   35.5187  -24.2543    0.0000 C   0  0  0  0  0  0  0  0  0  0  0  0
   36.2283  -23.8448    0.0000 C   0  0  0  0  0  0  0  0  0  0  0  0
   36.2255  -23.0222    0.0000 C   0  0  0  0  0  0  0  0  0  0  0  0
   35.5169  -22.6169    0.0000 C   0  0  0  0  0  0  0  0  0  0  0  0
   34.1026  -24.2533    0.0000 C   0  0  0  0  0  0  0  0  0  0  0  0
   33.3952  -23.8442    0.0000 O   0  0  0  0  0  0  0  0  0  0  0  0
   34.1019  -25.0705    0.0000 O   0  0  0  0  0  0  0  0  0  0  0  0
   32.6872  -24.2522    0.0000 C   0  0  0  0  0  0  0  0  0  0  0  0
   35.5185  -25.0715    0.0000 N   0  0  0  0  0  0  0  0  0  0  0  0
   36.2261  -25.4802    0.0000 C   0  0  0  0  0  0  0  0  0  0  0  0
   36.2259  -26.2974    0.0000 C   0  0  0  0  0  0  0  0  0  0  0  0
   36.9339  -25.0718    0.0000 O   0  0  0  0  0  0  0  0  0  0  0  0
   35.5176  -26.7016    0.0000 N   0  0  0  0  0  0  0  0  0  0  0  0
   36.9354  -27.5148    0.0000 C   0  0  0  0  0  0  0  0  0  0  0  0
   36.9324  -26.6997    0.0000 C   0  0  0  0  0  0  0  0  0  0  0  0
   36.2252  -27.9276    0.0000 C   0  0  0  0  0  0  0  0  0  0  0  0
   35.5205  -27.5191    0.0000 C   0  0  0  0  0  0  0  0  0  0  0  0
   34.8165  -27.9251    0.0000 C   0  0  0  0  0  0  0  0  0  0  0  0
   34.8161  -28.7394    0.0000 C   0  0  0  0  0  0  0  0  0  0  0  0
   35.5255  -29.1460    0.0000 C   0  0  0  0  0  0  0  0  0  0  0  0
   36.2265  -28.7377    0.0000 C   0  0  0  0  0  0  0  0  0  0  0  0
   36.9313  -22.6084    0.0000 C   0  0  0  0  0  0  0  0  0  0  0  0
   37.6790  -22.9380    0.0000 C   0  0  0  0  0  0  0  0  0  0  0  0
   38.2236  -22.3286    0.0000 N   0  0  0  0  0  0  0  0  0  0  0  0
   37.8123  -21.6224    0.0000 N   0  0  0  0  0  0  0  0  0  0  0  0
   37.0136  -21.7954    0.0000 N   0  0  0  0  0  0  0  0  0  0  0  0
   39.0366  -22.4110    0.0000 C   0  0  0  0  0  0  0  0  0  0  0  0
   39.3685  -23.1588    0.0000 C   0  0  0  0  0  0  0  0  0  0  0  0
   40.1808  -23.2414    0.0000 C   0  0  0  0  0  0  0  0  0  0  0  0
   40.6595  -22.5780    0.0000 C   0  0  0  0  0  0  0  0  0  0  0  0
   40.3201  -21.8300    0.0000 C   0  0  0  0  0  0  0  0  0  0  0  0
   39.5089  -21.7509    0.0000 C   0  0  0  0  0  0  0  0  0  0  0  0
   41.4726  -22.6593    0.0000 C   0  0  0  0  0  0  0  0  0  0  0  0
   41.9496  -21.9957    0.0000 N   0  0  0  0  0  0  0  0  0  0  0  0
   42.7627  -22.0770    0.0000 C   0  0  0  0  0  0  0  0  0  0  0  0
   41.6134  -21.2509    0.0000 C   0  0  0  0  0  0  0  0  0  0  0  0
   42.0903  -20.5873    0.0000 C   0  0  0  0  0  0  0  0  0  0  0  0
   42.9035  -20.6686    0.0000 C   0  0  0  0  0  0  0  0  0  0  0  0
   43.2372  -21.4111    0.0000 C   0  0  0  0  0  0  0  0  0  0  0  0
   44.0453  -21.4921    0.0000 C   0  0  0  0  0  0  0  0  0  0  0  0
   44.5206  -20.8315    0.0000 C   0  0  0  0  0  0  0  0  0  0  0  0
   44.1819  -20.0878    0.0000 C   0  0  0  0  0  0  0  0  0  0  0  0
   43.3748  -20.0104    0.0000 C   0  0  0  0  0  0  0  0  0  0  0  0
   44.6565  -19.4225    0.0000 O   0  0  0  0  0  0  0  0  0  0  0  0
   45.4699  -19.5008    0.0000 C   0  0  0  0  0  0  0  0  0  0  0  0
   45.3338  -20.9116    0.0000 O   0  0  0  0  0  0  0  0  0  0  0  0
   45.6711  -21.6559    0.0000 C   0  0  0  0  0  0  0  0  0  0  0  0
  1  2  2  0
  2  3  1  0
  3  4  2  0
  4  5  1  0
  5  6  2  0
  6  1  1  0
  2  7  1  0
  7  8  1  0
  7  9  2  0
  8 10  1  0
  3 11  1  0
 11 12  1  0
 12 13  1  0
 12 14  2  0
 13 15  2  0
 15 19  1  0
 18 16  1  0
 16 17  2  0
 17 13  1  0
 18 19  2  0
 19 20  1  0
 20 21  2  0
 21 22  1  0
 22 23  2  0
 23 18  1  0
 24 25  2  0
 25 26  1  0
 26 27  1  0
 27 28  2  0
 28 24  1  0
  5 24  1  0
 26 29  1  0
 29 30  2  0
 30 31  1  0
 31 32  2  0
 32 33  1  0
 33 34  2  0
 34 29  1  0
 32 35  1  0
 35 36  1  0
 36 37  1  0
 36 38  1  0
 38 39  1  0
 37 41  1  0
 39 40  1  0
 40 41  2  0
 41 42  1  0
 42 43  2  0
 43 44  1  0
 44 45  2  0
 45 40  1  0
 44 46  1  0
 46 47  1  0
 43 48  1  0
 48 49  1  0
M  END
>  <Classification>  (850) 
1

>  <pchembl>  (850) 
6.46

>  <InChI_steorem>  (850) 
InChI=1S/C38H34N6O5/c1-47-35-19-26-16-17-43(22-28(26)20-36(35)48-2)21-24-8-12-29(13-9-24)44-23-34(41-42-44)27-10-14-30(38(46)49-3)33(18-27)40-37(45)32-15-11-25-6-4-5-7-31(25)39-32/h4-15,18-20,23H,16-17,21-22H2,1-3H3,(H,40,45)

>  <source>  (850) 
ChEMBL30

>  <source_id>  (850) 
30

>  <optional_reference>  (850) 
10.1016/j.ejmech.2020.112133

>  <optional_origin>  (850) 
None

>  <target>  (850) 
BCRP

$$$$

     RDKit          2D

 49 55  0  0  0  0  0  0  0  0999 V2000
    4.7643  -12.2287    0.0000 C   0  0  0  0  0  0  0  0  0  0  0  0
    4.0538  -11.8227    0.0000 C   0  0  0  0  0  0  0  0  0  0  0  0
    3.3491  -12.2348    0.0000 C   0  0  0  0  0  0  0  0  0  0  0  0
    3.3535  -13.0529    0.0000 C   0  0  0  0  0  0  0  0  0  0  0  0
    4.0687  -13.4570    0.0000 C   0  0  0  0  0  0  0  0  0  0  0  0
    4.7705  -13.0425    0.0000 C   0  0  0  0  0  0  0  0  0  0  0  0
    2.6488  -13.4666    0.0000 C   0  0  0  0  0  0  0  0  0  0  0  0
    2.6548  -14.2838    0.0000 O   0  0  0  0  0  0  0  0  0  0  0  0
    4.0765  -14.2742    0.0000 N   0  0  0  0  0  0  0  0  0  0  0  0
    4.7880  -14.6760    0.0000 C   0  0  0  0  0  0  0  0  0  0  0  0
    4.7958  -15.4931    0.0000 C   0  0  0  0  0  0  0  0  0  0  0  0
    5.4918  -14.2607    0.0000 O   0  0  0  0  0  0  0  0  0  0  0  0
    1.9382  -13.0633    0.0000 C   0  0  0  0  0  0  0  0  0  0  0  0
    1.2335  -13.4770    0.0000 C   0  0  0  0  0  0  0  0  0  0  0  0
    5.4702  -11.8117    0.0000 C   0  0  0  0  0  0  0  0  0  0  0  0
    6.2187  -12.1396    0.0000 C   0  0  0  0  0  0  0  0  0  0  0  0
    6.7618  -11.5290    0.0000 N   0  0  0  0  0  0  0  0  0  0  0  0
    6.3490  -10.8237    0.0000 N   0  0  0  0  0  0  0  0  0  0  0  0
    5.5507  -10.9985    0.0000 N   0  0  0  0  0  0  0  0  0  0  0  0
    7.5708  -11.6073    0.0000 C   0  0  0  0  0  0  0  0  0  0  0  0
    7.9069  -12.3534    0.0000 C   0  0  0  0  0  0  0  0  0  0  0  0
    8.7193  -12.4342    0.0000 C   0  0  0  0  0  0  0  0  0  0  0  0
    9.1965  -11.7697    0.0000 C   0  0  0  0  0  0  0  0  0  0  0  0
    8.8555  -11.0225    0.0000 C   0  0  0  0  0  0  0  0  0  0  0  0
    8.0441  -10.9453    0.0000 C   0  0  0  0  0  0  0  0  0  0  0  0
   10.0098  -11.8492    0.0000 C   0  0  0  0  0  0  0  0  0  0  0  0
   10.3477  -12.5933    0.0000 C   0  0  0  0  0  0  0  0  0  0  0  0
   11.1610  -12.6727    0.0000 N   0  0  0  0  0  0  0  0  0  0  0  0
   11.4955  -13.4168    0.0000 C   0  0  0  0  0  0  0  0  0  0  0  0
   12.4477  -12.0896    0.0000 C   0  0  0  0  0  0  0  0  0  0  0  0
   11.6322  -12.0063    0.0000 C   0  0  0  0  0  0  0  0  0  0  0  0
   12.7842  -12.8354    0.0000 C   0  0  0  0  0  0  0  0  0  0  0  0
   12.3070  -13.4948    0.0000 C   0  0  0  0  0  0  0  0  0  0  0  0
   12.6396  -14.2356    0.0000 C   0  0  0  0  0  0  0  0  0  0  0  0
   13.4491  -14.3183    0.0000 C   0  0  0  0  0  0  0  0  0  0  0  0
   13.9249  -13.6541    0.0000 C   0  0  0  0  0  0  0  0  0  0  0  0
   13.5897  -12.9159    0.0000 C   0  0  0  0  0  0  0  0  0  0  0  0
   14.7382  -13.7338    0.0000 O   0  0  0  0  0  0  0  0  0  0  0  0
   15.0758  -14.4780    0.0000 C   0  0  0  0  0  0  0  0  0  0  0  0
   13.7850  -15.0632    0.0000 O   0  0  0  0  0  0  0  0  0  0  0  0
   13.3079  -15.7267    0.0000 C   0  0  0  0  0  0  0  0  0  0  0  0
    4.1381  -15.9857    0.0000 O   0  0  0  0  0  0  0  0  0  0  0  0
    5.4602  -15.9730    0.0000 C   0  0  0  0  0  0  0  0  0  0  0  0
    5.2152  -16.7526    0.0000 C   0  0  0  0  0  0  0  0  0  0  0  0
    4.3996  -16.7594    0.0000 C   0  0  0  0  0  0  0  0  0  0  0  0
    3.9994  -17.4681    0.0000 C   0  0  0  0  0  0  0  0  0  0  0  0
    4.4138  -18.1704    0.0000 C   0  0  0  0  0  0  0  0  0  0  0  0
    5.2326  -18.1596    0.0000 C   0  0  0  0  0  0  0  0  0  0  0  0
    5.6290  -17.4504    0.0000 C   0  0  0  0  0  0  0  0  0  0  0  0
  1  2  2  0
  2  3  1  0
  3  4  2  0
  4  5  1  0
  5  6  2  0
  6  1  1  0
  4  7  1  0
  7  8  2  0
  5  9  1  0
  9 10  1  0
 10 11  1  0
 10 12  2  0
  7 13  1  0
 13 14  1  0
 15 16  2  0
 16 17  1  0
 17 18  1  0
 18 19  2  0
 19 15  1  0
  1 15  1  0
 20 21  2  0
 21 22  1  0
 22 23  2  0
 23 24  1  0
 24 25  2  0
 25 20  1  0
 17 20  1  0
 23 26  1  0
 26 27  1  0
 27 28  1  0
 28 29  1  0
 28 31  1  0
 29 33  1  0
 32 30  1  0
 30 31  1  0
 32 33  2  0
 33 34  1  0
 34 35  2  0
 35 36  1  0
 36 37  2  0
 37 32  1  0
 36 38  1  0
 38 39  1  0
 35 40  1  0
 40 41  1  0
 11 42  1  0
 42 45  1  0
 44 43  1  0
 43 11  2  0
 44 45  2  0
 45 46  1  0
 46 47  2  0
 47 48  1  0
 48 49  2  0
 49 44  1  0
M  END
>  <Classification>  (851) 
1

>  <pchembl>  (851) 
6.92

>  <InChI_steorem>  (851) 
InChI=1S/C39H37N5O5/c1-4-34(45)31-14-11-27(19-32(31)40-39(46)38-21-28-7-5-6-8-35(28)49-38)33-24-44(42-41-33)30-12-9-25(10-13-30)15-17-43-18-16-26-20-36(47-2)37(48-3)22-29(26)23-43/h5-14,19-22,24H,4,15-18,23H2,1-3H3,(H,40,46)

>  <source>  (851) 
ChEMBL30

>  <source_id>  (851) 
30

>  <optional_reference>  (851) 
10.1016/j.ejmech.2020.112958

>  <optional_origin>  (851) 
None

>  <target>  (851) 
BCRP

$$$$

     RDKit          2D

 50 56  0  0  0  0  0  0  0  0999 V2000
   20.6706  -13.4958    0.0000 C   0  0  0  0  0  0  0  0  0  0  0  0
   19.9602  -13.0897    0.0000 C   0  0  0  0  0  0  0  0  0  0  0  0
   19.2554  -13.5019    0.0000 C   0  0  0  0  0  0  0  0  0  0  0  0
   19.2599  -14.3199    0.0000 C   0  0  0  0  0  0  0  0  0  0  0  0
   19.9750  -14.7241    0.0000 C   0  0  0  0  0  0  0  0  0  0  0  0
   20.6768  -14.3096    0.0000 C   0  0  0  0  0  0  0  0  0  0  0  0
   18.5552  -14.7337    0.0000 C   0  0  0  0  0  0  0  0  0  0  0  0
   18.5612  -15.5509    0.0000 O   0  0  0  0  0  0  0  0  0  0  0  0
   19.9828  -15.5412    0.0000 N   0  0  0  0  0  0  0  0  0  0  0  0
   20.6944  -15.9430    0.0000 C   0  0  0  0  0  0  0  0  0  0  0  0
   20.7022  -16.7602    0.0000 C   0  0  0  0  0  0  0  0  0  0  0  0
   21.3981  -15.5277    0.0000 O   0  0  0  0  0  0  0  0  0  0  0  0
   17.8445  -14.3303    0.0000 C   0  0  0  0  0  0  0  0  0  0  0  0
   17.1398  -14.7441    0.0000 C   0  0  0  0  0  0  0  0  0  0  0  0
   21.3765  -13.0788    0.0000 C   0  0  0  0  0  0  0  0  0  0  0  0
   22.1250  -13.4066    0.0000 C   0  0  0  0  0  0  0  0  0  0  0  0
   22.6682  -12.7960    0.0000 N   0  0  0  0  0  0  0  0  0  0  0  0
   22.2553  -12.0908    0.0000 N   0  0  0  0  0  0  0  0  0  0  0  0
   21.4571  -12.2656    0.0000 N   0  0  0  0  0  0  0  0  0  0  0  0
   23.4771  -12.8744    0.0000 C   0  0  0  0  0  0  0  0  0  0  0  0
   23.8132  -13.6205    0.0000 C   0  0  0  0  0  0  0  0  0  0  0  0
   24.6256  -13.7013    0.0000 C   0  0  0  0  0  0  0  0  0  0  0  0
   25.1028  -13.0368    0.0000 C   0  0  0  0  0  0  0  0  0  0  0  0
   24.7618  -12.2895    0.0000 C   0  0  0  0  0  0  0  0  0  0  0  0
   23.9504  -12.2123    0.0000 C   0  0  0  0  0  0  0  0  0  0  0  0
   25.9162  -13.1163    0.0000 C   0  0  0  0  0  0  0  0  0  0  0  0
   26.2540  -13.8603    0.0000 C   0  0  0  0  0  0  0  0  0  0  0  0
   27.0673  -13.9398    0.0000 N   0  0  0  0  0  0  0  0  0  0  0  0
   27.4019  -14.6838    0.0000 C   0  0  0  0  0  0  0  0  0  0  0  0
   28.3541  -13.3567    0.0000 C   0  0  0  0  0  0  0  0  0  0  0  0
   27.5385  -13.2734    0.0000 C   0  0  0  0  0  0  0  0  0  0  0  0
   28.6905  -14.1024    0.0000 C   0  0  0  0  0  0  0  0  0  0  0  0
   28.2133  -14.7618    0.0000 C   0  0  0  0  0  0  0  0  0  0  0  0
   28.5459  -15.5027    0.0000 C   0  0  0  0  0  0  0  0  0  0  0  0
   29.3554  -15.5854    0.0000 C   0  0  0  0  0  0  0  0  0  0  0  0
   29.8312  -14.9212    0.0000 C   0  0  0  0  0  0  0  0  0  0  0  0
   29.4960  -14.1829    0.0000 C   0  0  0  0  0  0  0  0  0  0  0  0
   30.6445  -15.0009    0.0000 O   0  0  0  0  0  0  0  0  0  0  0  0
   30.9821  -15.7451    0.0000 C   0  0  0  0  0  0  0  0  0  0  0  0
   29.6914  -16.3303    0.0000 O   0  0  0  0  0  0  0  0  0  0  0  0
   29.2142  -16.9937    0.0000 C   0  0  0  0  0  0  0  0  0  0  0  0
   19.9992  -17.1719    0.0000 N   0  0  0  0  0  0  0  0  0  0  0  0
   21.4249  -17.9712    0.0000 C   0  0  0  0  0  0  0  0  0  0  0  0
   21.4139  -17.1561    0.0000 C   0  0  0  0  0  0  0  0  0  0  0  0
   20.7188  -18.3909    0.0000 C   0  0  0  0  0  0  0  0  0  0  0  0
   20.0094  -17.9873    0.0000 C   0  0  0  0  0  0  0  0  0  0  0  0
   19.3092  -18.3976    0.0000 C   0  0  0  0  0  0  0  0  0  0  0  0
   19.3121  -19.2131    0.0000 C   0  0  0  0  0  0  0  0  0  0  0  0
   20.0214  -19.6167    0.0000 C   0  0  0  0  0  0  0  0  0  0  0  0
   20.7279  -19.2047    0.0000 C   0  0  0  0  0  0  0  0  0  0  0  0
  1  2  2  0
  2  3  1  0
  3  4  2  0
  4  5  1  0
  5  6  2  0
  6  1  1  0
  4  7  1  0
  7  8  2  0
  5  9  1  0
  9 10  1  0
 10 11  1  0
 10 12  2  0
  7 13  1  0
 13 14  1  0
 15 16  2  0
 16 17  1  0
 17 18  1  0
 18 19  2  0
 19 15  1  0
  1 15  1  0
 20 21  2  0
 21 22  1  0
 22 23  2  0
 23 24  1  0
 24 25  2  0
 25 20  1  0
 17 20  1  0
 23 26  1  0
 26 27  1  0
 27 28  1  0
 28 29  1  0
 28 31  1  0
 29 33  1  0
 32 30  1  0
 30 31  1  0
 32 33  2  0
 33 34  1  0
 34 35  2  0
 35 36  1  0
 36 37  2  0
 37 32  1  0
 36 38  1  0
 38 39  1  0
 35 40  1  0
 40 41  1  0
 11 42  2  0
 42 46  1  0
 45 43  1  0
 43 44  2  0
 44 11  1  0
 45 46  2  0
 45 50  1  0
 46 47  1  0
 47 48  1  0
 48 49  1  0
 49 50  1  0
M  END
>  <Classification>  (852) 
1

>  <pchembl>  (852) 
6.75

>  <InChI_steorem>  (852) 
InChI=1S/C40H42N6O4/c1-4-37(47)32-15-11-29(21-35(32)42-40(48)34-16-12-27-7-5-6-8-33(27)41-34)36-25-46(44-43-36)31-13-9-26(10-14-31)17-19-45-20-18-28-22-38(49-2)39(50-3)23-30(28)24-45/h9-16,21-23,25H,4-8,17-20,24H2,1-3H3,(H,42,48)

>  <source>  (852) 
ChEMBL30

>  <source_id>  (852) 
30

>  <optional_reference>  (852) 
10.1016/j.ejmech.2020.112958

>  <optional_origin>  (852) 
None

>  <target>  (852) 
BCRP

$$$$

     RDKit          2D

 50 56  0  0  0  0  0  0  0  0999 V2000
   26.0635   -1.2739    0.0000 C   0  0  0  0  0  0  0  0  0  0  0  0
   25.2481   -1.2686    0.0000 C   0  0  0  0  0  0  0  0  0  0  0  0
   24.8376   -1.9710    0.0000 C   0  0  0  0  0  0  0  0  0  0  0  0
   25.2414   -2.6792    0.0000 C   0  0  0  0  0  0  0  0  0  0  0  0
   26.0600   -2.6805    0.0000 C   0  0  0  0  0  0  0  0  0  0  0  0
   26.4668   -1.9775    0.0000 C   0  0  0  0  0  0  0  0  0  0  0  0
   27.2839   -1.9792    0.0000 C   0  0  0  0  0  0  0  0  0  0  0  0
   27.6940   -1.2723    0.0000 C   0  0  0  0  0  0  0  0  0  0  0  0
   28.5112   -1.2740    0.0000 N   0  0  0  0  0  0  0  0  0  0  0  0
   28.9212   -0.5671    0.0000 C   0  0  0  0  0  0  0  0  0  0  0  0
   28.9183   -1.9825    0.0000 C   0  0  0  0  0  0  0  0  0  0  0  0
   29.7384   -0.5688    0.0000 C   0  0  0  0  0  0  0  0  0  0  0  0
   30.1456   -1.2774    0.0000 C   0  0  0  0  0  0  0  0  0  0  0  0
   29.7347   -1.9828    0.0000 C   0  0  0  0  0  0  0  0  0  0  0  0
   30.1402   -2.6892    0.0000 C   0  0  0  0  0  0  0  0  0  0  0  0
   30.9563   -2.6914    0.0000 C   0  0  0  0  0  0  0  0  0  0  0  0
   31.3652   -1.9813    0.0000 C   0  0  0  0  0  0  0  0  0  0  0  0
   30.9575   -1.2778    0.0000 C   0  0  0  0  0  0  0  0  0  0  0  0
   24.0212   -1.9717    0.0000 N   0  0  0  0  0  0  0  0  0  0  0  0
   23.5443   -1.3081    0.0000 N   0  0  0  0  0  0  0  0  0  0  0  0
   22.7658   -1.5565    0.0000 N   0  0  0  0  0  0  0  0  0  0  0  0
   22.7615   -2.3738    0.0000 C   0  0  0  0  0  0  0  0  0  0  0  0
   23.5374   -2.6303    0.0000 C   0  0  0  0  0  0  0  0  0  0  0  0
   32.1824   -1.9801    0.0000 O   0  0  0  0  0  0  0  0  0  0  0  0
   32.5920   -2.6873    0.0000 C   0  0  0  0  0  0  0  0  0  0  0  0
   31.3643   -3.3994    0.0000 O   0  0  0  0  0  0  0  0  0  0  0  0
   30.9551   -4.1068    0.0000 C   0  0  0  0  0  0  0  0  0  0  0  0
   22.1014   -2.8499    0.0000 C   0  0  0  0  0  0  0  0  0  0  0  0
   21.3561   -2.5120    0.0000 C   0  0  0  0  0  0  0  0  0  0  0  0
   20.6929   -2.9881    0.0000 C   0  0  0  0  0  0  0  0  0  0  0  0
   20.7738   -3.8022    0.0000 C   0  0  0  0  0  0  0  0  0  0  0  0
   21.5235   -4.1378    0.0000 C   0  0  0  0  0  0  0  0  0  0  0  0
   22.1836   -3.6596    0.0000 C   0  0  0  0  0  0  0  0  0  0  0  0
   20.1108   -4.2800    0.0000 C   0  0  0  0  0  0  0  0  0  0  0  0
   19.3655   -3.9447    0.0000 O   0  0  0  0  0  0  0  0  0  0  0  0
   20.1930   -5.0930    0.0000 O   0  0  0  0  0  0  0  0  0  0  0  0
   21.6075   -4.9507    0.0000 N   0  0  0  0  0  0  0  0  0  0  0  0
   22.3535   -5.2843    0.0000 C   0  0  0  0  0  0  0  0  0  0  0  0
   22.4376   -6.0972    0.0000 C   0  0  0  0  0  0  0  0  0  0  0  0
   23.0154   -4.8051    0.0000 O   0  0  0  0  0  0  0  0  0  0  0  0
   21.7730   -6.5725    0.0000 N   0  0  0  0  0  0  0  0  0  0  0  0
   23.2671   -7.2352    0.0000 C   0  0  0  0  0  0  0  0  0  0  0  0
   23.1801   -6.4247    0.0000 C   0  0  0  0  0  0  0  0  0  0  0  0
   22.6032   -7.7190    0.0000 C   0  0  0  0  0  0  0  0  0  0  0  0
   21.8598   -7.3845    0.0000 C   0  0  0  0  0  0  0  0  0  0  0  0
   21.2004   -7.8608    0.0000 C   0  0  0  0  0  0  0  0  0  0  0  0
   21.2833   -8.6716    0.0000 C   0  0  0  0  0  0  0  0  0  0  0  0
   22.0312   -9.0038    0.0000 C   0  0  0  0  0  0  0  0  0  0  0  0
   22.6875   -8.5255    0.0000 C   0  0  0  0  0  0  0  0  0  0  0  0
   18.7025   -4.4224    0.0000 C   0  0  0  0  0  0  0  0  0  0  0  0
  1  2  2  0
  2  3  1  0
  3  4  2  0
  4  5  1  0
  5  6  2  0
  6  1  1  0
  6  7  1  0
  7  8  1  0
  8  9  1  0
  9 10  1  0
  9 11  1  0
 10 12  1  0
 11 14  1  0
 12 13  1  0
 13 14  2  0
 14 15  1  0
 15 16  2  0
 16 17  1  0
 17 18  2  0
 18 13  1  0
 19 20  1  0
 20 21  2  0
 21 22  1  0
 22 23  2  0
 23 19  1  0
  3 19  1  0
 17 24  1  0
 24 25  1  0
 16 26  1  0
 26 27  1  0
 28 29  2  0
 29 30  1  0
 30 31  2  0
 31 32  1  0
 32 33  2  0
 33 28  1  0
 22 28  1  0
 31 34  1  0
 34 35  1  0
 34 36  2  0
 32 37  1  0
 37 38  1  0
 38 39  1  0
 38 40  2  0
 39 41  2  0
 41 45  1  0
 44 42  1  0
 42 43  2  0
 43 39  1  0
 44 45  2  0
 45 46  1  0
 46 47  2  0
 47 48  1  0
 48 49  2  0
 49 44  1  0
 35 50  1  0
M  END
>  <Classification>  (853) 
1

>  <pchembl>  (853) 
6.21

>  <InChI_steorem>  (853) 
InChI=1S/C39H36N6O5/c1-48-36-21-27-17-19-44(23-29(27)22-37(36)49-2)18-16-25-8-12-30(13-9-25)45-24-35(42-43-45)28-10-14-31(39(47)50-3)34(20-28)41-38(46)33-15-11-26-6-4-5-7-32(26)40-33/h4-15,20-22,24H,16-19,23H2,1-3H3,(H,41,46)

>  <source>  (853) 
ChEMBL30

>  <source_id>  (853) 
30

>  <optional_reference>  (853) 
10.1016/j.ejmech.2020.112133

>  <optional_origin>  (853) 
None

>  <target>  (853) 
BCRP

$$$$

     RDKit          2D

 50 56  0  0  0  0  0  0  0  0999 V2000
    4.6528  -13.2770    0.0000 C   0  0  0  0  0  0  0  0  0  0  0  0
    3.9424  -12.8710    0.0000 C   0  0  0  0  0  0  0  0  0  0  0  0
    3.2376  -13.2831    0.0000 C   0  0  0  0  0  0  0  0  0  0  0  0
    3.2421  -14.1012    0.0000 C   0  0  0  0  0  0  0  0  0  0  0  0
    3.9572  -14.5053    0.0000 C   0  0  0  0  0  0  0  0  0  0  0  0
    4.6591  -14.0908    0.0000 C   0  0  0  0  0  0  0  0  0  0  0  0
    2.5374  -14.5150    0.0000 C   0  0  0  0  0  0  0  0  0  0  0  0
    2.5434  -15.3321    0.0000 O   0  0  0  0  0  0  0  0  0  0  0  0
    3.9650  -15.3225    0.0000 N   0  0  0  0  0  0  0  0  0  0  0  0
    4.6766  -15.7243    0.0000 C   0  0  0  0  0  0  0  0  0  0  0  0
    4.6844  -16.5415    0.0000 C   0  0  0  0  0  0  0  0  0  0  0  0
    5.3804  -15.3090    0.0000 O   0  0  0  0  0  0  0  0  0  0  0  0
    1.8267  -14.1116    0.0000 C   0  0  0  0  0  0  0  0  0  0  0  0
    1.1220  -14.5254    0.0000 C   0  0  0  0  0  0  0  0  0  0  0  0
    5.3587  -12.8600    0.0000 C   0  0  0  0  0  0  0  0  0  0  0  0
    6.1073  -13.1879    0.0000 C   0  0  0  0  0  0  0  0  0  0  0  0
    6.6504  -12.5773    0.0000 N   0  0  0  0  0  0  0  0  0  0  0  0
    6.2375  -11.8720    0.0000 N   0  0  0  0  0  0  0  0  0  0  0  0
    5.4393  -12.0468    0.0000 N   0  0  0  0  0  0  0  0  0  0  0  0
    7.4593  -12.6556    0.0000 C   0  0  0  0  0  0  0  0  0  0  0  0
    7.7954  -13.4017    0.0000 C   0  0  0  0  0  0  0  0  0  0  0  0
    8.6078  -13.4825    0.0000 C   0  0  0  0  0  0  0  0  0  0  0  0
    9.0851  -12.8181    0.0000 C   0  0  0  0  0  0  0  0  0  0  0  0
    8.7441  -12.0708    0.0000 C   0  0  0  0  0  0  0  0  0  0  0  0
    7.9326  -11.9936    0.0000 C   0  0  0  0  0  0  0  0  0  0  0  0
    9.8984  -12.8975    0.0000 C   0  0  0  0  0  0  0  0  0  0  0  0
   10.2362  -13.6416    0.0000 C   0  0  0  0  0  0  0  0  0  0  0  0
   11.0496  -13.7210    0.0000 N   0  0  0  0  0  0  0  0  0  0  0  0
   11.3841  -14.4651    0.0000 C   0  0  0  0  0  0  0  0  0  0  0  0
   12.3363  -13.1379    0.0000 C   0  0  0  0  0  0  0  0  0  0  0  0
   11.5207  -13.0546    0.0000 C   0  0  0  0  0  0  0  0  0  0  0  0
   12.6728  -13.8837    0.0000 C   0  0  0  0  0  0  0  0  0  0  0  0
   12.1956  -14.5431    0.0000 C   0  0  0  0  0  0  0  0  0  0  0  0
   12.5281  -15.2840    0.0000 C   0  0  0  0  0  0  0  0  0  0  0  0
   13.3376  -15.3666    0.0000 C   0  0  0  0  0  0  0  0  0  0  0  0
   13.8135  -14.7024    0.0000 C   0  0  0  0  0  0  0  0  0  0  0  0
   13.4783  -13.9642    0.0000 C   0  0  0  0  0  0  0  0  0  0  0  0
   14.6268  -14.7821    0.0000 O   0  0  0  0  0  0  0  0  0  0  0  0
   14.9644  -15.5263    0.0000 C   0  0  0  0  0  0  0  0  0  0  0  0
   13.6736  -16.1116    0.0000 O   0  0  0  0  0  0  0  0  0  0  0  0
   13.1965  -16.7750    0.0000 C   0  0  0  0  0  0  0  0  0  0  0  0
    3.9814  -16.9531    0.0000 C   0  0  0  0  0  0  0  0  0  0  0  0
    5.4071  -17.7524    0.0000 C   0  0  0  0  0  0  0  0  0  0  0  0
    5.3962  -16.9374    0.0000 C   0  0  0  0  0  0  0  0  0  0  0  0
    4.7010  -18.1721    0.0000 C   0  0  0  0  0  0  0  0  0  0  0  0
    3.9922  -17.7709    0.0000 C   0  0  0  0  0  0  0  0  0  0  0  0
    3.2924  -18.1840    0.0000 C   0  0  0  0  0  0  0  0  0  0  0  0
    3.3002  -18.9982    0.0000 C   0  0  0  0  0  0  0  0  0  0  0  0
    4.0137  -19.3976    0.0000 C   0  0  0  0  0  0  0  0  0  0  0  0
    4.7105  -18.9821    0.0000 C   0  0  0  0  0  0  0  0  0  0  0  0
  1  2  2  0
  2  3  1  0
  3  4  2  0
  4  5  1  0
  5  6  2  0
  6  1  1  0
  4  7  1  0
  7  8  2  0
  5  9  1  0
  9 10  1  0
 10 11  1  0
 10 12  2  0
  7 13  1  0
 13 14  1  0
 15 16  2  0
 16 17  1  0
 17 18  1  0
 18 19  2  0
 19 15  1  0
  1 15  1  0
 20 21  2  0
 21 22  1  0
 22 23  2  0
 23 24  1  0
 24 25  2  0
 25 20  1  0
 17 20  1  0
 23 26  1  0
 26 27  1  0
 27 28  1  0
 28 29  1  0
 28 31  1  0
 29 33  1  0
 32 30  1  0
 30 31  1  0
 32 33  2  0
 33 34  1  0
 34 35  2  0
 35 36  1  0
 36 37  2  0
 37 32  1  0
 36 38  1  0
 38 39  1  0
 35 40  1  0
 40 41  1  0
 11 42  2  0
 42 46  1  0
 45 43  1  0
 43 44  2  0
 44 11  1  0
 45 46  2  0
 46 47  1  0
 47 48  2  0
 48 49  1  0
 49 50  2  0
 50 45  1  0
M  END
>  <Classification>  (854) 
1

>  <pchembl>  (854) 
6.6

>  <InChI_steorem>  (854) 
InChI=1S/C41H39N5O4/c1-4-38(47)35-16-13-31(22-36(35)42-41(48)32-12-11-28-7-5-6-8-29(28)21-32)37-26-46(44-43-37)34-14-9-27(10-15-34)17-19-45-20-18-30-23-39(49-2)40(50-3)24-33(30)25-45/h5-16,21-24,26H,4,17-20,25H2,1-3H3,(H,42,48)

>  <source>  (854) 
ChEMBL30

>  <source_id>  (854) 
30

>  <optional_reference>  (854) 
10.1016/j.ejmech.2020.112958

>  <optional_origin>  (854) 
None

>  <target>  (854) 
BCRP

$$$$

     RDKit          2D

 50 56  0  0  0  0  0  0  0  0999 V2000
    8.6755   -1.2986    0.0000 C   0  0  0  0  0  0  0  0  0  0  0  0
    7.8601   -1.2934    0.0000 C   0  0  0  0  0  0  0  0  0  0  0  0
    7.4496   -1.9958    0.0000 C   0  0  0  0  0  0  0  0  0  0  0  0
    7.8534   -2.7040    0.0000 C   0  0  0  0  0  0  0  0  0  0  0  0
    8.6720   -2.7053    0.0000 C   0  0  0  0  0  0  0  0  0  0  0  0
    9.0787   -2.0022    0.0000 C   0  0  0  0  0  0  0  0  0  0  0  0
    9.8959   -2.0039    0.0000 C   0  0  0  0  0  0  0  0  0  0  0  0
   10.3060   -1.2971    0.0000 C   0  0  0  0  0  0  0  0  0  0  0  0
   11.1232   -1.2988    0.0000 N   0  0  0  0  0  0  0  0  0  0  0  0
   11.5332   -0.5919    0.0000 C   0  0  0  0  0  0  0  0  0  0  0  0
   11.5303   -2.0073    0.0000 C   0  0  0  0  0  0  0  0  0  0  0  0
   12.3504   -0.5936    0.0000 C   0  0  0  0  0  0  0  0  0  0  0  0
   12.7576   -1.3021    0.0000 C   0  0  0  0  0  0  0  0  0  0  0  0
   12.3467   -2.0076    0.0000 C   0  0  0  0  0  0  0  0  0  0  0  0
   12.7522   -2.7140    0.0000 C   0  0  0  0  0  0  0  0  0  0  0  0
   13.5683   -2.7161    0.0000 C   0  0  0  0  0  0  0  0  0  0  0  0
   13.9772   -2.0060    0.0000 C   0  0  0  0  0  0  0  0  0  0  0  0
   13.5695   -1.3025    0.0000 C   0  0  0  0  0  0  0  0  0  0  0  0
    6.6332   -1.9965    0.0000 N   0  0  0  0  0  0  0  0  0  0  0  0
    6.1563   -1.3329    0.0000 N   0  0  0  0  0  0  0  0  0  0  0  0
    5.3778   -1.5813    0.0000 N   0  0  0  0  0  0  0  0  0  0  0  0
    5.3735   -2.3985    0.0000 C   0  0  0  0  0  0  0  0  0  0  0  0
    6.1493   -2.6550    0.0000 C   0  0  0  0  0  0  0  0  0  0  0  0
   14.7944   -2.0049    0.0000 O   0  0  0  0  0  0  0  0  0  0  0  0
   15.2040   -2.7120    0.0000 C   0  0  0  0  0  0  0  0  0  0  0  0
   13.9763   -3.4242    0.0000 O   0  0  0  0  0  0  0  0  0  0  0  0
   13.5671   -4.1316    0.0000 C   0  0  0  0  0  0  0  0  0  0  0  0
    4.7134   -2.8747    0.0000 C   0  0  0  0  0  0  0  0  0  0  0  0
    3.9681   -2.5367    0.0000 C   0  0  0  0  0  0  0  0  0  0  0  0
    3.3049   -3.0129    0.0000 C   0  0  0  0  0  0  0  0  0  0  0  0
    3.3857   -3.8270    0.0000 C   0  0  0  0  0  0  0  0  0  0  0  0
    4.1355   -4.1626    0.0000 C   0  0  0  0  0  0  0  0  0  0  0  0
    4.7955   -3.6844    0.0000 C   0  0  0  0  0  0  0  0  0  0  0  0
    2.7228   -4.3047    0.0000 C   0  0  0  0  0  0  0  0  0  0  0  0
    1.9775   -3.9694    0.0000 C   0  0  0  0  0  0  0  0  0  0  0  0
    2.8050   -5.1178    0.0000 O   0  0  0  0  0  0  0  0  0  0  0  0
    4.2195   -4.9754    0.0000 N   0  0  0  0  0  0  0  0  0  0  0  0
    4.9655   -5.3091    0.0000 C   0  0  0  0  0  0  0  0  0  0  0  0
    5.0496   -6.1219    0.0000 C   0  0  0  0  0  0  0  0  0  0  0  0
    5.6274   -4.8298    0.0000 O   0  0  0  0  0  0  0  0  0  0  0  0
    4.3850   -6.5972    0.0000 N   0  0  0  0  0  0  0  0  0  0  0  0
    5.8790   -7.2599    0.0000 C   0  0  0  0  0  0  0  0  0  0  0  0
    5.7921   -6.4495    0.0000 C   0  0  0  0  0  0  0  0  0  0  0  0
    5.2152   -7.7438    0.0000 C   0  0  0  0  0  0  0  0  0  0  0  0
    4.4718   -7.4092    0.0000 C   0  0  0  0  0  0  0  0  0  0  0  0
    3.8124   -7.8855    0.0000 C   0  0  0  0  0  0  0  0  0  0  0  0
    3.8953   -8.6964    0.0000 C   0  0  0  0  0  0  0  0  0  0  0  0
    4.6432   -9.0286    0.0000 C   0  0  0  0  0  0  0  0  0  0  0  0
    5.2994   -8.5502    0.0000 C   0  0  0  0  0  0  0  0  0  0  0  0
    1.3145   -4.4472    0.0000 C   0  0  0  0  0  0  0  0  0  0  0  0
  1  2  2  0
  2  3  1  0
  3  4  2  0
  4  5  1  0
  5  6  2  0
  6  1  1  0
  6  7  1  0
  7  8  1  0
  8  9  1  0
  9 10  1  0
  9 11  1  0
 10 12  1  0
 11 14  1  0
 12 13  1  0
 13 14  2  0
 14 15  1  0
 15 16  2  0
 16 17  1  0
 17 18  2  0
 18 13  1  0
 19 20  1  0
 20 21  2  0
 21 22  1  0
 22 23  2  0
 23 19  1  0
  3 19  1  0
 17 24  1  0
 24 25  1  0
 16 26  1  0
 26 27  1  0
 28 29  2  0
 29 30  1  0
 30 31  2  0
 31 32  1  0
 32 33  2  0
 33 28  1  0
 22 28  1  0
 31 34  1  0
 34 35  1  0
 34 36  2  0
 32 37  1  0
 37 38  1  0
 38 39  1  0
 38 40  2  0
 39 41  2  0
 41 45  1  0
 44 42  1  0
 42 43  2  0
 43 39  1  0
 44 45  2  0
 45 46  1  0
 46 47  2  0
 47 48  1  0
 48 49  2  0
 49 44  1  0
 35 50  1  0
M  END
>  <Classification>  (855) 
1

>  <pchembl>  (855) 
7.1

>  <InChI_steorem>  (855) 
InChI=1S/C40H38N6O4/c1-4-37(47)32-15-11-29(21-35(32)42-40(48)34-16-12-27-7-5-6-8-33(27)41-34)36-25-46(44-43-36)31-13-9-26(10-14-31)17-19-45-20-18-28-22-38(49-2)39(50-3)23-30(28)24-45/h5-16,21-23,25H,4,17-20,24H2,1-3H3,(H,42,48)

>  <source>  (855) 
ChEMBL30

>  <source_id>  (855) 
30

>  <optional_reference>  (855) 
10.1016/j.ejmech.2020.112133

>  <optional_origin>  (855) 
None

>  <target>  (855) 
BCRP

$$$$

     RDKit          2D

 51 57  0  0  0  0  0  0  0  0999 V2000
    3.0981  -23.8719    0.0000 C   0  0  0  0  0  0  0  0  0  0  0  0
    3.0970  -24.6955    0.0000 C   0  0  0  0  0  0  0  0  0  0  0  0
    3.8092  -25.1045    0.0000 C   0  0  0  0  0  0  0  0  0  0  0  0
    4.5229  -24.6950    0.0000 C   0  0  0  0  0  0  0  0  0  0  0  0
    4.5201  -23.8683    0.0000 C   0  0  0  0  0  0  0  0  0  0  0  0
    3.8074  -23.4589    0.0000 C   0  0  0  0  0  0  0  0  0  0  0  0
    2.3890  -25.1036    0.0000 C   0  0  0  0  0  0  0  0  0  0  0  0
    2.3883  -25.9249    0.0000 O   0  0  0  0  0  0  0  0  0  0  0  0
    3.8090  -25.9258    0.0000 N   0  0  0  0  0  0  0  0  0  0  0  0
    4.5207  -26.3387    0.0000 C   0  0  0  0  0  0  0  0  0  0  0  0
    4.5205  -27.1600    0.0000 C   0  0  0  0  0  0  0  0  0  0  0  0
    5.2326  -25.9261    0.0000 O   0  0  0  0  0  0  0  0  0  0  0  0
    3.8081  -27.5641    0.0000 N   0  0  0  0  0  0  0  0  0  0  0  0
    5.2341  -28.3815    0.0000 C   0  0  0  0  0  0  0  0  0  0  0  0
    5.2312  -27.5623    0.0000 C   0  0  0  0  0  0  0  0  0  0  0  0
    4.5199  -28.7984    0.0000 C   0  0  0  0  0  0  0  0  0  0  0  0
    3.8110  -28.3859    0.0000 C   0  0  0  0  0  0  0  0  0  0  0  0
    3.1029  -28.7960    0.0000 C   0  0  0  0  0  0  0  0  0  0  0  0
    3.1025  -29.6144    0.0000 C   0  0  0  0  0  0  0  0  0  0  0  0
    3.8160  -30.0210    0.0000 C   0  0  0  0  0  0  0  0  0  0  0  0
    4.5212  -29.6126    0.0000 C   0  0  0  0  0  0  0  0  0  0  0  0
    5.2300  -23.4504    0.0000 C   0  0  0  0  0  0  0  0  0  0  0  0
    5.9819  -23.7799    0.0000 C   0  0  0  0  0  0  0  0  0  0  0  0
    6.5306  -23.1706    0.0000 N   0  0  0  0  0  0  0  0  0  0  0  0
    6.1152  -22.4602    0.0000 N   0  0  0  0  0  0  0  0  0  0  0  0
    5.3124  -22.6333    0.0000 N   0  0  0  0  0  0  0  0  0  0  0  0
    7.3477  -23.2529    0.0000 C   0  0  0  0  0  0  0  0  0  0  0  0
    7.6797  -24.0048    0.0000 C   0  0  0  0  0  0  0  0  0  0  0  0
    8.4960  -24.0875    0.0000 C   0  0  0  0  0  0  0  0  0  0  0  0
    8.9789  -23.4200    0.0000 C   0  0  0  0  0  0  0  0  0  0  0  0
    8.6354  -22.6678    0.0000 C   0  0  0  0  0  0  0  0  0  0  0  0
    7.8200  -22.5888    0.0000 C   0  0  0  0  0  0  0  0  0  0  0  0
    9.7961  -23.5012    0.0000 C   0  0  0  0  0  0  0  0  0  0  0  0
   10.2727  -22.8374    0.0000 C   0  0  0  0  0  0  0  0  0  0  0  0
   11.0859  -22.9183    0.0000 N   0  0  0  0  0  0  0  0  0  0  0  0
   11.5626  -22.2545    0.0000 C   0  0  0  0  0  0  0  0  0  0  0  0
   11.4225  -23.6630    0.0000 C   0  0  0  0  0  0  0  0  0  0  0  0
   12.3757  -22.3354    0.0000 C   0  0  0  0  0  0  0  0  0  0  0  0
   12.7123  -23.0800    0.0000 C   0  0  0  0  0  0  0  0  0  0  0  0
   12.2359  -23.7419    0.0000 C   0  0  0  0  0  0  0  0  0  0  0  0
   12.5709  -24.4833    0.0000 C   0  0  0  0  0  0  0  0  0  0  0  0
   13.3822  -24.5641    0.0000 C   0  0  0  0  0  0  0  0  0  0  0  0
   13.8572  -23.8974    0.0000 C   0  0  0  0  0  0  0  0  0  0  0  0
   13.5195  -23.1586    0.0000 C   0  0  0  0  0  0  0  0  0  0  0  0
   14.6707  -23.9751    0.0000 O   0  0  0  0  0  0  0  0  0  0  0  0
   15.0102  -24.7184    0.0000 C   0  0  0  0  0  0  0  0  0  0  0  0
   13.7200  -25.3081    0.0000 O   0  0  0  0  0  0  0  0  0  0  0  0
   13.2446  -25.9728    0.0000 C   0  0  0  0  0  0  0  0  0  0  0  0
    1.6816  -24.6944    0.0000 C   0  0  0  0  0  0  0  0  0  0  0  0
    1.6822  -23.8772    0.0000 C   0  0  0  0  0  0  0  0  0  0  0  0
    0.9735  -25.1024    0.0000 C   0  0  0  0  0  0  0  0  0  0  0  0
  1  2  2  0
  2  3  1  0
  3  4  2  0
  4  5  1  0
  5  6  2  0
  6  1  1  0
  2  7  1  0
  7  8  2  0
  3  9  1  0
  9 10  1  0
 10 11  1  0
 10 12  2  0
 11 13  2  0
 13 17  1  0
 16 14  1  0
 14 15  2  0
 15 11  1  0
 16 17  2  0
 17 18  1  0
 18 19  2  0
 19 20  1  0
 20 21  2  0
 21 16  1  0
 22 23  2  0
 23 24  1  0
 24 25  1  0
 25 26  2  0
 26 22  1  0
  5 22  1  0
 24 27  1  0
 27 28  2  0
 28 29  1  0
 29 30  2  0
 30 31  1  0
 31 32  2  0
 32 27  1  0
 30 33  1  0
 33 34  1  0
 34 35  1  0
 35 36  1  0
 35 37  1  0
 36 38  1  0
 37 40  1  0
 38 39  1  0
 39 40  2  0
 40 41  1  0
 41 42  2  0
 42 43  1  0
 43 44  2  0
 44 39  1  0
 43 45  1  0
 45 46  1  0
 42 47  1  0
 47 48  1  0
  7 49  1  0
 49 50  1  0
 49 51  1  0
M  END
>  <Classification>  (856) 
1

>  <pchembl>  (856) 
6.53

>  <InChI_steorem>  (856) 
InChI=1S/C41H40N6O4/c1-26(2)40(48)33-15-11-30(21-36(33)43-41(49)35-16-12-28-7-5-6-8-34(28)42-35)37-25-47(45-44-37)32-13-9-27(10-14-32)17-19-46-20-18-29-22-38(50-3)39(51-4)23-31(29)24-46/h5-16,21-23,25-26H,17-20,24H2,1-4H3,(H,43,49)

>  <source>  (856) 
ChEMBL30

>  <source_id>  (856) 
30

>  <optional_reference>  (856) 
10.1016/j.ejmech.2020.112133

>  <optional_origin>  (856) 
None

>  <target>  (856) 
BCRP

$$$$

     RDKit          2D

 51 57  0  0  0  0  0  0  0  0999 V2000
   32.9739  -13.2357    0.0000 C   0  0  0  0  0  0  0  0  0  0  0  0
   32.2634  -12.8297    0.0000 C   0  0  0  0  0  0  0  0  0  0  0  0
   31.5587  -13.2419    0.0000 C   0  0  0  0  0  0  0  0  0  0  0  0
   31.5631  -14.0599    0.0000 C   0  0  0  0  0  0  0  0  0  0  0  0
   32.2783  -14.4640    0.0000 C   0  0  0  0  0  0  0  0  0  0  0  0
   32.9801  -14.0496    0.0000 C   0  0  0  0  0  0  0  0  0  0  0  0
   30.8584  -14.4737    0.0000 C   0  0  0  0  0  0  0  0  0  0  0  0
   30.8644  -15.2909    0.0000 O   0  0  0  0  0  0  0  0  0  0  0  0
   32.2861  -15.2812    0.0000 N   0  0  0  0  0  0  0  0  0  0  0  0
   32.9976  -15.6830    0.0000 C   0  0  0  0  0  0  0  0  0  0  0  0
   33.0054  -16.5002    0.0000 C   0  0  0  0  0  0  0  0  0  0  0  0
   33.7014  -15.2677    0.0000 O   0  0  0  0  0  0  0  0  0  0  0  0
   30.1478  -14.0703    0.0000 C   0  0  0  0  0  0  0  0  0  0  0  0
   29.4431  -14.4841    0.0000 C   0  0  0  0  0  0  0  0  0  0  0  0
   32.3010  -16.9084    0.0000 O   0  0  0  0  0  0  0  0  0  0  0  0
   33.7180  -16.8938    0.0000 C   0  0  0  0  0  0  0  0  0  0  0  0
   33.7222  -17.7135    0.0000 C   0  0  0  0  0  0  0  0  0  0  0  0
   34.4321  -18.1184    0.0000 O   0  0  0  0  0  0  0  0  0  0  0  0
   33.0183  -18.1252    0.0000 C   0  0  0  0  0  0  0  0  0  0  0  0
   32.3088  -17.7215    0.0000 C   0  0  0  0  0  0  0  0  0  0  0  0
   31.6066  -18.1340    0.0000 C   0  0  0  0  0  0  0  0  0  0  0  0
   31.6127  -18.9499    0.0000 C   0  0  0  0  0  0  0  0  0  0  0  0
   32.3267  -19.3517    0.0000 C   0  0  0  0  0  0  0  0  0  0  0  0
   33.0260  -18.9369    0.0000 C   0  0  0  0  0  0  0  0  0  0  0  0
   33.6798  -12.8188    0.0000 C   0  0  0  0  0  0  0  0  0  0  0  0
   34.4283  -13.1466    0.0000 C   0  0  0  0  0  0  0  0  0  0  0  0
   34.9715  -12.5360    0.0000 N   0  0  0  0  0  0  0  0  0  0  0  0
   34.5586  -11.8307    0.0000 N   0  0  0  0  0  0  0  0  0  0  0  0
   33.7603  -12.0056    0.0000 N   0  0  0  0  0  0  0  0  0  0  0  0
   35.7804  -12.6144    0.0000 C   0  0  0  0  0  0  0  0  0  0  0  0
   36.1165  -13.3604    0.0000 C   0  0  0  0  0  0  0  0  0  0  0  0
   36.9289  -13.4412    0.0000 C   0  0  0  0  0  0  0  0  0  0  0  0
   37.4061  -12.7768    0.0000 C   0  0  0  0  0  0  0  0  0  0  0  0
   37.0651  -12.0295    0.0000 C   0  0  0  0  0  0  0  0  0  0  0  0
   36.2537  -11.9523    0.0000 C   0  0  0  0  0  0  0  0  0  0  0  0
   38.2194  -12.8562    0.0000 C   0  0  0  0  0  0  0  0  0  0  0  0
   38.5573  -13.6003    0.0000 C   0  0  0  0  0  0  0  0  0  0  0  0
   39.3706  -13.6798    0.0000 N   0  0  0  0  0  0  0  0  0  0  0  0
   39.7051  -14.4238    0.0000 C   0  0  0  0  0  0  0  0  0  0  0  0
   40.6573  -13.0967    0.0000 C   0  0  0  0  0  0  0  0  0  0  0  0
   39.8418  -13.0134    0.0000 C   0  0  0  0  0  0  0  0  0  0  0  0
   40.9938  -13.8424    0.0000 C   0  0  0  0  0  0  0  0  0  0  0  0
   40.5166  -14.5018    0.0000 C   0  0  0  0  0  0  0  0  0  0  0  0
   40.8492  -15.2427    0.0000 C   0  0  0  0  0  0  0  0  0  0  0  0
   41.6587  -15.3254    0.0000 C   0  0  0  0  0  0  0  0  0  0  0  0
   42.1345  -14.6611    0.0000 C   0  0  0  0  0  0  0  0  0  0  0  0
   41.7993  -13.9229    0.0000 C   0  0  0  0  0  0  0  0  0  0  0  0
   42.9478  -14.7409    0.0000 O   0  0  0  0  0  0  0  0  0  0  0  0
   43.2854  -15.4851    0.0000 C   0  0  0  0  0  0  0  0  0  0  0  0
   41.9946  -16.0703    0.0000 O   0  0  0  0  0  0  0  0  0  0  0  0
   41.5175  -16.7337    0.0000 C   0  0  0  0  0  0  0  0  0  0  0  0
  1  2  2  0
  2  3  1  0
  3  4  2  0
  4  5  1  0
  5  6  2  0
  6  1  1  0
  4  7  1  0
  7  8  2  0
  5  9  1  0
  9 10  1  0
 10 11  1  0
 10 12  2  0
  7 13  1  0
 13 14  1  0
 11 15  1  0
 11 16  2  0
 15 20  1  0
 17 16  1  0
 17 19  1  0
 17 18  2  0
 19 20  2  0
 20 21  1  0
 21 22  2  0
 22 23  1  0
 23 24  2  0
 24 19  1  0
 25 26  2  0
 26 27  1  0
 27 28  1  0
 28 29  2  0
 29 25  1  0
  1 25  1  0
 30 31  2  0
 31 32  1  0
 32 33  2  0
 33 34  1  0
 34 35  2  0
 35 30  1  0
 27 30  1  0
 33 36  1  0
 36 37  1  0
 37 38  1  0
 38 39  1  0
 38 41  1  0
 39 43  1  0
 42 40  1  0
 40 41  1  0
 42 43  2  0
 43 44  1  0
 44 45  2  0
 45 46  1  0
 46 47  2  0
 47 42  1  0
 46 48  1  0
 48 49  1  0
 45 50  1  0
 50 51  1  0
M  END
>  <Classification>  (857) 
1

>  <pchembl>  (857) 
7.1

>  <InChI_steorem>  (857) 
InChI=1S/C40H37N5O6/c1-4-34(46)30-14-11-27(19-32(30)41-40(48)39-22-35(47)31-7-5-6-8-36(31)51-39)33-24-45(43-42-33)29-12-9-25(10-13-29)15-17-44-18-16-26-20-37(49-2)38(50-3)21-28(26)23-44/h5-14,19-22,24H,4,15-18,23H2,1-3H3,(H,41,48)

>  <source>  (857) 
ChEMBL30

>  <source_id>  (857) 
30

>  <optional_reference>  (857) 
10.1016/j.ejmech.2020.112958

>  <optional_origin>  (857) 
None

>  <target>  (857) 
BCRP

$$$$

     RDKit          2D

 49 53  0  0  0  0  0  0  0  0999 V2000
   14.5905  -17.2697    0.0000 C   0  0  0  0  0  0  0  0  0  0  0  0
   15.3868  -17.4854    0.0000 C   0  0  0  0  0  0  0  0  0  0  0  0
   15.1754  -16.6879    0.0000 C   0  0  0  0  0  0  0  0  0  0  0  0
   22.5701   -9.6385    0.0000 C   0  0  0  0  0  0  0  0  0  0  0  0
   23.3705   -9.4229    0.0000 C   0  0  0  0  0  0  0  0  0  0  0  0
   22.7891   -8.8389    0.0000 C   0  0  0  0  0  0  0  0  0  0  0  0
   20.0692  -15.7393    0.0000 C   0  0  0  0  0  0  0  0  0  0  0  0
   19.6627  -15.0259    0.0000 C   0  0  0  0  0  0  0  0  0  0  0  0
   19.2476  -15.7367    0.0000 C   0  0  0  0  0  0  0  0  0  0  0  0
   18.9535  -13.7942    0.0000 C   0  0  0  0  0  0  0  0  0  0  0  0
   18.9535  -14.6195    0.0000 C   0  0  0  0  0  0  0  0  0  0  0  0
   19.6664  -13.3753    0.0000 C   0  0  0  0  0  0  0  0  0  0  0  0
   20.3792  -13.7942    0.0000 C   0  0  0  0  0  0  0  0  0  0  0  0
   20.3758  -14.6195    0.0000 C   0  0  0  0  0  0  0  0  0  0  0  0
   21.0854  -15.0308    0.0000 C   0  0  0  0  0  0  0  0  0  0  0  0
   21.8030  -14.6256    0.0000 C   0  0  0  0  0  0  0  0  0  0  0  0
   21.0924  -13.3802    0.0000 C   0  0  0  0  0  0  0  0  0  0  0  0
   21.8066  -13.8051    0.0000 C   0  0  0  0  0  0  0  0  0  0  0  0
   21.8235  -12.1491    0.0000 C   0  0  0  0  0  0  0  0  0  0  0  0
   21.0977  -12.5530    0.0000 C   0  0  0  0  0  0  0  0  0  0  0  0
   22.5336  -12.5698    0.0000 C   0  0  0  0  0  0  0  0  0  0  0  0
   22.5202  -13.3967    0.0000 C   0  0  0  0  0  0  0  0  0  0  0  0
   23.3026  -13.6678    0.0000 C   0  0  0  0  0  0  0  0  0  0  0  0
   23.8012  -13.0059    0.0000 C   0  0  0  0  0  0  0  0  0  0  0  0
   23.3243  -12.3284    0.0000 C   0  0  0  0  0  0  0  0  0  0  0  0
   18.2383  -15.0303    0.0000 O   0  0  0  0  0  0  0  0  0  0  0  0
   20.3719  -12.9688    0.0000 C   0  0  0  0  0  0  0  0  0  0  0  0
   23.5953  -11.5508    0.0000 C   0  0  0  0  0  0  0  0  0  0  0  0
   24.3845  -11.3098    0.0000 C   0  0  0  0  0  0  0  0  0  0  0  0
   24.3978  -10.4844    0.0000 C   0  0  0  0  0  0  0  0  0  0  0  0
   23.6168  -10.2139    0.0000 C   0  0  0  0  0  0  0  0  0  0  0  0
   23.1194  -10.8745    0.0000 O   0  0  0  0  0  0  0  0  0  0  0  0
   21.8336  -11.3238    0.0000 O   0  0  0  0  0  0  0  0  0  0  0  0
   23.9350   -8.8235    0.0000 O   0  0  0  0  0  0  0  0  0  0  0  0
   22.5120  -14.2214    0.0000 C   0  0  0  0  0  0  0  0  0  0  0  0
   24.3078  -11.9610    0.0000 C   0  0  0  0  0  0  0  0  0  0  0  0
   21.7986  -12.9772    0.0000 C   0  0  0  0  0  0  0  0  0  0  0  0
   17.5281  -14.6182    0.0000 C   0  0  0  0  0  0  0  0  0  0  0  0
   16.8160  -15.0272    0.0000 C   0  0  0  0  0  0  0  0  0  0  0  0
   17.5299  -13.7970    0.0000 O   0  0  0  0  0  0  0  0  0  0  0  0
   16.1058  -14.6151    0.0000 C   0  0  0  0  0  0  0  0  0  0  0  0
   15.3937  -15.0241    0.0000 C   0  0  0  0  0  0  0  0  0  0  0  0
   14.6834  -14.6120    0.0000 S   0  0  0  0  0  0  0  0  0  0  0  0
   13.9714  -15.0210    0.0000 C   0  0  0  0  0  0  0  0  0  0  0  0
   16.8142  -15.8484    0.0000 N   0  0  0  0  0  0  0  0  0  0  0  0
   16.1021  -16.2575    0.0000 C   0  0  0  0  0  0  0  0  0  0  0  0
   16.1003  -17.0786    0.0000 O   0  0  0  0  0  0  0  0  0  0  0  0
   15.3919  -15.8453    0.0000 O   0  0  0  0  0  0  0  0  0  0  0  0
   15.3866  -18.3089    0.0000 C   0  0  0  0  0  0  0  0  0  0  0  0
  2  1  1  0
  3  2  1  0
  5  4  1  0
  6  5  1  0
  8  7  1  0
  9  8  1  0
 10 11  1  0
 10 12  1  0
 11  8  1  0
  8 14  1  0
 13 12  1  0
 13 14  1  0
 13 17  1  0
 14 15  1  0
 15 16  1  0
 16 18  1  0
 17 18  1  0
 17 20  1  0
 18 22  1  0
 21 19  1  0
 19 20  1  0
 21 22  1  0
 22 23  1  0
 23 24  1  0
 24 25  1  0
 25 21  1  0
 11 26  1  0
 13 27  1  0
 28 29  1  0
 29 30  1  0
 30 31  1  0
 31 32  1  0
 32 28  1  0
 25 28  1  0
 19 33  1  0
 31  5  1  0
  5 34  1  0
 22 35  1  0
 28 36  1  0
 18 37  1  0
 26 38  1  0
 38 39  1  0
 38 40  2  0
 39 41  1  0
 41 42  1  0
 42 43  1  0
 43 44  1  0
 39 45  1  0
 45 46  1  0
 46 47  1  0
 46 48  2  0
 47  2  1  0
  2 49  1  0
M  END
>  <Classification>  (858) 
1

>  <pchembl>  (858) 
5.84

>  <InChI_steorem>  (858) 
InChI=1S/C40H69NO7S/c1-34(2,3)48-33(44)41-25(17-22-49-12)32(43)46-29-15-18-37(8)27(35(29,4)5)14-20-38(9)28(37)23-26(42)31-24(13-19-39(31,38)10)40(11)21-16-30(47-40)36(6,7)45/h24-31,42,45H,13-23H2,1-12H3,(H,41,44)

>  <source>  (858) 
ChEMBL30

>  <source_id>  (858) 
30

>  <optional_reference>  (858) 
10.1016/j.ejmech.2021.113317

>  <optional_origin>  (858) 
None

>  <target>  (858) 
BCRP

$$$$

     RDKit          2D

 58 64  0  0  0  0  0  0  0  0999 V2000
    2.2190   -3.9869    0.0000 C   0  0  0  0  0  0  0  0  0  0  0  0
    2.2179   -4.8105    0.0000 C   0  0  0  0  0  0  0  0  0  0  0  0
    2.9301   -5.2195    0.0000 C   0  0  0  0  0  0  0  0  0  0  0  0
    3.6438   -4.8101    0.0000 C   0  0  0  0  0  0  0  0  0  0  0  0
    3.6410   -3.9833    0.0000 C   0  0  0  0  0  0  0  0  0  0  0  0
    2.9283   -3.5739    0.0000 C   0  0  0  0  0  0  0  0  0  0  0  0
    1.5099   -5.2186    0.0000 C   0  0  0  0  0  0  0  0  0  0  0  0
    0.7983   -4.8094    0.0000 O   0  0  0  0  0  0  0  0  0  0  0  0
    1.5092   -6.0399    0.0000 O   0  0  0  0  0  0  0  0  0  0  0  0
    0.0862   -5.2174    0.0000 C   0  0  0  0  0  0  0  0  0  0  0  0
    2.9299   -6.0408    0.0000 N   0  0  0  0  0  0  0  0  0  0  0  0
    3.6416   -6.4537    0.0000 C   0  0  0  0  0  0  0  0  0  0  0  0
    3.6414   -7.2750    0.0000 C   0  0  0  0  0  0  0  0  0  0  0  0
    4.3535   -6.0412    0.0000 O   0  0  0  0  0  0  0  0  0  0  0  0
    2.9290   -7.6792    0.0000 N   0  0  0  0  0  0  0  0  0  0  0  0
    4.3550   -8.4965    0.0000 C   0  0  0  0  0  0  0  0  0  0  0  0
    4.3521   -7.6773    0.0000 C   0  0  0  0  0  0  0  0  0  0  0  0
    3.6408   -8.9134    0.0000 C   0  0  0  0  0  0  0  0  0  0  0  0
    2.9319   -8.5009    0.0000 C   0  0  0  0  0  0  0  0  0  0  0  0
    2.2238   -8.9110    0.0000 C   0  0  0  0  0  0  0  0  0  0  0  0
    2.2234   -9.7294    0.0000 C   0  0  0  0  0  0  0  0  0  0  0  0
    2.9369  -10.1360    0.0000 C   0  0  0  0  0  0  0  0  0  0  0  0
    3.6421   -9.7276    0.0000 C   0  0  0  0  0  0  0  0  0  0  0  0
    4.3509   -3.5654    0.0000 C   0  0  0  0  0  0  0  0  0  0  0  0
    5.1028   -3.8949    0.0000 C   0  0  0  0  0  0  0  0  0  0  0  0
    5.6515   -3.2856    0.0000 N   0  0  0  0  0  0  0  0  0  0  0  0
    5.2361   -2.5752    0.0000 N   0  0  0  0  0  0  0  0  0  0  0  0
    4.4333   -2.7483    0.0000 N   0  0  0  0  0  0  0  0  0  0  0  0
    6.4686   -3.3679    0.0000 C   0  0  0  0  0  0  0  0  0  0  0  0
    6.8006   -4.1199    0.0000 C   0  0  0  0  0  0  0  0  0  0  0  0
    7.6169   -4.2025    0.0000 C   0  0  0  0  0  0  0  0  0  0  0  0
    8.0998   -3.5350    0.0000 C   0  0  0  0  0  0  0  0  0  0  0  0
    7.7563   -2.7828    0.0000 C   0  0  0  0  0  0  0  0  0  0  0  0
    6.9409   -2.7038    0.0000 C   0  0  0  0  0  0  0  0  0  0  0  0
    8.9170   -3.6163    0.0000 C   0  0  0  0  0  0  0  0  0  0  0  0
    9.3940   -2.9486    0.0000 N   0  0  0  0  0  0  0  0  0  0  0  0
   10.2112   -3.0298    0.0000 C   0  0  0  0  0  0  0  0  0  0  0  0
    9.0578   -2.1996    0.0000 C   0  0  0  0  0  0  0  0  0  0  0  0
    9.5348   -1.5360    0.0000 C   0  0  0  0  0  0  0  0  0  0  0  0
   10.3520   -1.6173    0.0000 C   0  0  0  0  0  0  0  0  0  0  0  0
   10.6899   -2.3639    0.0000 C   0  0  0  0  0  0  0  0  0  0  0  0
   11.5021   -2.4449    0.0000 C   0  0  0  0  0  0  0  0  0  0  0  0
   11.9774   -1.7802    0.0000 C   0  0  0  0  0  0  0  0  0  0  0  0
   11.6387   -1.0324    0.0000 C   0  0  0  0  0  0  0  0  0  0  0  0
   10.8275   -0.9550    0.0000 C   0  0  0  0  0  0  0  0  0  0  0  0
   12.1174   -0.3630    0.0000 O   0  0  0  0  0  0  0  0  0  0  0  0
   12.9350   -0.4413    0.0000 C   0  0  0  0  0  0  0  0  0  0  0  0
   12.7907   -1.8599    0.0000 O   0  0  0  0  0  0  0  0  0  0  0  0
   13.1283   -2.6041    0.0000 C   0  0  0  0  0  0  0  0  0  0  0  0
   13.9415   -2.6839    0.0000 C   0  0  0  0  0  0  0  0  0  0  0  0
   14.2791   -3.4281    0.0000 O   0  0  0  0  0  0  0  0  0  0  0  0
   15.0924   -3.5078    0.0000 C   0  0  0  0  0  0  0  0  0  0  0  0
   15.4300   -4.2520    0.0000 C   0  0  0  0  0  0  0  0  0  0  0  0
   16.2433   -4.3318    0.0000 O   0  0  0  0  0  0  0  0  0  0  0  0
   16.7190   -3.6673    0.0000 C   0  0  0  0  0  0  0  0  0  0  0  0
   17.5323   -3.7471    0.0000 C   0  0  0  0  0  0  0  0  0  0  0  0
   18.0080   -3.0826    0.0000 O   0  0  0  0  0  0  0  0  0  0  0  0
   18.8213   -3.1623    0.0000 C   0  0  0  0  0  0  0  0  0  0  0  0
  1  2  2  0
  2  3  1  0
  3  4  2  0
  4  5  1  0
  5  6  2  0
  6  1  1  0
  2  7  1  0
  7  8  1  0
  7  9  2  0
  8 10  1  0
  3 11  1  0
 11 12  1  0
 12 13  1  0
 12 14  2  0
 13 15  2  0
 15 19  1  0
 18 16  1  0
 16 17  2  0
 17 13  1  0
 18 19  2  0
 19 20  1  0
 20 21  2  0
 21 22  1  0
 22 23  2  0
 23 18  1  0
 24 25  2  0
 25 26  1  0
 26 27  1  0
 27 28  2  0
 28 24  1  0
  5 24  1  0
 26 29  1  0
 29 30  2  0
 30 31  1  0
 31 32  2  0
 32 33  1  0
 33 34  2  0
 34 29  1  0
 32 35  1  0
 35 36  1  0
 36 37  1  0
 36 38  1  0
 38 39  1  0
 37 41  1  0
 39 40  1  0
 40 41  2  0
 41 42  1  0
 42 43  2  0
 43 44  1  0
 44 45  2  0
 45 40  1  0
 44 46  1  0
 46 47  1  0
 43 48  1  0
 48 49  1  0
 49 50  1  0
 50 51  1  0
 51 52  1  0
 52 53  1  0
 53 54  1  0
 54 55  1  0
 55 56  1  0
 56 57  1  0
 57 58  1  0
M  END
>  <Classification>  (859) 
1

>  <pchembl>  (859) 
6.82

>  <InChI_steorem>  (859) 
InChI=1S/C44H46N6O8/c1-53-18-19-56-20-21-57-22-23-58-42-26-34-28-49(17-16-32(34)25-41(42)54-2)27-30-8-12-35(13-9-30)50-29-40(47-48-50)33-10-14-36(44(52)55-3)39(24-33)46-43(51)38-15-11-31-6-4-5-7-37(31)45-38/h4-15,24-26,29H,16-23,27-28H2,1-3H3,(H,46,51)

>  <source>  (859) 
ChEMBL30

>  <source_id>  (859) 
30

>  <optional_reference>  (859) 
10.1016/j.ejmech.2020.112133

>  <optional_origin>  (859) 
None

>  <target>  (859) 
BCRP

$$$$

     RDKit          2D

 59 65  0  0  0  0  0  0  0  0999 V2000
   18.9302  -24.0246    0.0000 C   0  0  0  0  0  0  0  0  0  0  0  0
   18.9290  -24.8482    0.0000 C   0  0  0  0  0  0  0  0  0  0  0  0
   19.6412  -25.2572    0.0000 C   0  0  0  0  0  0  0  0  0  0  0  0
   20.3550  -24.8478    0.0000 C   0  0  0  0  0  0  0  0  0  0  0  0
   20.3522  -24.0210    0.0000 C   0  0  0  0  0  0  0  0  0  0  0  0
   19.6394  -23.6116    0.0000 C   0  0  0  0  0  0  0  0  0  0  0  0
   18.2210  -25.2563    0.0000 C   0  0  0  0  0  0  0  0  0  0  0  0
   18.2204  -26.0776    0.0000 O   0  0  0  0  0  0  0  0  0  0  0  0
   19.6410  -26.0785    0.0000 N   0  0  0  0  0  0  0  0  0  0  0  0
   20.3527  -26.4914    0.0000 C   0  0  0  0  0  0  0  0  0  0  0  0
   20.3525  -27.3127    0.0000 C   0  0  0  0  0  0  0  0  0  0  0  0
   21.0647  -26.0789    0.0000 O   0  0  0  0  0  0  0  0  0  0  0  0
   19.6402  -27.7169    0.0000 N   0  0  0  0  0  0  0  0  0  0  0  0
   21.0662  -28.5342    0.0000 C   0  0  0  0  0  0  0  0  0  0  0  0
   21.0632  -27.7150    0.0000 C   0  0  0  0  0  0  0  0  0  0  0  0
   20.3519  -28.9511    0.0000 C   0  0  0  0  0  0  0  0  0  0  0  0
   19.6431  -28.5386    0.0000 C   0  0  0  0  0  0  0  0  0  0  0  0
   18.9350  -28.9487    0.0000 C   0  0  0  0  0  0  0  0  0  0  0  0
   18.9345  -29.7671    0.0000 C   0  0  0  0  0  0  0  0  0  0  0  0
   19.6480  -30.1737    0.0000 C   0  0  0  0  0  0  0  0  0  0  0  0
   20.3532  -29.7653    0.0000 C   0  0  0  0  0  0  0  0  0  0  0  0
   21.0621  -23.6031    0.0000 C   0  0  0  0  0  0  0  0  0  0  0  0
   21.8140  -23.9326    0.0000 C   0  0  0  0  0  0  0  0  0  0  0  0
   22.3626  -23.3233    0.0000 N   0  0  0  0  0  0  0  0  0  0  0  0
   21.9472  -22.6129    0.0000 N   0  0  0  0  0  0  0  0  0  0  0  0
   21.1444  -22.7860    0.0000 N   0  0  0  0  0  0  0  0  0  0  0  0
   23.1798  -23.4056    0.0000 C   0  0  0  0  0  0  0  0  0  0  0  0
   23.5117  -24.1576    0.0000 C   0  0  0  0  0  0  0  0  0  0  0  0
   24.3281  -24.2402    0.0000 C   0  0  0  0  0  0  0  0  0  0  0  0
   24.8109  -23.5727    0.0000 C   0  0  0  0  0  0  0  0  0  0  0  0
   24.4675  -22.8205    0.0000 C   0  0  0  0  0  0  0  0  0  0  0  0
   23.6521  -22.7415    0.0000 C   0  0  0  0  0  0  0  0  0  0  0  0
   25.6282  -23.6540    0.0000 C   0  0  0  0  0  0  0  0  0  0  0  0
   26.1048  -22.9902    0.0000 C   0  0  0  0  0  0  0  0  0  0  0  0
   26.9180  -23.0710    0.0000 N   0  0  0  0  0  0  0  0  0  0  0  0
   27.3946  -22.4072    0.0000 C   0  0  0  0  0  0  0  0  0  0  0  0
   27.2545  -23.8157    0.0000 C   0  0  0  0  0  0  0  0  0  0  0  0
   28.2078  -22.4881    0.0000 C   0  0  0  0  0  0  0  0  0  0  0  0
   28.5443  -23.2328    0.0000 C   0  0  0  0  0  0  0  0  0  0  0  0
   28.0679  -23.8946    0.0000 C   0  0  0  0  0  0  0  0  0  0  0  0
   28.4030  -24.6360    0.0000 C   0  0  0  0  0  0  0  0  0  0  0  0
   29.2142  -24.7168    0.0000 C   0  0  0  0  0  0  0  0  0  0  0  0
   29.6893  -24.0501    0.0000 C   0  0  0  0  0  0  0  0  0  0  0  0
   29.3516  -23.3114    0.0000 C   0  0  0  0  0  0  0  0  0  0  0  0
   29.5521  -25.4608    0.0000 O   0  0  0  0  0  0  0  0  0  0  0  0
   30.3654  -25.5403    0.0000 C   0  0  0  0  0  0  0  0  0  0  0  0
   30.5028  -24.1278    0.0000 O   0  0  0  0  0  0  0  0  0  0  0  0
   30.9767  -23.4621    0.0000 C   0  0  0  0  0  0  0  0  0  0  0  0
   30.7033  -26.2844    0.0000 C   0  0  0  0  0  0  0  0  0  0  0  0
   31.5166  -26.3638    0.0000 O   0  0  0  0  0  0  0  0  0  0  0  0
   31.8545  -27.1079    0.0000 C   0  0  0  0  0  0  0  0  0  0  0  0
   31.3790  -27.7725    0.0000 C   0  0  0  0  0  0  0  0  0  0  0  0
   31.7169  -28.5166    0.0000 O   0  0  0  0  0  0  0  0  0  0  0  0
   31.2414  -29.1812    0.0000 C   0  0  0  0  0  0  0  0  0  0  0  0
   30.4281  -29.1018    0.0000 C   0  0  0  0  0  0  0  0  0  0  0  0
   29.9526  -29.7664    0.0000 O   0  0  0  0  0  0  0  0  0  0  0  0
   29.1393  -29.6870    0.0000 C   0  0  0  0  0  0  0  0  0  0  0  0
   17.5136  -24.8471    0.0000 C   0  0  0  0  0  0  0  0  0  0  0  0
   16.8056  -25.2551    0.0000 C   0  0  0  0  0  0  0  0  0  0  0  0
  1  2  2  0
  2  3  1  0
  3  4  2  0
  4  5  1  0
  5  6  2  0
  6  1  1  0
  2  7  1  0
  7  8  2  0
  3  9  1  0
  9 10  1  0
 10 11  1  0
 10 12  2  0
 11 13  2  0
 13 17  1  0
 16 14  1  0
 14 15  2  0
 15 11  1  0
 16 17  2  0
 17 18  1  0
 18 19  2  0
 19 20  1  0
 20 21  2  0
 21 16  1  0
 22 23  2  0
 23 24  1  0
 24 25  1  0
 25 26  2  0
 26 22  1  0
  5 22  1  0
 24 27  1  0
 27 28  2  0
 28 29  1  0
 29 30  2  0
 30 31  1  0
 31 32  2  0
 32 27  1  0
 30 33  1  0
 33 34  1  0
 34 35  1  0
 35 36  1  0
 35 37  1  0
 36 38  1  0
 37 40  1  0
 38 39  1  0
 39 40  2  0
 40 41  1  0
 41 42  2  0
 42 43  1  0
 43 44  2  0
 44 39  1  0
 42 45  1  0
 45 46  1  0
 43 47  1  0
 47 48  1  0
 46 49  1  0
 49 50  1  0
 50 51  1  0
 51 52  1  0
 52 53  1  0
 53 54  1  0
 54 55  1  0
 55 56  1  0
 56 57  1  0
  7 58  1  0
 58 59  1  0
M  END
>  <Classification>  (860) 
1

>  <pchembl>  (860) 
7.09

>  <InChI_steorem>  (860) 
InChI=1S/C46H50N6O7/c1-4-43(53)38-15-11-35(27-41(38)48-46(54)40-16-12-33-7-5-6-8-39(33)47-40)42-31-52(50-49-42)37-13-9-32(10-14-37)17-19-51-20-18-34-28-44(56-3)45(29-36(34)30-51)59-26-25-58-24-23-57-22-21-55-2/h5-16,27-29,31H,4,17-26,30H2,1-3H3,(H,48,54)

>  <source>  (860) 
ChEMBL30

>  <source_id>  (860) 
30

>  <optional_reference>  (860) 
10.1016/j.ejmech.2020.112133

>  <optional_origin>  (860) 
None

>  <target>  (860) 
BCRP

$$$$

     RDKit          2D

 59 65  0  0  0  0  0  0  0  0999 V2000
    2.6648  -12.1505    0.0000 C   0  0  0  0  0  0  0  0  0  0  0  0
    2.6636  -12.9742    0.0000 C   0  0  0  0  0  0  0  0  0  0  0  0
    3.3758  -13.3832    0.0000 C   0  0  0  0  0  0  0  0  0  0  0  0
    4.0896  -12.9737    0.0000 C   0  0  0  0  0  0  0  0  0  0  0  0
    4.0868  -12.1469    0.0000 C   0  0  0  0  0  0  0  0  0  0  0  0
    3.3740  -11.7375    0.0000 C   0  0  0  0  0  0  0  0  0  0  0  0
    1.9556  -13.3822    0.0000 C   0  0  0  0  0  0  0  0  0  0  0  0
    1.9549  -14.2035    0.0000 O   0  0  0  0  0  0  0  0  0  0  0  0
    3.3756  -14.2045    0.0000 N   0  0  0  0  0  0  0  0  0  0  0  0
    4.0873  -14.6174    0.0000 C   0  0  0  0  0  0  0  0  0  0  0  0
    4.0871  -15.4387    0.0000 C   0  0  0  0  0  0  0  0  0  0  0  0
    4.7993  -14.2048    0.0000 O   0  0  0  0  0  0  0  0  0  0  0  0
    3.3748  -15.8428    0.0000 N   0  0  0  0  0  0  0  0  0  0  0  0
    4.8008  -16.6601    0.0000 C   0  0  0  0  0  0  0  0  0  0  0  0
    4.7978  -15.8409    0.0000 C   0  0  0  0  0  0  0  0  0  0  0  0
    4.0865  -17.0771    0.0000 C   0  0  0  0  0  0  0  0  0  0  0  0
    3.3777  -16.6645    0.0000 C   0  0  0  0  0  0  0  0  0  0  0  0
    2.6696  -17.0747    0.0000 C   0  0  0  0  0  0  0  0  0  0  0  0
    2.6691  -17.8931    0.0000 C   0  0  0  0  0  0  0  0  0  0  0  0
    3.3826  -18.2996    0.0000 C   0  0  0  0  0  0  0  0  0  0  0  0
    4.0878  -17.8913    0.0000 C   0  0  0  0  0  0  0  0  0  0  0  0
    4.7966  -11.7291    0.0000 C   0  0  0  0  0  0  0  0  0  0  0  0
    5.5486  -12.0586    0.0000 C   0  0  0  0  0  0  0  0  0  0  0  0
    6.0972  -11.4492    0.0000 N   0  0  0  0  0  0  0  0  0  0  0  0
    5.6818  -10.7389    0.0000 N   0  0  0  0  0  0  0  0  0  0  0  0
    4.8790  -10.9119    0.0000 N   0  0  0  0  0  0  0  0  0  0  0  0
    6.9144  -11.5316    0.0000 C   0  0  0  0  0  0  0  0  0  0  0  0
    7.2463  -12.2835    0.0000 C   0  0  0  0  0  0  0  0  0  0  0  0
    8.0627  -12.3661    0.0000 C   0  0  0  0  0  0  0  0  0  0  0  0
    8.5455  -11.6986    0.0000 C   0  0  0  0  0  0  0  0  0  0  0  0
    8.2020  -10.9465    0.0000 C   0  0  0  0  0  0  0  0  0  0  0  0
    7.3867  -10.8674    0.0000 C   0  0  0  0  0  0  0  0  0  0  0  0
    9.3628  -11.7799    0.0000 C   0  0  0  0  0  0  0  0  0  0  0  0
    9.8394  -11.1161    0.0000 C   0  0  0  0  0  0  0  0  0  0  0  0
   10.6526  -11.1970    0.0000 N   0  0  0  0  0  0  0  0  0  0  0  0
   11.1292  -10.5332    0.0000 C   0  0  0  0  0  0  0  0  0  0  0  0
   10.9891  -11.9417    0.0000 C   0  0  0  0  0  0  0  0  0  0  0  0
   11.9424  -10.6141    0.0000 C   0  0  0  0  0  0  0  0  0  0  0  0
   12.2789  -11.3587    0.0000 C   0  0  0  0  0  0  0  0  0  0  0  0
   11.8025  -12.0206    0.0000 C   0  0  0  0  0  0  0  0  0  0  0  0
   12.1376  -12.7620    0.0000 C   0  0  0  0  0  0  0  0  0  0  0  0
   12.9488  -12.8427    0.0000 C   0  0  0  0  0  0  0  0  0  0  0  0
   13.4238  -12.1761    0.0000 C   0  0  0  0  0  0  0  0  0  0  0  0
   13.0862  -11.4373    0.0000 C   0  0  0  0  0  0  0  0  0  0  0  0
    1.2482  -12.9731    0.0000 O   0  0  0  0  0  0  0  0  0  0  0  0
    0.5402  -13.3811    0.0000 C   0  0  0  0  0  0  0  0  0  0  0  0
   13.2867  -13.5868    0.0000 O   0  0  0  0  0  0  0  0  0  0  0  0
   14.1000  -13.6663    0.0000 C   0  0  0  0  0  0  0  0  0  0  0  0
   14.2373  -12.2537    0.0000 O   0  0  0  0  0  0  0  0  0  0  0  0
   14.7113  -11.5880    0.0000 C   0  0  0  0  0  0  0  0  0  0  0  0
   14.4379  -14.4103    0.0000 C   0  0  0  0  0  0  0  0  0  0  0  0
   15.2512  -14.4898    0.0000 O   0  0  0  0  0  0  0  0  0  0  0  0
   15.5890  -15.2338    0.0000 C   0  0  0  0  0  0  0  0  0  0  0  0
   15.1136  -15.8985    0.0000 C   0  0  0  0  0  0  0  0  0  0  0  0
   15.4515  -16.6426    0.0000 O   0  0  0  0  0  0  0  0  0  0  0  0
   14.9760  -17.3072    0.0000 C   0  0  0  0  0  0  0  0  0  0  0  0
   14.1627  -17.2278    0.0000 C   0  0  0  0  0  0  0  0  0  0  0  0
   13.6872  -17.8924    0.0000 O   0  0  0  0  0  0  0  0  0  0  0  0
   12.8739  -17.8129    0.0000 C   0  0  0  0  0  0  0  0  0  0  0  0
  1  2  2  0
  2  3  1  0
  3  4  2  0
  4  5  1  0
  5  6  2  0
  6  1  1  0
  2  7  1  0
  7  8  2  0
  3  9  1  0
  9 10  1  0
 10 11  1  0
 10 12  2  0
 11 13  2  0
 13 17  1  0
 16 14  1  0
 14 15  2  0
 15 11  1  0
 16 17  2  0
 17 18  1  0
 18 19  2  0
 19 20  1  0
 20 21  2  0
 21 16  1  0
 22 23  2  0
 23 24  1  0
 24 25  1  0
 25 26  2  0
 26 22  1  0
  5 22  1  0
 24 27  1  0
 27 28  2  0
 28 29  1  0
 29 30  2  0
 30 31  1  0
 31 32  2  0
 32 27  1  0
 30 33  1  0
 33 34  1  0
 34 35  1  0
 35 36  1  0
 35 37  1  0
 36 38  1  0
 37 40  1  0
 38 39  1  0
 39 40  2  0
 40 41  1  0
 41 42  2  0
 42 43  1  0
 43 44  2  0
 44 39  1  0
  7 45  1  0
 45 46  1  0
 42 47  1  0
 47 48  1  0
 43 49  1  0
 49 50  1  0
 48 51  1  0
 51 52  1  0
 52 53  1  0
 53 54  1  0
 54 55  1  0
 55 56  1  0
 56 57  1  0
 57 58  1  0
 58 59  1  0
M  END
>  <Classification>  (861) 
1

>  <pchembl>  (861) 
6.84

>  <InChI_steorem>  (861) 
InChI=1S/C45H48N6O8/c1-54-20-21-57-22-23-58-24-25-59-43-28-35-29-50(19-17-33(35)27-42(43)55-2)18-16-31-8-12-36(13-9-31)51-30-41(48-49-51)34-10-14-37(45(53)56-3)40(26-34)47-44(52)39-15-11-32-6-4-5-7-38(32)46-39/h4-15,26-28,30H,16-25,29H2,1-3H3,(H,47,52)

>  <source>  (861) 
ChEMBL30

>  <source_id>  (861) 
30

>  <optional_reference>  (861) 
10.1016/j.ejmech.2020.112133

>  <optional_origin>  (861) 
None

>  <target>  (861) 
BCRP

$$$$
