
     RDKit          2D

 31 34  0  0  0  0  0  0  0  0999 V2000
    4.1042   -6.5125    0.0000 N   0  0  0  0  0  0  0  0  0  0  0  0
    4.1042   -5.6792    0.0000 C   0  0  0  0  0  0  0  0  0  0  0  0
    2.6750   -5.6792    0.0000 C   0  0  0  0  0  0  0  0  0  0  0  0
    3.3875   -6.9250    0.0000 O   0  0  0  0  0  0  0  0  0  0  0  0
    2.6667   -6.5042    0.0000 C   0  0  0  0  0  0  0  0  0  0  0  0
   10.3875   -1.4792    0.0000 C   0  0  0  0  0  0  0  0  0  0  0  0
    5.8625   -3.9417    0.0000 N   0  0  0  0  0  0  0  0  0  0  0  0
    1.9542   -5.2667    0.0000 C   0  0  0  0  0  0  0  0  0  0  0  0
    1.9542   -6.9250    0.0000 C   0  0  0  0  0  0  0  0  0  0  0  0
    9.5875   -1.2667    0.0000 C   0  0  0  0  0  0  0  0  0  0  0  0
    9.0042   -1.8500    0.0000 C   0  0  0  0  0  0  0  0  0  0  0  0
    4.6917   -5.1042    0.0000 C   0  0  0  0  0  0  0  0  0  0  0  0
   10.9667   -0.9042    0.0000 C   0  0  0  0  0  0  0  0  0  0  0  0
    9.2167   -2.6417    0.0000 C   0  0  0  0  0  0  0  0  0  0  0  0
   10.5917   -2.2792    0.0000 C   0  0  0  0  0  0  0  0  0  0  0  0
   10.7625   -0.1042    0.0000 O   0  0  0  0  0  0  0  0  0  0  0  0
   10.0042   -2.8625    0.0000 C   0  0  0  0  0  0  0  0  0  0  0  0
    1.2417   -6.5125    0.0000 C   0  0  0  0  0  0  0  0  0  0  0  0
    5.4875   -5.3167    0.0000 C   0  0  0  0  0  0  0  0  0  0  0  0
    4.4792   -4.3042    0.0000 C   0  0  0  0  0  0  0  0  0  0  0  0
    5.0667   -3.7292    0.0000 C   0  0  0  0  0  0  0  0  0  0  0  0
    6.0667   -4.7417    0.0000 C   0  0  0  0  0  0  0  0  0  0  0  0
    1.2417   -5.6875    0.0000 C   0  0  0  0  0  0  0  0  0  0  0  0
    8.2042   -1.6292    0.0000 O   0  0  0  0  0  0  0  0  0  0  0  0
    0.5292   -6.9250    0.0000 F   0  0  0  0  0  0  0  0  0  0  0  0
    8.6292   -3.2167    0.0000 O   0  0  0  0  0  0  0  0  0  0  0  0
    6.4500   -3.3667    0.0000 C   0  0  0  0  0  0  0  0  0  0  0  0
    7.2417   -3.5792    0.0000 C   0  0  0  0  0  0  0  0  0  0  0  0
   11.7667   -1.1167    0.0000 C   0  0  0  0  0  0  0  0  0  0  0  0
    7.8292   -3.0042    0.0000 C   0  0  0  0  0  0  0  0  0  0  0  0
    7.9917   -0.8375    0.0000 C   0  0  0  0  0  0  0  0  0  0  0  0
  2  1  2  0
  3  2  1  0
  4  1  1  0
  5  4  1  0
  6 15  2  0
  7 21  1  0
  8  3  2  0
  9  5  2  0
 10 11  2  0
 11 14  1  0
 12  2  1  0
 13  6  1  0
 14 26  1  0
 15 17  1  0
 16 13  2  0
 17 14  2  0
 18  9  1  0
 19 12  1  0
 20 12  1  0
 21 20  1  0
 22 19  1  0
 23  8  1  0
 24 11  1  0
 25 18  1  0
 26 30  1  0
 27  7  1  0
 28 27  1  0
 29 13  1  0
 30 28  1  0
 31 24  1  0
  3  5  1  0
 22  7  1  0
 23 18  2  0
 10  6  1  0
M  END
>  <Classification>  (1) 
0

>  <pchembl>  (1) 
4.63

>  <InChI_steorem>  (1) 
InChI=1S/C24H27FN2O4/c1-16(28)18-4-7-21(23(14-18)29-2)30-13-3-10-27-11-8-17(9-12-27)24-20-6-5-19(25)15-22(20)31-26-24/h4-7,14-15,17H,3,8-13H2,1-2H3

>  <source>  (1) 
ChEMBL25

>  <source_id>  (1) 
25

>  <optional_reference>  (1) 
10.1093/toxsci/kft176

>  <optional_origin>  (1) 
None

>  <target>  (1) 
BSEP

$$$$

     RDKit          2D

 24 25  0  0  0  0  0  0  0  0999 V2000
    3.3542    0.6333    0.0000 C   0  0  0  0  0  0  0  0  0  0  0  0
    2.6417    1.0458    0.0000 C   0  0  0  0  0  0  0  0  0  0  0  0
    3.9417    1.2208    0.0000 C   0  0  0  0  0  0  0  0  0  0  0  0
    1.9292    0.6333    0.0000 N   0  0  0  0  0  0  0  0  0  0  0  0
   -0.9458    2.2958    0.0000 C   0  0  0  0  0  0  0  0  0  0  0  0
   -0.2208    1.8750    0.0000 C   0  0  0  0  0  0  0  0  0  0  0  0
    2.6417    1.8708    0.0000 O   0  0  0  0  0  0  0  0  0  0  0  0
   -0.9458    3.1208    0.0000 O   0  0  0  0  0  0  0  0  0  0  0  0
   -1.6583    1.8833    0.0000 C   0  0  0  0  0  0  0  0  0  0  0  0
    4.4667    1.7583    0.0000 F   0  0  0  0  0  0  0  0  0  0  0  0
    4.8000    1.1333    0.0000 F   0  0  0  0  0  0  0  0  0  0  0  0
    3.8500    2.0833    0.0000 F   0  0  0  0  0  0  0  0  0  0  0  0
    2.9417   -0.0917    0.0000 O   0  0  0  0  0  0  0  0  0  0  0  0
    1.2042    1.0500    0.0000 C   0  0  0  0  0  0  0  0  0  0  0  0
   -0.2208    1.0500    0.0000 C   0  0  0  0  0  0  0  0  0  0  0  0
    0.4917    2.2875    0.0000 C   0  0  0  0  0  0  0  0  0  0  0  0
    4.0792    0.2125    0.0000 C   0  0  0  0  0  0  0  0  0  0  0  0
    0.4917    0.6375    0.0000 C   0  0  0  0  0  0  0  0  0  0  0  0
    1.2042    1.8750    0.0000 C   0  0  0  0  0  0  0  0  0  0  0  0
   -1.6583    1.0500    0.0000 C   0  0  0  0  0  0  0  0  0  0  0  0
   -2.3708    2.2958    0.0000 C   0  0  0  0  0  0  0  0  0  0  0  0
   -2.3708    0.6375    0.0000 C   0  0  0  0  0  0  0  0  0  0  0  0
   -3.0875    1.8833    0.0000 C   0  0  0  0  0  0  0  0  0  0  0  0
   -3.0875    1.0500    0.0000 C   0  0  0  0  0  0  0  0  0  0  0  0
  2  1  1  0
  3  1  1  0
  4  2  1  0
  5  6  1  0
  6 16  1  0
  7  2  2  0
  8  5  2  0
  9  5  1  0
 10  3  1  0
 11  3  1  0
 12  3  1  0
  1 13  1  0
 14  4  1  0
 15 18  1  0
 16 19  2  0
  1 17  1  0
 18 14  2  0
 19 14  1  0
 20  9  2  0
 21  9  1  0
 22 20  1  0
 23 21  2  0
 24 23  1  0
 15  6  2  0
 22 24  2  0
M  END
>  <Classification>  (2) 
0

>  <pchembl>  (2) 
4.67

>  <InChI_steorem>  (2) 
InChI=1S/C17H14F3NO3/c1-16(24,17(18,19)20)15(23)21-13-9-7-12(8-10-13)14(22)11-5-3-2-4-6-11/h2-10,24H,1H3,(H,21,23)

>  <source>  (2) 
ChEMBL25

>  <source_id>  (2) 
25

>  <optional_reference>  (2) 
10.1124/dmd.112.047068

>  <optional_origin>  (2) 
None

>  <target>  (2) 
BSEP

$$$$

     RDKit          2D

 27 29  0  0  0  0  0  0  0  0999 V2000
    6.6792   -6.3375    0.0000 N   0  0  0  0  0  0  0  0  0  0  0  0
    6.0167   -5.8542    0.0000 N   0  0  0  0  0  0  0  0  0  0  0  0
    7.3417   -5.8417    0.0000 C   0  0  0  0  0  0  0  0  0  0  0  0
    6.2667   -5.0625    0.0000 C   0  0  0  0  0  0  0  0  0  0  0  0
    7.0792   -5.0625    0.0000 C   0  0  0  0  0  0  0  0  0  0  0  0
    3.1625   -7.5042    0.0000 S   0  0  0  0  0  0  0  0  0  0  0  0
    5.7792   -4.3917    0.0000 C   0  0  0  0  0  0  0  0  0  0  0  0
    3.8792   -7.0917    0.0000 C   0  0  0  0  0  0  0  0  0  0  0  0
    5.3000   -6.2667    0.0000 C   0  0  0  0  0  0  0  0  0  0  0  0
    8.1292   -6.0917    0.0000 C   0  0  0  0  0  0  0  0  0  0  0  0
    6.1167   -3.6500    0.0000 C   0  0  0  0  0  0  0  0  0  0  0  0
    5.6292   -2.9792    0.0000 C   0  0  0  0  0  0  0  0  0  0  0  0
    2.9500   -6.7125    0.0000 O   0  0  0  0  0  0  0  0  0  0  0  0
    3.3792   -8.3042    0.0000 O   0  0  0  0  0  0  0  0  0  0  0  0
    2.3375   -7.5042    0.0000 N   0  0  0  0  0  0  0  0  0  0  0  0
    4.8125   -3.0667    0.0000 C   0  0  0  0  0  0  0  0  0  0  0  0
    4.9625   -4.4917    0.0000 C   0  0  0  0  0  0  0  0  0  0  0  0
    4.5875   -7.5042    0.0000 C   0  0  0  0  0  0  0  0  0  0  0  0
    3.8792   -6.2667    0.0000 C   0  0  0  0  0  0  0  0  0  0  0  0
    5.3000   -7.0917    0.0000 C   0  0  0  0  0  0  0  0  0  0  0  0
    4.5875   -5.8542    0.0000 C   0  0  0  0  0  0  0  0  0  0  0  0
    4.4750   -3.8250    0.0000 C   0  0  0  0  0  0  0  0  0  0  0  0
    5.9667   -2.2292    0.0000 F   0  0  0  0  0  0  0  0  0  0  0  0
    8.7375   -5.5292    0.0000 F   0  0  0  0  0  0  0  0  0  0  0  0
    8.3042   -6.8917    0.0000 F   0  0  0  0  0  0  0  0  0  0  0  0
    4.3250   -2.4000    0.0000 O   0  0  0  0  0  0  0  0  0  0  0  0
    3.5042   -2.4875    0.0000 C   0  0  0  0  0  0  0  0  0  0  0  0
  2  1  1  0
  3  1  2  0
  4  2  1  0
  5  3  1  0
  6  8  1  0
  7  4  1  0
  8 19  2  0
  9  2  1  0
 10  3  1  0
 11  7  2  0
 12 11  1  0
 13  6  2  0
 14  6  2  0
 15  6  1  0
 16 22  1  0
 17  7  1  0
 18 20  2  0
 19 21  1  0
 20  9  1  0
 21  9  2  0
 22 17  2  0
 23 12  1  0
 24 10  1  0
 25 10  1  0
 26 16  1  0
 27 26  1  0
  5  4  2  0
 18  8  1  0
 16 12  2  0
M  END
>  <Classification>  (3) 
0

>  <pchembl>  (3) 
4.7

>  <InChI_steorem>  (3) 
InChI=1S/C17H14F3N3O3S/c1-26-16-7-2-10(8-13(16)18)15-9-14(17(19)20)22-23(15)11-3-5-12(6-4-11)27(21,24)25/h2-9,17H,1H3,(H2,21,24,25)

>  <source>  (3) 
ChEMBL25

>  <source_id>  (3) 
25

>  <optional_reference>  (3) 
10.1124/dmd.112.047068

>  <optional_origin>  (3) 
None

>  <target>  (3) 
BSEP

$$$$

     RDKit          2D

 23 24  0  0  0  0  0  0  0  0999 V2000
    4.3542   -3.6042    0.0000 C   0  0  0  0  0  0  0  0  0  0  0  0
    4.3500   -1.9542    0.0000 C   0  0  0  0  0  0  0  0  0  0  0  0
    5.0667   -3.1917    0.0000 C   0  0  0  0  0  0  0  0  0  0  0  0
    5.0667   -2.3625    0.0000 C   0  0  0  0  0  0  0  0  0  0  0  0
    3.6417   -3.1917    0.0000 C   0  0  0  0  0  0  0  0  0  0  0  0
    3.6417   -2.3667    0.0000 C   0  0  0  0  0  0  0  0  0  0  0  0
    4.3542   -4.4292    0.0000 O   0  0  0  0  0  0  0  0  0  0  0  0
    4.3417   -1.1292    0.0000 O   0  0  0  0  0  0  0  0  0  0  0  0
    2.9250   -1.9542    0.0000 C   0  0  0  0  0  0  0  0  0  0  0  0
    3.6417   -4.8417    0.0000 C   0  0  0  0  0  0  0  0  0  0  0  0
    5.0542   -0.7125    0.0000 C   0  0  0  0  0  0  0  0  0  0  0  0
    2.9250   -3.6125    0.0000 C   0  0  0  0  0  0  0  0  0  0  0  0
    3.6417   -5.6667    0.0000 O   0  0  0  0  0  0  0  0  0  0  0  0
    5.7750   -1.1167    0.0000 O   0  0  0  0  0  0  0  0  0  0  0  0
    5.7792   -1.9417    0.0000 O   0  0  0  0  0  0  0  0  0  0  0  0
    5.7875   -3.6000    0.0000 O   0  0  0  0  0  0  0  0  0  0  0  0
    2.2125   -3.2000    0.0000 C   0  0  0  0  0  0  0  0  0  0  0  0
    2.2125   -2.3750    0.0000 C   0  0  0  0  0  0  0  0  0  0  0  0
    1.4917   -3.6125    0.0000 Cl  0  0  0  0  0  0  0  0  0  0  0  0
    2.9292   -4.4292    0.0000 C   0  0  0  0  0  0  0  0  0  0  0  0
    5.0542    0.1125    0.0000 C   0  0  0  0  0  0  0  0  0  0  0  0
    5.7917   -4.4250    0.0000 C   0  0  0  0  0  0  0  0  0  0  0  0
    6.4917   -2.3542    0.0000 C   0  0  0  0  0  0  0  0  0  0  0  0
  2  6  1  0
  3  1  2  0
  4  3  1  0
  5  1  1  0
  6  5  2  0
  7  1  1  0
  8  2  1  0
  9  6  1  0
 10  7  1  0
 11  8  1  0
 12  5  1  0
 13 10  2  0
 14 11  2  0
 15  4  1  0
 16  3  1  0
 17 12  2  0
 18 17  1  0
 19 17  1  0
 20 10  1  0
 21 11  1  0
 22 16  1  0
 23 15  1  0
  4  2  2  0
  9 18  2  0
M  END
>  <Classification>  (4) 
0

>  <pchembl>  (4) 
4.84

>  <InChI_steorem>  (4) 
InChI=1S/C16H15ClO6/c1-8(18)22-13-11-6-5-10(17)7-12(11)14(23-9(2)19)16(21-4)15(13)20-3/h5-7H,1-4H3

>  <source>  (4) 
ChEMBL25

>  <source_id>  (4) 
25

>  <optional_reference>  (4) 
10.1124/dmd.112.047068

>  <optional_origin>  (4) 
None

>  <target>  (4) 
BSEP

$$$$

     RDKit          2D

 22 24  0  0  0  0  0  0  0  0999 V2000
    0.6292   -4.1250    0.0000 C   0  0  0  0  0  0  0  0  0  0  0  0
    0.6292   -3.5250    0.0000 C   0  0  0  0  0  0  0  0  0  0  0  0
    1.1417   -3.2250    0.0000 O   0  0  0  0  0  0  0  0  0  0  0  0
    1.1417   -4.4167    0.0000 C   0  0  0  0  0  0  0  0  0  0  0  0
    0.1125   -4.4250    0.0000 C   0  0  0  0  0  0  0  0  0  0  0  0
    1.6625   -3.5292    0.0000 C   0  0  0  0  0  0  0  0  0  0  0  0
    1.6625   -4.1250    0.0000 C   0  0  0  0  0  0  0  0  0  0  0  0
    0.1042   -3.2250    0.0000 C   0  0  0  0  0  0  0  0  0  0  0  0
   -0.4083   -4.1292    0.0000 C   0  0  0  0  0  0  0  0  0  0  0  0
   -0.4083   -3.5292    0.0000 C   0  0  0  0  0  0  0  0  0  0  0  0
    2.1792   -3.2292    0.0000 C   0  0  0  0  0  0  0  0  0  0  0  0
    1.1375   -5.0167    0.0000 O   0  0  0  0  0  0  0  0  0  0  0  0
    2.1875   -2.6292    0.0000 O   0  0  0  0  0  0  0  0  0  0  0  0
    0.1125   -5.0250    0.0000 O   0  0  0  0  0  0  0  0  0  0  0  0
    2.7042   -3.5292    0.0000 O   0  0  0  0  0  0  0  0  0  0  0  0
    0.1042   -2.6250    0.0000 C   0  0  0  0  0  0  0  0  0  0  0  0
   -0.9333   -4.4292    0.0000 C   0  0  0  0  0  0  0  0  0  0  0  0
   -0.9333   -3.2292    0.0000 C   0  0  0  0  0  0  0  0  0  0  0  0
    0.6250   -2.3250    0.0000 C   0  0  0  0  0  0  0  0  0  0  0  0
   -1.4458   -4.1292    0.0000 C   0  0  0  0  0  0  0  0  0  0  0  0
   -1.4458   -3.5292    0.0000 C   0  0  0  0  0  0  0  0  0  0  0  0
    0.6250   -1.7250    0.0000 C   0  0  0  0  0  0  0  0  0  0  0  0
  2  1  2  0
  3  2  1  0
  4  1  1  0
  5  1  1  0
  6  7  2  0
  7  4  1  0
  8  2  1  0
  9  5  2  0
 10  9  1  0
 11  6  1  0
 12  4  2  0
 13 11  2  0
 14  5  1  0
 15 11  1  0
 16  8  1  0
 17  9  1  0
 18 10  1  0
 19 16  1  0
 20 17  1  0
 21 20  1  0
 22 19  1  0
 10  8  2  0
  6  3  1  0
 18 21  1  0
M  END
>  <Classification>  (5) 
0

>  <pchembl>  (5) 
4.52

>  <InChI_steorem>  (5) 
InChI=1S/C17H18O5/c1-2-5-11-9-6-3-4-7-10(9)15(19)14-12(18)8-13(17(20)21)22-16(11)14/h8,19H,2-7H2,1H3,(H,20,21)

>  <source>  (5) 
ChEMBL25

>  <source_id>  (5) 
25

>  <optional_reference>  (5) 
10.1124/dmd.112.047068

>  <optional_origin>  (5) 
None

>  <target>  (5) 
BSEP

$$$$

     RDKit          2D

 19 20  0  0  0  0  0  0  0  0999 V2000
    6.5792   -2.5792    0.0000 C   0  0  0  0  0  0  0  0  0  0  0  0
    7.3667   -1.5042    0.0000 N   0  0  0  0  0  0  0  0  0  0  0  0
    6.5792   -1.7667    0.0000 C   0  0  0  0  0  0  0  0  0  0  0  0
    7.3667   -2.8417    0.0000 C   0  0  0  0  0  0  0  0  0  0  0  0
    7.8542   -2.1667    0.0000 C   0  0  0  0  0  0  0  0  0  0  0  0
    5.8625   -3.0125    0.0000 C   0  0  0  0  0  0  0  0  0  0  0  0
    5.8625   -3.8292    0.0000 O   0  0  0  0  0  0  0  0  0  0  0  0
    2.9792   -3.8417    0.0000 N   0  0  0  0  0  0  0  0  0  0  0  0
    4.4417   -3.8292    0.0000 C   0  0  0  0  0  0  0  0  0  0  0  0
    5.1542   -4.2417    0.0000 C   0  0  0  0  0  0  0  0  0  0  0  0
    3.7000   -4.2542    0.0000 C   0  0  0  0  0  0  0  0  0  0  0  0
    5.8625   -1.3500    0.0000 C   0  0  0  0  0  0  0  0  0  0  0  0
    4.4417   -3.0125    0.0000 O   0  0  0  0  0  0  0  0  0  0  0  0
    8.6792   -2.1625    0.0000 C   0  0  0  0  0  0  0  0  0  0  0  0
    5.1542   -1.7667    0.0000 C   0  0  0  0  0  0  0  0  0  0  0  0
    2.2417   -4.2542    0.0000 C   0  0  0  0  0  0  0  0  0  0  0  0
    5.1542   -2.5792    0.0000 C   0  0  0  0  0  0  0  0  0  0  0  0
    1.5417   -3.8500    0.0000 C   0  0  0  0  0  0  0  0  0  0  0  0
    2.2417   -5.0917    0.0000 C   0  0  0  0  0  0  0  0  0  0  0  0
  2  3  1  0
  3  1  2  0
  4  1  1  0
  5  4  2  0
  6  1  1  0
  7  6  1  0
  8 11  1  0
  9 10  1  0
 10  7  1  0
 11  9  1  0
 12  3  1  0
 13  9  1  0
 14  5  1  0
 15 17  1  0
 16  8  1  0
 17  6  2  0
 18 16  1  0
 19 16  1  0
  5  2  1  0
 15 12  2  0
M  END
>  <Classification>  (6) 
0

>  <pchembl>  (6) 
4.45

>  <InChI_steorem>  (6) 
InChI=1S/C15H22N2O2/c1-10(2)16-8-12(18)9-19-15-6-4-5-14-13(15)7-11(3)17-14/h4-7,10,12,16-18H,8-9H2,1-3H3

>  <source>  (6) 
ChEMBL25

>  <source_id>  (6) 
25

>  <optional_reference>  (6) 
10.1124/dmd.112.047068

>  <optional_origin>  (6) 
None

>  <target>  (6) 
BSEP

$$$$

     RDKit          2D

 31 33  0  0  0  0  0  0  0  0999 V2000
    5.6792  -18.1667    0.0000 S   0  0  0  0  0  0  0  0  0  0  0  0
    1.3750  -18.9542    0.0000 C   0  0  0  0  0  0  0  0  0  0  0  0
    0.6417  -17.8417    0.0000 C   0  0  0  0  0  0  0  0  0  0  0  0
    1.8875  -18.3167    0.0000 C   0  0  0  0  0  0  0  0  0  0  0  0
    0.6042  -18.6667    0.0000 N   0  0  0  0  0  0  0  0  0  0  0  0
    1.4292  -17.6292    0.0000 S   0  0  0  0  0  0  0  0  0  0  0  0
    1.6750  -19.7250    0.0000 C   0  0  0  0  0  0  0  0  0  0  0  0
    5.9792  -18.9417    0.0000 C   0  0  0  0  0  0  0  0  0  0  0  0
    6.4500  -17.8667    0.0000 O   0  0  0  0  0  0  0  0  0  0  0  0
    4.9042  -18.4750    0.0000 O   0  0  0  0  0  0  0  0  0  0  0  0
    2.7042  -18.4417    0.0000 C   0  0  0  0  0  0  0  0  0  0  0  0
    5.3750  -17.4042    0.0000 N   0  0  0  0  0  0  0  0  0  0  0  0
   -0.0083  -17.3292    0.0000 O   0  0  0  0  0  0  0  0  0  0  0  0
    2.4917  -19.8500    0.0000 C   0  0  0  0  0  0  0  0  0  0  0  0
    3.0042  -19.2042    0.0000 C   0  0  0  0  0  0  0  0  0  0  0  0
    4.5542  -17.2792    0.0000 C   0  0  0  0  0  0  0  0  0  0  0  0
    3.4417  -16.3792    0.0000 N   0  0  0  0  0  0  0  0  0  0  0  0
    1.1542  -20.3667    0.0000 O   0  0  0  0  0  0  0  0  0  0  0  0
    5.0292  -22.4042    0.0000 C   0  0  0  0  0  0  0  0  0  0  0  0
    5.4667  -19.5875    0.0000 C   0  0  0  0  0  0  0  0  0  0  0  0
    5.7667  -20.3542    0.0000 O   0  0  0  0  0  0  0  0  0  0  0  0
    4.2542  -16.5125    0.0000 C   0  0  0  0  0  0  0  0  0  0  0  0
    3.2250  -17.7917    0.0000 C   0  0  0  0  0  0  0  0  0  0  0  0
    2.9250  -17.0250    0.0000 C   0  0  0  0  0  0  0  0  0  0  0  0
    5.5500  -21.7667    0.0000 C   0  0  0  0  0  0  0  0  0  0  0  0
    5.2500  -20.9917    0.0000 C   0  0  0  0  0  0  0  0  0  0  0  0
    4.2167  -22.2792    0.0000 C   0  0  0  0  0  0  0  0  0  0  0  0
    5.3292  -23.1792    0.0000 C   0  0  0  0  0  0  0  0  0  0  0  0
    4.8167  -23.8167    0.0000 C   0  0  0  0  0  0  0  0  0  0  0  0
    3.7042  -22.9250    0.0000 C   0  0  0  0  0  0  0  0  0  0  0  0
    4.0000  -23.6917    0.0000 C   0  0  0  0  0  0  0  0  0  0  0  0
  2  4  2  0
  3  6  1  0
  4 11  1  0
  5  2  1  0
  6  4  1  0
  7 14  2  0
  8  1  1  0
  9  1  2  0
 10  1  2  0
 11 23  1  0
 12  1  1  0
 13  3  1  0
 14 15  1  0
 15 11  2  0
 16 12  1  0
 17 22  1  0
 18  7  1  0
 19 25  1  0
 20  8  1  0
 21 20  1  0
 22 16  1  0
 23 24  1  0
 24 17  1  0
 25 26  1  0
 26 21  1  0
 27 19  2  0
 28 19  1  0
 29 28  2  0
 30 27  1  0
 31 29  1  0
 30 31  2  0
  2  7  1  0
  3  5  2  0
M  END
>  <Classification>  (7) 
0

>  <pchembl>  (7) 
4.45

>  <InChI_steorem>  (7) 
InChI=1S/C21H27N3O5S2/c25-18-7-6-17(20-19(18)24-21(26)30-20)8-10-22-11-12-23-31(27,28)15-14-29-13-9-16-4-2-1-3-5-16/h1-7,22-23,25H,8-15H2,(H,24,26)

>  <source>  (7) 
ChEMBL25

>  <source_id>  (7) 
25

>  <optional_reference>  (7) 
10.1124/dmd.112.047068

>  <optional_origin>  (7) 
None

>  <target>  (7) 
BSEP

$$$$

     RDKit          2D

 27 29  0  0  0  0  0  0  0  0999 V2000
    6.6042   -5.9875    0.0000 C   0  0  0  0  0  0  0  0  0  0  0  0
    3.7500   -4.3375    0.0000 C   0  0  0  0  0  0  0  0  0  0  0  0
    7.3167   -5.5667    0.0000 C   0  0  0  0  0  0  0  0  0  0  0  0
    6.6042   -6.8125    0.0000 C   0  0  0  0  0  0  0  0  0  0  0  0
    4.4625   -4.7500    0.0000 C   0  0  0  0  0  0  0  0  0  0  0  0
    5.8917   -5.5750    0.0000 C   0  0  0  0  0  0  0  0  0  0  0  0
    3.0292   -4.7500    0.0000 N   0  0  0  0  0  0  0  0  0  0  0  0
    8.0292   -5.9792    0.0000 C   0  0  0  0  0  0  0  0  0  0  0  0
    3.7500   -3.5125    0.0000 O   0  0  0  0  0  0  0  0  0  0  0  0
    6.6042   -8.4542    0.0000 N   0  0  0  0  0  0  0  0  0  0  0  0
    4.4625   -5.5750    0.0000 C   0  0  0  0  0  0  0  0  0  0  0  0
    5.1750   -4.3292    0.0000 C   0  0  0  0  0  0  0  0  0  0  0  0
    5.8917   -4.7417    0.0000 C   0  0  0  0  0  0  0  0  0  0  0  0
    5.1750   -5.9875    0.0000 C   0  0  0  0  0  0  0  0  0  0  0  0
    8.7417   -5.5667    0.0000 C   0  0  0  0  0  0  0  0  0  0  0  0
    9.4542   -5.9792    0.0000 F   0  0  0  0  0  0  0  0  0  0  0  0
    7.3167   -4.7500    0.0000 C   0  0  0  0  0  0  0  0  0  0  0  0
    7.3250   -7.2167    0.0000 C   0  0  0  0  0  0  0  0  0  0  0  0
    5.8917   -7.2167    0.0000 C   0  0  0  0  0  0  0  0  0  0  0  0
    8.0250   -4.3292    0.0000 C   0  0  0  0  0  0  0  0  0  0  0  0
    7.3167   -8.0417    0.0000 C   0  0  0  0  0  0  0  0  0  0  0  0
    5.8917   -8.0417    0.0000 C   0  0  0  0  0  0  0  0  0  0  0  0
    3.0292   -5.5750    0.0000 C   0  0  0  0  0  0  0  0  0  0  0  0
    2.3167   -4.3375    0.0000 C   0  0  0  0  0  0  0  0  0  0  0  0
    8.7417   -4.7417    0.0000 C   0  0  0  0  0  0  0  0  0  0  0  0
    1.6042   -4.7500    0.0000 C   0  0  0  0  0  0  0  0  0  0  0  0
    2.3167   -5.9875    0.0000 C   0  0  0  0  0  0  0  0  0  0  0  0
  2  5  1  0
  3  1  1  0
  4  1  2  3
  5 11  2  0
  6  1  1  0
  7  2  1  0
  8  3  2  0
  9  2  2  0
 10 22  1  0
 11 14  1  0
 12 13  2  0
 13  6  1  0
 14  6  2  0
 15  8  1  0
 16 15  1  0
 17  3  1  0
 18  4  1  0
 19  4  1  0
 20 17  2  0
 21 18  1  0
 22 19  1  0
 23  7  1  0
 24  7  1  0
 25 20  1  0
 26 24  1  0
 27 23  1  0
  5 12  1  0
 10 21  1  0
 25 15  2  0
M  END
>  <Classification>  (8) 
0

>  <pchembl>  (8) 
4.07

>  <InChI_steorem>  (8) 
InChI=1S/C23H27FN2O/c1-3-26(4-2)23(27)19-10-8-17(9-11-19)22(18-12-14-25-15-13-18)20-6-5-7-21(24)16-20/h5-11,16,25H,3-4,12-15H2,1-2H3

>  <source>  (8) 
ChEMBL25

>  <source_id>  (8) 
25

>  <optional_reference>  (8) 
10.1124/dmd.112.047068

>  <optional_origin>  (8) 
None

>  <target>  (8) 
BSEP

$$$$

     RDKit          2D

 19 21  0  0  0  0  0  0  0  0999 V2000
    3.6500   -2.7042    0.0000 C   0  0  0  0  0  0  0  0  0  0  0  0
    2.8375   -2.5667    0.0000 C   0  0  0  0  0  0  0  0  0  0  0  0
    2.3167   -3.2000    0.0000 C   0  0  0  0  0  0  0  0  0  0  0  0
    3.9375   -3.4667    0.0000 C   0  0  0  0  0  0  0  0  0  0  0  0
    6.3667   -0.8542    0.0000 C   0  0  0  0  0  0  0  0  0  0  0  0
    1.5542   -2.9000    0.0000 O   0  0  0  0  0  0  0  0  0  0  0  0
    4.2875   -2.1917    0.0000 C   0  0  0  0  0  0  0  0  0  0  0  0
    6.3292   -0.0292    0.0000 O   0  0  0  0  0  0  0  0  0  0  0  0
    2.6000   -3.9667    0.0000 C   0  0  0  0  0  0  0  0  0  0  0  0
    3.4125   -4.1042    0.0000 C   0  0  0  0  0  0  0  0  0  0  0  0
    4.7500   -3.4292    0.0000 C   0  0  0  0  0  0  0  0  0  0  0  0
    4.9667   -2.6417    0.0000 C   0  0  0  0  0  0  0  0  0  0  0  0
    5.6750   -1.3042    0.0000 N   0  0  0  0  0  0  0  0  0  0  0  0
    1.6042   -2.0792    0.0000 C   0  0  0  0  0  0  0  0  0  0  0  0
    2.3917   -1.8750    0.0000 C   0  0  0  0  0  0  0  0  0  0  0  0
    4.9417   -0.9250    0.0000 C   0  0  0  0  0  0  0  0  0  0  0  0
    7.1042   -1.2375    0.0000 C   0  0  0  0  0  0  0  0  0  0  0  0
    4.2500   -1.3667    0.0000 C   0  0  0  0  0  0  0  0  0  0  0  0
    7.7917   -0.7917    0.0000 C   0  0  0  0  0  0  0  0  0  0  0  0
  2  1  1  0
  3  2  2  0
  4  1  2  0
  5 13  1  0
  6  3  1  0
  7  1  1  0
  8  5  2  0
  9 10  2  0
 10  4  1  0
 11  4  1  0
 12  7  1  0
 13 16  1  0
 14 15  1  0
 15  2  1  0
 16 18  1  0
 17  5  1  0
  7 18  1  0
 19 17  1  0
 12 11  1  0
  9  3  1  0
  6 14  1  0
M  END
>  <Classification>  (9) 
0

>  <pchembl>  (9) 
4.07

>  <InChI_steorem>  (9) 
InChI=1S/C16H21NO2/c1-2-15(18)17-9-7-12-4-3-11-5-6-14-13(16(11)12)8-10-19-14/h5-6,12H,2-4,7-10H2,1H3,(H,17,18)

>  <source>  (9) 
ChEMBL25

>  <source_id>  (9) 
25

>  <optional_reference>  (9) 
10.1124/dmd.112.047068

>  <optional_origin>  (9) 
None

>  <target>  (9) 
BSEP

$$$$

     RDKit          2D

 32 35  0  0  0  0  0  0  0  0999 V2000
   -0.6958   -0.0875    0.0000 N   0  0  0  0  0  0  0  0  0  0  0  0
   -0.8083   -0.9042    0.0000 C   0  0  0  0  0  0  0  0  0  0  0  0
   -1.4083    0.3708    0.0000 C   0  0  0  0  0  0  0  0  0  0  0  0
   -1.4083    1.2000    0.0000 C   0  0  0  0  0  0  0  0  0  0  0  0
    2.5542   -2.6417    0.0000 C   0  0  0  0  0  0  0  0  0  0  0  0
   -0.1583   -1.4167    0.0000 C   0  0  0  0  0  0  0  0  0  0  0  0
    1.7917   -2.9500    0.0000 N   0  0  0  0  0  0  0  0  0  0  0  0
    0.6042   -1.1042    0.0000 C   0  0  0  0  0  0  0  0  0  0  0  0
    3.2042   -3.1500    0.0000 C   0  0  0  0  0  0  0  0  0  0  0  0
   -2.1208   -0.0417    0.0000 C   0  0  0  0  0  0  0  0  0  0  0  0
   -0.2750   -2.2292    0.0000 C   0  0  0  0  0  0  0  0  0  0  0  0
   -2.1208    1.6125    0.0000 C   0  0  0  0  0  0  0  0  0  0  0  0
   -1.5708   -1.2125    0.0000 O   0  0  0  0  0  0  0  0  0  0  0  0
    1.1417   -2.4375    0.0000 C   0  0  0  0  0  0  0  0  0  0  0  0
    1.2542   -1.6167    0.0000 C   0  0  0  0  0  0  0  0  0  0  0  0
    2.6750   -1.8250    0.0000 O   0  0  0  0  0  0  0  0  0  0  0  0
   -0.8083    1.7625    0.0000 C   0  0  0  0  0  0  0  0  0  0  0  0
    3.9667   -2.8417    0.0000 C   0  0  0  0  0  0  0  0  0  0  0  0
    0.1250    0.1583    0.0000 C   0  0  0  0  0  0  0  0  0  0  0  0
   -2.8333    1.2000    0.0000 C   0  0  0  0  0  0  0  0  0  0  0  0
    0.3667   -2.7417    0.0000 C   0  0  0  0  0  0  0  0  0  0  0  0
   -2.8333    0.3708    0.0000 C   0  0  0  0  0  0  0  0  0  0  0  0
   -3.5458    1.6083    0.0000 Cl  0  0  0  0  0  0  0  0  0  0  0  0
   -1.0583    2.5500    0.0000 O   0  0  0  0  0  0  0  0  0  0  0  0
    0.7167   -0.2917    0.0000 C   0  0  0  0  0  0  0  0  0  0  0  0
    0.4542    0.9208    0.0000 C   0  0  0  0  0  0  0  0  0  0  0  0
    3.0875   -3.9667    0.0000 C   0  0  0  0  0  0  0  0  0  0  0  0
    0.0417    1.6333    0.0000 C   0  0  0  0  0  0  0  0  0  0  0  0
    4.0792   -2.0250    0.0000 C   0  0  0  0  0  0  0  0  0  0  0  0
    4.6167   -3.3417    0.0000 C   0  0  0  0  0  0  0  0  0  0  0  0
    3.7292   -4.4750    0.0000 C   0  0  0  0  0  0  0  0  0  0  0  0
    4.5000   -4.1667    0.0000 C   0  0  0  0  0  0  0  0  0  0  0  0
  2  1  1  0
  3  1  1  0
  4  3  1  0
  5  7  1  0
  6  2  1  0
  7 14  1  0
  8  6  2  0
  9  5  1  0
 10  3  2  0
 11  6  1  0
 12  4  2  0
 13  2  2  0
 14 21  1  0
 15  8  1  0
 16  5  2  0
 17  4  1  0
 18  9  2  0
 19  1  1  0
 20 22  2  0
 21 11  2  0
 22 10  1  0
 23 20  1  0
 24 17  1  0
 25  8  1  0
 26 19  1  0
 27  9  1  0
 28 26  1  0
 29 18  1  0
 30 18  1  0
 31 27  2  0
 32 31  1  0
 17 28  1  0
 12 20  1  0
 14 15  2  0
 30 32  2  0
M  END
>  <Classification>  (10) 
1

>  <pchembl>  (10) 
5.0

>  <InChI_steorem>  (10) 
InChI=1S/C26H25ClN2O3/c1-16-6-3-4-7-20(16)25(31)28-19-10-11-21(17(2)14-19)26(32)29-13-5-8-24(30)22-15-18(27)9-12-23(22)29/h3-4,6-7,9-12,14-15,24,30H,5,8,13H2,1-2H3,(H,28,31)

>  <source>  (10) 
ChEMBL25

>  <source_id>  (10) 
25

>  <optional_reference>  (10) 
10.1093/toxsci/kft176

>  <optional_origin>  (10) 
None

>  <target>  (10) 
BSEP

$$$$

     RDKit          2D

 22 24  0  0  0  0  0  0  0  0999 V2000
   -2.8692   -3.5994    0.0000 C   0  0  0  0  0  0  0  0  0  0  0  0
   -2.8703   -4.4265    0.0000 C   0  0  0  0  0  0  0  0  0  0  0  0
   -2.1560   -4.8394    0.0000 C   0  0  0  0  0  0  0  0  0  0  0  0
   -2.1577   -3.1867    0.0000 C   0  0  0  0  0  0  0  0  0  0  0  0
   -1.4429   -3.5960    0.0000 C   0  0  0  0  0  0  0  0  0  0  0  0
   -1.4382   -4.4266    0.0000 C   0  0  0  0  0  0  0  0  0  0  0  0
   -0.6468   -4.6789    0.0000 N   0  0  0  0  0  0  0  0  0  0  0  0
   -0.1623   -4.0041    0.0000 C   0  0  0  0  0  0  0  0  0  0  0  0
   -0.6544   -3.3350    0.0000 C   0  0  0  0  0  0  0  0  0  0  0  0
    0.6626   -3.9995    0.0000 C   0  0  0  0  0  0  0  0  0  0  0  0
    1.0791   -4.7115    0.0000 O   0  0  0  0  0  0  0  0  0  0  0  0
    1.0710   -3.2827    0.0000 O   0  0  0  0  0  0  0  0  0  0  0  0
   -0.3875   -5.4620    0.0000 C   0  0  0  0  0  0  0  0  0  0  0  0
   -0.9361   -6.0781    0.0000 C   0  0  0  0  0  0  0  0  0  0  0  0
   -1.7441   -5.9064    0.0000 C   0  0  0  0  0  0  0  0  0  0  0  0
   -2.2924   -6.5217    0.0000 C   0  0  0  0  0  0  0  0  0  0  0  0
   -2.0332   -7.3059    0.0000 C   0  0  0  0  0  0  0  0  0  0  0  0
   -1.2206   -7.4711    0.0000 C   0  0  0  0  0  0  0  0  0  0  0  0
   -0.6759   -6.8544    0.0000 C   0  0  0  0  0  0  0  0  0  0  0  0
   -3.1002   -6.3543    0.0000 Cl  0  0  0  0  0  0  0  0  0  0  0  0
   -2.5809   -7.9227    0.0000 Cl  0  0  0  0  0  0  0  0  0  0  0  0
   -3.5838   -3.1871    0.0000 O   0  0  0  0  0  0  0  0  0  0  0  0
  5  6  1  0
 10 11  1  0
 10 12  2  0
  2  3  1  0
  7 13  1  0
  3  6  2  0
 13 14  1  0
  1  2  2  0
 14 15  2  0
  5  4  2  0
 15 16  1  0
  6  7  1  0
 16 17  2  0
  7  8  1  0
 17 18  1  0
  8  9  2  0
 18 19  2  0
 19 14  1  0
  9  5  1  0
 16 20  1  0
  4  1  1  0
 17 21  1  0
  8 10  1  0
  1 22  1  0
M  END
>  <Classification>  (11) 
0

>  <pchembl>  (11) 
4.3

>  <InChI_steorem>  (11) 
InChI=1S/C16H11Cl2NO3/c17-12-3-1-9(5-13(12)18)8-19-14-4-2-11(20)6-10(14)7-15(19)16(21)22/h1-7,20H,8H2,(H,21,22)

>  <source>  (11) 
ChEMBL25

>  <source_id>  (11) 
25

>  <optional_reference>  (11) 
10.1124/dmd.112.047068

>  <optional_origin>  (11) 
None

>  <target>  (11) 
BSEP

$$$$

     RDKit          2D

 31 33  0  0  0  0  0  0  0  0999 V2000
    3.4542   -5.5959    0.0000 N   0  0  0  0  0  0  0  0  0  0  0  0
    3.4542   -6.4209    0.0000 C   0  0  0  0  0  0  0  0  0  0  0  0
    4.1662   -6.8292    0.0000 N   0  0  0  0  0  0  0  0  0  0  0  0
    4.1662   -5.1792    0.0000 C   0  0  0  0  0  0  0  0  0  0  0  0
    5.6626   -5.3412    0.0000 C   0  0  0  0  0  0  0  0  0  0  0  0
    4.8782   -5.5959    0.0000 C   0  0  0  0  0  0  0  0  0  0  0  0
    4.8792   -6.4212    0.0000 C   0  0  0  0  0  0  0  0  0  0  0  0
    5.6651   -6.6740    0.0000 S   0  0  0  0  0  0  0  0  0  0  0  0
    6.1471   -6.0040    0.0000 C   0  0  0  0  0  0  0  0  0  0  0  0
    4.1662   -4.3542    0.0000 O   0  0  0  0  0  0  0  0  0  0  0  0
    2.7403   -6.8344    0.0000 O   0  0  0  0  0  0  0  0  0  0  0  0
    2.7385   -5.1855    0.0000 C   0  0  0  0  0  0  0  0  0  0  0  0
    5.9165   -4.5562    0.0000 C   0  0  0  0  0  0  0  0  0  0  0  0
    6.7232   -4.3836    0.0000 N   0  0  0  0  0  0  0  0  0  0  0  0
    5.3636   -3.9439    0.0000 O   0  0  0  0  0  0  0  0  0  0  0  0
    4.1834   -7.6496    0.0000 C   0  0  0  0  0  0  0  0  0  0  0  0
    3.4798   -8.0804    0.0000 C   0  0  0  0  0  0  0  0  0  0  0  0
    2.7550   -7.6865    0.0000 C   0  0  0  0  0  0  0  0  0  0  0  0
    3.5010   -8.9051    0.0000 C   0  0  0  0  0  0  0  0  0  0  0  0
    6.9771   -3.5986    0.0000 C   0  0  0  0  0  0  0  0  0  0  0  0
    7.2761   -4.9959    0.0000 O   0  0  0  0  0  0  0  0  0  0  0  0
    8.0828   -4.8233    0.0000 C   0  0  0  0  0  0  0  0  0  0  0  0
    6.9721   -6.0009    0.0000 C   0  0  0  0  0  0  0  0  0  0  0  0
    7.3874   -6.7133    0.0000 N   0  0  0  0  0  0  0  0  0  0  0  0
    7.1339   -7.5019    0.0000 C   0  0  0  0  0  0  0  0  0  0  0  0
    7.8065   -7.9811    0.0000 N   0  0  0  0  0  0  0  0  0  0  0  0
    8.4696   -7.4886    0.0000 C   0  0  0  0  0  0  0  0  0  0  0  0
    8.2047   -6.7060    0.0000 C   0  0  0  0  0  0  0  0  0  0  0  0
    6.3352   -7.7087    0.0000 C   0  0  0  0  0  0  0  0  0  0  0  0
    8.6634   -6.0202    0.0000 Cl  0  0  0  0  0  0  0  0  0  0  0  0
    9.2290   -7.8108    0.0000 Cl  0  0  0  0  0  0  0  0  0  0  0  0
 13 15  2  0
  3  7  1  0
  3 16  1  0
  5  6  1  0
 16 17  1  0
  7  8  1  0
 17 18  1  0
  8  9  1  0
 17 19  1  0
  9  5  2  0
 14 20  1  0
  6  4  1  0
 14 21  1  0
  4 10  2  0
 21 22  1  0
  6  7  2  0
  9 23  1  0
  2 11  2  0
 23 24  1  0
 25 26  2  0
  1 12  1  0
  1  2  1  0
  5 13  1  0
 24 25  1  0
 26 27  1  0
 27 28  2  0
 28 24  1  0
  1  4  1  0
 25 29  1  0
 13 14  1  0
 28 30  1  0
  2  3  1  0
 27 31  1  0
M  END
>  <Classification>  (12) 
0

>  <pchembl>  (12) 
4.79

>  <InChI_steorem>  (12) 
InChI=1S/C19H23Cl2N5O4S/c1-9(2)7-26-18-13(16(27)23(4)19(26)29)12(17(28)24(5)30-6)11(31-18)8-25-10(3)22-14(20)15(25)21/h9H,7-8H2,1-6H3

>  <source>  (12) 
ChEMBL25

>  <source_id>  (12) 
25

>  <optional_reference>  (12) 
10.1124/dmd.112.047068

>  <optional_origin>  (12) 
None

>  <target>  (12) 
BSEP

$$$$

     RDKit          2D

 39 41  0  0  0  0  0  0  0  0999 V2000
    3.0667   -6.1125    0.0000 C   0  0  0  0  0  0  0  0  0  0  0  0
    3.5542   -6.7792    0.0000 C   0  0  0  0  0  0  0  0  0  0  0  0
    2.2792   -6.3667    0.0000 C   0  0  0  0  0  0  0  0  0  0  0  0
   -0.5750   -6.3667    0.0000 S   0  0  0  0  0  0  0  0  0  0  0  0
    3.0667   -7.4417    0.0000 O   0  0  0  0  0  0  0  0  0  0  0  0
    3.3167   -5.3292    0.0000 C   0  0  0  0  0  0  0  0  0  0  0  0
    2.2792   -7.1917    0.0000 C   0  0  0  0  0  0  0  0  0  0  0  0
    0.1375   -5.9542    0.0000 N   0  0  0  0  0  0  0  0  0  0  0  0
    1.5667   -5.9542    0.0000 C   0  0  0  0  0  0  0  0  0  0  0  0
    4.1292   -5.1542    0.0000 C   0  0  0  0  0  0  0  0  0  0  0  0
   -0.9875   -5.6542    0.0000 O   0  0  0  0  0  0  0  0  0  0  0  0
   -0.1625   -7.0792    0.0000 O   0  0  0  0  0  0  0  0  0  0  0  0
    0.8542   -6.3667    0.0000 C   0  0  0  0  0  0  0  0  0  0  0  0
    2.7667   -4.7167    0.0000 O   0  0  0  0  0  0  0  0  0  0  0  0
    1.5667   -7.6042    0.0000 C   0  0  0  0  0  0  0  0  0  0  0  0
    4.6792   -5.7667    0.0000 C   0  0  0  0  0  0  0  0  0  0  0  0
    4.3792   -4.3667    0.0000 C   0  0  0  0  0  0  0  0  0  0  0  0
   -1.2958   -6.7792    0.0000 C   0  0  0  0  0  0  0  0  0  0  0  0
    0.8542   -7.1917    0.0000 C   0  0  0  0  0  0  0  0  0  0  0  0
    4.3500   -6.5667    0.0000 C   0  0  0  0  0  0  0  0  0  0  0  0
    9.0417   -3.3792    0.0000 N   0  0  0  0  0  0  0  0  0  0  0  0
    5.7417   -4.8125    0.0000 C   0  0  0  0  0  0  0  0  0  0  0  0
    5.1917   -4.1917    0.0000 C   0  0  0  0  0  0  0  0  0  0  0  0
    5.4875   -5.6000    0.0000 C   0  0  0  0  0  0  0  0  0  0  0  0
    7.8042   -4.1000    0.0000 C   0  0  0  0  0  0  0  0  0  0  0  0
    6.5667   -4.8125    0.0000 O   0  0  0  0  0  0  0  0  0  0  0  0
    8.2167   -3.3792    0.0000 C   0  0  0  0  0  0  0  0  0  0  0  0
    6.9792   -4.1000    0.0000 C   0  0  0  0  0  0  0  0  0  0  0  0
    9.4542   -2.6667    0.0000 C   0  0  0  0  0  0  0  0  0  0  0  0
    9.4542   -4.1000    0.0000 C   0  0  0  0  0  0  0  0  0  0  0  0
    4.9292   -7.1500    0.0000 C   0  0  0  0  0  0  0  0  0  0  0  0
   10.2792   -2.6667    0.0000 C   0  0  0  0  0  0  0  0  0  0  0  0
   10.2792   -4.1000    0.0000 C   0  0  0  0  0  0  0  0  0  0  0  0
   10.6917   -4.8125    0.0000 C   0  0  0  0  0  0  0  0  0  0  0  0
    5.7292   -6.9375    0.0000 C   0  0  0  0  0  0  0  0  0  0  0  0
   10.6917   -1.9542    0.0000 C   0  0  0  0  0  0  0  0  0  0  0  0
   11.5167   -4.8125    0.0000 C   0  0  0  0  0  0  0  0  0  0  0  0
   11.5167   -1.9542    0.0000 C   0  0  0  0  0  0  0  0  0  0  0  0
    6.3125   -7.5167    0.0000 C   0  0  0  0  0  0  0  0  0  0  0  0
  2  1  2  0
  3  1  1  0
  4  8  1  0
  5  2  1  0
  6  1  1  0
  7  3  2  0
  8 13  1  0
  9  3  1  0
 10  6  1  0
 11  4  2  0
 12  4  2  0
 13  9  2  0
 14  6  2  0
 15  7  1  0
 16 10  2  0
 17 10  1  0
 18  4  1  0
 19 13  1  0
 20  2  1  0
 21 27  1  0
 22 23  1  0
 23 17  2  0
 24 16  1  0
 25 28  1  0
 26 22  1  0
 27 25  1  0
 28 26  1  0
 29 21  1  0
 30 21  1  0
 31 20  1  0
 32 29  1  0
 33 30  1  0
 34 33  1  0
 35 31  1  0
 36 32  1  0
 37 34  1  0
 38 36  1  0
 39 35  1  0
  5  7  1  0
 22 24  2  0
 15 19  2  0
M  END
>  <Classification>  (13) 
0

>  <pchembl>  (13) 
4.13

>  <InChI_steorem>  (13) 
InChI=1S/C31H44N2O5S/c1-5-8-12-29-30(27-23-25(32-39(4,35)36)15-18-28(27)38-29)31(34)24-13-16-26(17-14-24)37-22-11-21-33(19-9-6-2)20-10-7-3/h13-18,23,32H,5-12,19-22H2,1-4H3

>  <source>  (13) 
ChEMBL25

>  <source_id>  (13) 
25

>  <optional_reference>  (13) 
10.1093/toxsci/kft176

>  <optional_origin>  (13) 
None

>  <target>  (13) 
BSEP

$$$$

     RDKit          2D

 31 34  0  0  0  0  0  0  0  0999 V2000
   -3.5931    0.0959    0.0000 C   0  0  0  0  0  0  0  0  0  0  0  0
   -3.5943   -0.7315    0.0000 C   0  0  0  0  0  0  0  0  0  0  0  0
   -2.8794   -1.1444    0.0000 C   0  0  0  0  0  0  0  0  0  0  0  0
   -2.8812    0.5086    0.0000 C   0  0  0  0  0  0  0  0  0  0  0  0
   -2.8837    1.3336    0.0000 C   0  0  0  0  0  0  0  0  0  0  0  0
   -4.3077    0.5082    0.0000 C   0  0  0  0  0  0  0  0  0  0  0  0
   -4.3091   -1.1434    0.0000 O   0  0  0  0  0  0  0  0  0  0  0  0
   -2.8796   -1.9694    0.0000 C   0  0  0  0  0  0  0  0  0  0  0  0
   -2.1659    0.0995    0.0000 C   0  0  0  0  0  0  0  0  0  0  0  0
   -2.1671   -0.7336    0.0000 C   0  0  0  0  0  0  0  0  0  0  0  0
   -1.4502   -1.1488    0.0000 C   0  0  0  0  0  0  0  0  0  0  0  0
   -0.7275   -0.7356    0.0000 C   0  0  0  0  0  0  0  0  0  0  0  0
   -0.7263    0.0974    0.0000 C   0  0  0  0  0  0  0  0  0  0  0  0
   -1.4478    0.5173    0.0000 O   0  0  0  0  0  0  0  0  0  0  0  0
   -0.0108    0.5082    0.0000 C   0  0  0  0  0  0  0  0  0  0  0  0
    0.7026    0.0939    0.0000 O   0  0  0  0  0  0  0  0  0  0  0  0
    1.4181    0.5047    0.0000 C   0  0  0  0  0  0  0  0  0  0  0  0
    2.1272    0.0881    0.0000 C   0  0  0  0  0  0  0  0  0  0  0  0
    2.8422    0.4981    0.0000 C   0  0  0  0  0  0  0  0  0  0  0  0
    2.8447    1.3240    0.0000 C   0  0  0  0  0  0  0  0  0  0  0  0
    2.1262    1.7381    0.0000 C   0  0  0  0  0  0  0  0  0  0  0  0
    1.4142    1.3257    0.0000 C   0  0  0  0  0  0  0  0  0  0  0  0
    3.5596    1.7357    0.0000 C   0  0  0  0  0  0  0  0  0  0  0  0
    4.2270    1.2509    0.0000 C   0  0  0  0  0  0  0  0  0  0  0  0
    4.2255    0.4290    0.0000 S   0  0  0  0  0  0  0  0  0  0  0  0
    5.0102    0.1743    0.0000 C   0  0  0  0  0  0  0  0  0  0  0  0
    5.4950    0.8419    0.0000 N   0  0  0  0  0  0  0  0  0  0  0  0
    5.0098    1.5091    0.0000 C   0  0  0  0  0  0  0  0  0  0  0  0
    5.2654   -0.6103    0.0000 O   0  0  0  0  0  0  0  0  0  0  0  0
    5.2628    2.2944    0.0000 O   0  0  0  0  0  0  0  0  0  0  0  0
   -0.0167   -0.3125    0.0000 C   0  0  0  0  0  0  0  0  0  0  0  0
 13 15  1  0
  2  7  1  0
 15 16  1  0
  1  2  2  0
 16 17  1  0
  3  8  1  0
 17 18  2  0
  9 10  1  0
 18 19  1  0
  9  4  2  0
 19 20  2  0
  4  1  1  0
 20 21  1  0
 21 22  2  0
 22 17  1  0
  4  5  1  0
 20 23  1  0
  2  3  1  0
 23 24  1  0
 24 25  1  0
  1  6  1  0
  9 14  1  0
 10 11  1  0
 11 12  1  0
 25 26  1  0
 26 27  1  0
 27 28  1  0
 28 24  1  0
 12 13  1  0
 26 29  2  0
 13 14  1  0
 28 30  2  0
  3 10  2  0
 13 31  1  0
M  END
>  <Classification>  (14) 
0

>  <pchembl>  (14) 
4.18

>  <InChI_steorem>  (14) 
InChI=1S/C24H27NO5S/c1-13-14(2)21-18(15(3)20(13)26)9-10-24(4,30-21)12-29-17-7-5-16(6-8-17)11-19-22(27)25-23(28)31-19/h5-8,19,26H,9-12H2,1-4H3,(H,25,27,28)

>  <source>  (14) 
ChEMBL25

>  <source_id>  (14) 
25

>  <optional_reference>  (14) 
10.1023/a:1023278211849

>  <optional_origin>  (14) 
None

>  <target>  (14) 
BSEP

$$$$

     RDKit          2D

 27 30  0  0  0  0  0  0  0  0999 V2000
   -0.4125   -0.2708    0.0000 C   0  0  0  0  0  0  0  0  0  0  0  0
   -0.4125   -1.0958    0.0000 C   0  0  0  0  0  0  0  0  0  0  0  0
    0.2995   -1.5042    0.0000 C   0  0  0  0  0  0  0  0  0  0  0  0
    0.2995    0.1458    0.0000 C   0  0  0  0  0  0  0  0  0  0  0  0
    1.0115   -0.2708    0.0000 C   0  0  0  0  0  0  0  0  0  0  0  0
    1.0080   -1.0958    0.0000 C   0  0  0  0  0  0  0  0  0  0  0  0
    1.7168   -1.5091    0.0000 C   0  0  0  0  0  0  0  0  0  0  0  0
    2.4336   -1.1019    0.0000 C   0  0  0  0  0  0  0  0  0  0  0  0
    1.7238    0.1409    0.0000 C   0  0  0  0  0  0  0  0  0  0  0  0
    2.4371   -0.2817    0.0000 C   0  0  0  0  0  0  0  0  0  0  0  0
    2.4542    1.3736    0.0000 C   0  0  0  0  0  0  0  0  0  0  0  0
    1.7292    0.9678    0.0000 C   0  0  0  0  0  0  0  0  0  0  0  0
    3.1675    0.9509    0.0000 C   0  0  0  0  0  0  0  0  0  0  0  0
    3.1541    0.1244    0.0000 C   0  0  0  0  0  0  0  0  0  0  0  0
    3.9360   -0.1438    0.0000 C   0  0  0  0  0  0  0  0  0  0  0  0
    4.4328    0.5170    0.0000 C   0  0  0  0  0  0  0  0  0  0  0  0
    3.9577    1.1935    0.0000 C   0  0  0  0  0  0  0  0  0  0  0  0
    5.2577    0.5036    0.0000 C   0  0  0  0  0  0  0  0  0  0  0  0
   -1.1264   -1.5094    0.0000 O   0  0  0  0  0  0  0  0  0  0  0  0
    1.0042    0.5542    0.0000 C   0  0  0  0  0  0  0  0  0  0  0  0
    1.7167   -0.6833    0.0000 F   0  0  0  0  0  0  0  0  0  0  0  0
    1.0188    1.3873    0.0000 O   0  0  0  0  0  0  0  0  0  0  0  0
    3.1625    1.7792    0.0000 C   0  0  0  0  0  0  0  0  0  0  0  0
    4.2254    1.9738    0.0000 C   0  0  0  0  0  0  0  0  0  0  0  0
    5.0350    2.1323    0.0000 C   0  0  0  0  0  0  0  0  0  0  0  0
    3.6834    2.5958    0.0000 O   0  0  0  0  0  0  0  0  0  0  0  0
    5.5770    1.5103    0.0000 O   0  0  0  0  0  0  0  0  0  0  0  0
  1  2  1  0
  1  4  2  0
  2  3  1  0
  5  9  1  0
  6  7  1  0
 14 15  1  0
 15 16  1  0
 16 17  1  0
 17 13  1  0
  7  8  1  0
 16 18  1  0
  8 10  1  0
  2 19  2  0
  9 10  1  0
  5 20  1  0
  3  6  2  0
  9 21  1  0
  5  4  1  0
  5  6  1  0
 12 22  1  0
 13 23  1  0
  9 12  1  0
 10 14  1  0
 17 24  1  0
 13 11  1  0
 24 25  1  0
 11 12  1  0
 24 26  2  0
 13 14  1  0
 25 27  1  0
M  END
>  <Classification>  (15) 
0

>  <pchembl>  (15) 
4.79

>  <InChI_steorem>  (15) 
InChI=1S/C22H29FO4/c1-12-8-16-15-5-4-13-9-14(25)6-7-21(13,3)22(15,23)18(27)10-20(16,2)19(12)17(26)11-24/h6-7,9,12,15-16,18-19,24,27H,4-5,8,10-11H2,1-3H3

>  <source>  (15) 
ChEMBL25

>  <source_id>  (15) 
25

>  <optional_reference>  (15) 
10.1124/dmd.112.047068

>  <optional_origin>  (15) 
None

>  <target>  (15) 
BSEP

$$$$

     RDKit          2D

 28 31  0  0  0  0  0  0  0  0999 V2000
   15.9699    0.2997    0.0000 N   0  0  0  0  0  0  0  0  0  0  0  0
   15.1458    0.2997    0.0000 N   0  0  0  0  0  0  0  0  0  0  0  0
   14.8893   -0.4836    0.0000 C   0  0  0  0  0  0  0  0  0  0  0  0
   15.5579   -0.9697    0.0000 N   0  0  0  0  0  0  0  0  0  0  0  0
   16.2220   -0.4841    0.0000 C   0  0  0  0  0  0  0  0  0  0  0  0
   16.3778    1.0197    0.0000 C   0  0  0  0  0  0  0  0  0  0  0  0
   17.2064    1.0238    0.0000 C   0  0  0  0  0  0  0  0  0  0  0  0
   17.6141    1.7429    0.0000 C   0  0  0  0  0  0  0  0  0  0  0  0
   17.1945    2.4571    0.0000 C   0  0  0  0  0  0  0  0  0  0  0  0
   16.3628    2.4476    0.0000 C   0  0  0  0  0  0  0  0  0  0  0  0
   15.9588    1.7279    0.0000 C   0  0  0  0  0  0  0  0  0  0  0  0
   17.5998    3.1761    0.0000 C   0  0  0  0  0  0  0  0  0  0  0  0
   18.4238    3.1839    0.0000 O   0  0  0  0  0  0  0  0  0  0  0  0
   17.1809    3.8858    0.0000 O   0  0  0  0  0  0  0  0  0  0  0  0
   16.9291   -0.9041    0.0000 C   0  0  0  0  0  0  0  0  0  0  0  0
   16.9171   -1.7292    0.0000 C   0  0  0  0  0  0  0  0  0  0  0  0
   17.6245   -2.1503    0.0000 C   0  0  0  0  0  0  0  0  0  0  0  0
   18.3445   -1.7476    0.0000 C   0  0  0  0  0  0  0  0  0  0  0  0
   18.3525   -0.9192    0.0000 C   0  0  0  0  0  0  0  0  0  0  0  0
   17.6444   -0.5017    0.0000 C   0  0  0  0  0  0  0  0  0  0  0  0
   14.1788   -0.8976    0.0000 C   0  0  0  0  0  0  0  0  0  0  0  0
   13.4629   -0.4871    0.0000 C   0  0  0  0  0  0  0  0  0  0  0  0
   12.7516   -0.9017    0.0000 C   0  0  0  0  0  0  0  0  0  0  0  0
   12.7550   -1.7267    0.0000 C   0  0  0  0  0  0  0  0  0  0  0  0
   13.4756   -2.1353    0.0000 C   0  0  0  0  0  0  0  0  0  0  0  0
   14.1839   -1.7183    0.0000 C   0  0  0  0  0  0  0  0  0  0  0  0
   14.9006   -2.1251    0.0000 O   0  0  0  0  0  0  0  0  0  0  0  0
   16.1977   -2.1313    0.0000 O   0  0  0  0  0  0  0  0  0  0  0  0
 12 14  2  0
  9 12  1  0
  6  7  2  0
  2  3  2  0
 15 16  2  0
  7  8  1  0
 16 17  1  0
  3  4  1  0
 17 18  2  0
  8  9  2  0
 18 19  1  0
  4  5  2  0
 19 20  2  0
 20 15  1  0
  5 15  1  0
  9 10  1  0
  5  1  1  0
 21 22  2  0
 10 11  2  0
 22 23  1  0
 11  6  1  0
 23 24  2  0
  1  2  1  0
 24 25  1  0
  1  6  1  0
 25 26  2  0
 26 21  1  0
  3 21  1  0
 26 27  1  0
 12 13  1  0
 16 28  1  0
M  END
>  <Classification>  (16) 
0

>  <pchembl>  (16) 
4.23

>  <InChI_steorem>  (16) 
InChI=1S/C21H15N3O4/c25-17-7-3-1-5-15(17)19-22-20(16-6-2-4-8-18(16)26)24(23-19)14-11-9-13(10-12-14)21(27)28/h1-12,25-26H,(H,27,28)

>  <source>  (16) 
ChEMBL25

>  <source_id>  (16) 
25

>  <optional_reference>  (16) 
10.1093/toxsci/kft176

>  <optional_origin>  (16) 
None

>  <target>  (16) 
BSEP

$$$$

     RDKit          2D

 12 11  0  0  0  0  0  0  0  0999 V2000
   -1.2610   -6.2383    0.0000 N   0  0  0  0  0  0  0  0  0  0  0  0
   -0.5368   -5.8430    0.0000 C   0  0  0  0  0  0  0  0  0  0  0  0
   -1.2610   -7.0623    0.0000 N   0  0  0  0  0  0  0  0  0  0  0  0
   -0.5368   -5.0147    0.0000 O   0  0  0  0  0  0  0  0  0  0  0  0
   -0.5535   -7.5035    0.0000 O   0  0  0  0  0  0  0  0  0  0  0  0
    0.1873   -6.2467    0.0000 N   0  0  0  0  0  0  0  0  0  0  0  0
   -1.9810   -5.8430    0.0000 C   0  0  0  0  0  0  0  0  0  0  0  0
   -3.4250   -5.8263    0.0000 Cl  0  0  0  0  0  0  0  0  0  0  0  0
    2.3596   -5.8762    0.0000 Cl  0  0  0  0  0  0  0  0  0  0  0  0
   -2.7050   -6.2342    0.0000 C   0  0  0  0  0  0  0  0  0  0  0  0
    0.9156   -5.8638    0.0000 C   0  0  0  0  0  0  0  0  0  0  0  0
    1.6355   -6.2675    0.0000 C   0  0  0  0  0  0  0  0  0  0  0  0
  2  1  1  0
  3  1  1  0
  4  2  2  0
  5  3  2  0
  6  2  1  0
  7  1  1  0
  8 10  1  0
  9 12  1  0
 10  7  1  0
 11  6  1  0
 12 11  1  0
M  END
>  <Classification>  (17) 
0

>  <pchembl>  (17) 
4.01

>  <InChI_steorem>  (17) 
InChI=1S/C5H9Cl2N3O2/c6-1-3-8-5(11)10(9-12)4-2-7/h1-4H2,(H,8,11)

>  <source>  (17) 
ChEMBL25

>  <source_id>  (17) 
25

>  <optional_reference>  (17) 
10.1124/dmd.112.047068

>  <optional_origin>  (17) 
None

>  <target>  (17) 
BSEP

$$$$

     RDKit          2D

 23 26  0  0  0  0  0  0  0  0999 V2000
   -1.4800  -16.4721    0.0000 N   0  0  0  0  0  0  0  0  0  0  0  0
   -2.9098  -17.2943    0.0000 N   0  0  0  0  0  0  0  0  0  0  0  0
   -2.9052  -16.4630    0.0000 C   0  0  0  0  0  0  0  0  0  0  0  0
   -2.1972  -17.7054    0.0000 C   0  0  0  0  0  0  0  0  0  0  0  0
   -0.7583  -16.0609    0.0000 C   0  0  0  0  0  0  0  0  0  0  0  0
   -2.1926  -16.0518    0.0000 C   0  0  0  0  0  0  0  0  0  0  0  0
   -1.4800  -17.2989    0.0000 C   0  0  0  0  0  0  0  0  0  0  0  0
   -3.6178  -16.0472    0.0000 C   0  0  0  0  0  0  0  0  0  0  0  0
   -3.6178  -17.6963    0.0000 C   0  0  0  0  0  0  0  0  0  0  0  0
   -2.2063  -18.5322    0.0000 O   0  0  0  0  0  0  0  0  0  0  0  0
   -4.3304  -16.4630    0.0000 C   0  0  0  0  0  0  0  0  0  0  0  0
   -0.7537  -15.2296    0.0000 O   0  0  0  0  0  0  0  0  0  0  0  0
   -4.3304  -17.2943    0.0000 C   0  0  0  0  0  0  0  0  0  0  0  0
   -0.0457  -16.4767    0.0000 C   0  0  0  0  0  0  0  0  0  0  0  0
   -3.6224  -15.2159    0.0000 C   0  0  0  0  0  0  0  0  0  0  0  0
   -5.0476  -16.0609    0.0000 C   0  0  0  0  0  0  0  0  0  0  0  0
    0.6669  -16.0656    0.0000 C   0  0  0  0  0  0  0  0  0  0  0  0
   -0.0548  -17.3080    0.0000 C   0  0  0  0  0  0  0  0  0  0  0  0
   -4.3441  -14.8139    0.0000 C   0  0  0  0  0  0  0  0  0  0  0  0
   -5.0567  -15.2387    0.0000 C   0  0  0  0  0  0  0  0  0  0  0  0
    0.6532  -17.7237    0.0000 C   0  0  0  0  0  0  0  0  0  0  0  0
    1.3795  -16.4904    0.0000 C   0  0  0  0  0  0  0  0  0  0  0  0
    1.3704  -17.3126    0.0000 C   0  0  0  0  0  0  0  0  0  0  0  0
  2  4  1  0
  3  6  1  0
  4  7  1  0
  5  1  1  0
  6  1  1  0
  7  1  1  0
  8  3  1  0
  9  2  1  0
 10  4  2  0
 11  8  2  0
 12  5  2  0
 13  9  1  0
 14  5  1  0
 15  8  1  0
 16 11  1  0
 17 14  1  0
 18 14  1  0
 19 15  2  0
 20 19  1  0
 21 18  1  0
 22 17  1  0
 23 21  1  0
  3  2  1  0
 11 13  1  0
 22 23  1  0
 16 20  2  0
M  END
>  <Classification>  (18) 
0

>  <pchembl>  (18) 
4.01

>  <InChI_steorem>  (18) 
InChI=1S/C19H24N2O2/c22-18-13-20(19(23)15-7-2-1-3-8-15)12-17-16-9-5-4-6-14(16)10-11-21(17)18/h4-6,9,15,17H,1-3,7-8,10-13H2

>  <source>  (18) 
ChEMBL25

>  <source_id>  (18) 
25

>  <optional_reference>  (18) 
10.1124/dmd.111.040758

>  <optional_origin>  (18) 
None

>  <target>  (18) 
BSEP

$$$$

     RDKit          2D

 25 26  0  0  0  0  0  0  0  0999 V2000
   16.3412  -22.7134    0.0000 C   0  0  0  0  0  0  0  0  0  0  0  0
   15.6332  -21.4814    0.0000 C   0  0  0  0  0  0  0  0  0  0  0  0
   15.6332  -22.3028    0.0000 C   0  0  0  0  0  0  0  0  0  0  0  0
   17.0540  -22.3028    0.0000 C   0  0  0  0  0  0  0  0  0  0  0  0
   16.3412  -21.0660    0.0000 C   0  0  0  0  0  0  0  0  0  0  0  0
   17.0540  -21.4814    0.0000 N   0  0  0  0  0  0  0  0  0  0  0  0
   14.4649  -22.9204    0.0000 C   0  0  0  0  0  0  0  0  0  0  0  0
   14.9110  -21.0660    0.0000 C   0  0  0  0  0  0  0  0  0  0  0  0
   16.3412  -23.5441    0.0000 C   0  0  0  0  0  0  0  0  0  0  0  0
   14.4296  -23.7400    0.0000 C   0  0  0  0  0  0  0  0  0  0  0  0
   13.7012  -24.1257    0.0000 C   0  0  0  0  0  0  0  0  0  0  0  0
   14.9110  -20.2401    0.0000 O   0  0  0  0  0  0  0  0  0  0  0  0
   15.6332  -23.9501    0.0000 O   0  0  0  0  0  0  0  0  0  0  0  0
   15.2240  -24.4600    0.0000 Cl  0  0  0  0  0  0  0  0  0  0  0  0
   14.1982  -21.4814    0.0000 O   0  0  0  0  0  0  0  0  0  0  0  0
   17.0540  -23.9501    0.0000 O   0  0  0  0  0  0  0  0  0  0  0  0
   13.7617  -22.4833    0.0000 C   0  0  0  0  0  0  0  0  0  0  0  0
   17.7714  -22.7134    0.0000 C   0  0  0  0  0  0  0  0  0  0  0  0
   16.3412  -20.2401    0.0000 C   0  0  0  0  0  0  0  0  0  0  0  0
   13.6719  -24.9540    0.0000 Cl  0  0  0  0  0  0  0  0  0  0  0  0
   13.0321  -22.8598    0.0000 C   0  0  0  0  0  0  0  0  0  0  0  0
   13.0027  -23.6880    0.0000 C   0  0  0  0  0  0  0  0  0  0  0  0
   17.0540  -24.7761    0.0000 C   0  0  0  0  0  0  0  0  0  0  0  0
   16.3412  -25.1915    0.0000 C   0  0  0  0  0  0  0  0  0  0  0  0
   13.4607  -21.0596    0.0000 C   0  0  0  0  0  0  0  0  0  0  0  0
  2  3  1  0
  3  1  1  0
  4  1  2  0
  5  2  2  0
  6  4  1  0
  7  3  1  0
  8  2  1  0
  9  1  1  0
 10  7  2  0
 11 10  1  0
 12  8  2  0
 13  9  2  0
 14 10  1  0
 15  8  1  0
 16  9  1  0
 17  7  1  0
 18  4  1  0
 19  5  1  0
 20 11  1  0
 21 17  2  0
 22 21  1  0
 23 16  1  0
 24 23  1  0
  6  5  1  0
 22 11  2  0
 15 25  1  0
M  END
>  <Classification>  (19) 
0

>  <pchembl>  (19) 
4.16

>  <InChI_steorem>  (19) 
InChI=1S/C18H19Cl2NO4/c1-5-25-18(23)14-10(3)21-9(2)13(17(22)24-4)15(14)11-7-6-8-12(19)16(11)20/h6-8,15,21H,5H2,1-4H3

>  <source>  (19) 
ChEMBL25

>  <source_id>  (19) 
25

>  <optional_reference>  (19) 
10.1093/toxsci/kft176

>  <optional_origin>  (19) 
None

>  <target>  (19) 
BSEP

$$$$

     RDKit          2D

 39 44  0  0  0  0  0  0  0  0999 V2000
   -1.3201  -14.2961    0.0000 C   0  0  0  0  0  0  0  0  0  0  0  0
    1.2972  -12.9760    0.0000 N   0  0  0  0  0  0  0  0  0  0  0  0
    1.9480  -14.1311    0.0000 N   0  0  0  0  0  0  0  0  0  0  0  0
   -1.8151  -13.6223    0.0000 N   0  0  0  0  0  0  0  0  0  0  0  0
   -1.8151  -14.9698    0.0000 N   0  0  0  0  0  0  0  0  0  0  0  0
    0.7425  -13.5856    0.0000 C   0  0  0  0  0  0  0  0  0  0  0  0
    2.0397  -13.3153    0.0000 C   0  0  0  0  0  0  0  0  0  0  0  0
    1.1459  -14.3007    0.0000 C   0  0  0  0  0  0  0  0  0  0  0  0
   -0.4950  -14.2961    0.0000 C   0  0  0  0  0  0  0  0  0  0  0  0
   -2.5989  -14.7132    0.0000 C   0  0  0  0  0  0  0  0  0  0  0  0
   -2.5989  -13.8835    0.0000 C   0  0  0  0  0  0  0  0  0  0  0  0
   -0.0871  -13.5810    0.0000 C   0  0  0  0  0  0  0  0  0  0  0  0
    2.1680   -8.7133    0.0000 C   0  0  0  0  0  0  0  0  0  0  0  0
    0.7379  -15.0157    0.0000 C   0  0  0  0  0  0  0  0  0  0  0  0
    2.5760   -9.4238    0.0000 C   0  0  0  0  0  0  0  0  0  0  0  0
    1.3429   -8.7042    0.0000 C   0  0  0  0  0  0  0  0  0  0  0  0
   -0.0871  -15.0111    0.0000 C   0  0  0  0  0  0  0  0  0  0  0  0
    0.8892  -12.2610    0.0000 C   0  0  0  0  0  0  0  0  0  0  0  0
    2.1589  -10.1342    0.0000 C   0  0  0  0  0  0  0  0  0  0  0  0
    0.9304   -9.4146    0.0000 O   0  0  0  0  0  0  0  0  0  0  0  0
    2.5622  -10.8539    0.0000 C   0  0  0  0  0  0  0  0  0  0  0  0
    1.3292  -10.1296    0.0000 C   0  0  0  0  0  0  0  0  0  0  0  0
    1.3109  -11.5505    0.0000 C   0  0  0  0  0  0  0  0  0  0  0  0
   -1.5538  -15.7536    0.0000 C   0  0  0  0  0  0  0  0  0  0  0  0
    0.9350   -7.9845    0.0000 O   0  0  0  0  0  0  0  0  0  0  0  0
    2.7593  -12.9072    0.0000 C   0  0  0  0  0  0  0  0  0  0  0  0
    0.9122  -10.8355    0.0000 C   0  0  0  0  0  0  0  0  0  0  0  0
    2.1405  -11.5597    0.0000 C   0  0  0  0  0  0  0  0  0  0  0  0
   -3.3185  -15.1257    0.0000 C   0  0  0  0  0  0  0  0  0  0  0  0
   -3.3185  -13.4710    0.0000 C   0  0  0  0  0  0  0  0  0  0  0  0
    2.5851   -7.9983    0.0000 C   0  0  0  0  0  0  0  0  0  0  0  0
    3.4055   -9.4376    0.0000 C   0  0  0  0  0  0  0  0  0  0  0  0
    1.1504  -15.7261    0.0000 C   0  0  0  0  0  0  0  0  0  0  0  0
    3.4698  -13.3290    0.0000 C   0  0  0  0  0  0  0  0  0  0  0  0
   -4.0289  -14.7132    0.0000 C   0  0  0  0  0  0  0  0  0  0  0  0
    3.4148   -8.0075    0.0000 C   0  0  0  0  0  0  0  0  0  0  0  0
    3.8181   -8.7270    0.0000 C   0  0  0  0  0  0  0  0  0  0  0  0
   -4.0289  -13.8835    0.0000 C   0  0  0  0  0  0  0  0  0  0  0  0
    4.1848  -12.9210    0.0000 C   0  0  0  0  0  0  0  0  0  0  0  0
  2  6  1  0
  3  8  1  0
  4  1  2  0
  5  1  1  0
  6 12  1  0
  7  2  1  0
  8  6  2  0
  9  1  1  0
 10  5  1  0
 11  4  1  0
 12  9  2  0
 13 15  2  0
 14 17  2  0
 15 19  1  0
 16 13  1  0
 17  9  1  0
 18  2  1  0
 19 22  2  0
 20 16  2  0
 21 28  2  0
 22 27  1  0
 23 18  1  0
 24  5  1  0
 25 16  1  0
 26  7  1  0
 27 23  2  0
 28 23  1  0
 29 10  2  0
 30 11  2  0
 31 13  1  0
 32 15  1  0
 33 14  1  0
 34 26  1  0
 35 29  1  0
 36 31  2  0
 37 32  2  0
 38 30  1  0
 39 34  1  0
 10 11  1  0
  8 14  1  0
 35 38  2  0
  7  3  2  0
 19 21  1  0
 36 37  1  0
M  END
>  <Classification>  (20) 
0

>  <pchembl>  (20) 
4.79

>  <InChI_steorem>  (20) 
InChI=1S/C33H30N4O2/c1-4-9-30-35-31-21(2)18-24(32-34-27-12-7-8-13-28(27)36(32)3)19-29(31)37(30)20-22-14-16-23(17-15-22)25-10-5-6-11-26(25)33(38)39/h5-8,10-19H,4,9,20H2,1-3H3,(H,38,39)

>  <source>  (20) 
ChEMBL25

>  <source_id>  (20) 
25

>  <optional_reference>  (20) 
10.1093/toxsci/kfq269

>  <optional_origin>  (20) 
None

>  <target>  (20) 
BSEP

$$$$

     RDKit          2D

 51 55  0  0  0  0  0  0  0  0999 V2000
   16.2282   -6.1773    0.0000 C   0  0  0  0  0  0  0  0  0  0  0  0
   16.2270   -7.0053    0.0000 C   0  0  0  0  0  0  0  0  0  0  0  0
   16.9429   -7.4205    0.0000 C   0  0  0  0  0  0  0  0  0  0  0  0
   16.9411   -5.7664    0.0000 C   0  0  0  0  0  0  0  0  0  0  0  0
   17.6575   -6.1737    0.0000 C   0  0  0  0  0  0  0  0  0  0  0  0
   17.6609   -7.0027    0.0000 C   0  0  0  0  0  0  0  0  0  0  0  0
   18.3772   -7.4142    0.0000 C   0  0  0  0  0  0  0  0  0  0  0  0
   18.3704   -5.7560    0.0000 C   0  0  0  0  0  0  0  0  0  0  0  0
   19.0913   -6.1679    0.0000 C   0  0  0  0  0  0  0  0  0  0  0  0
   19.0938   -6.9929    0.0000 C   0  0  0  0  0  0  0  0  0  0  0  0
   19.8047   -7.4035    0.0000 C   0  0  0  0  0  0  0  0  0  0  0  0
   19.7958   -5.7552    0.0000 C   0  0  0  0  0  0  0  0  0  0  0  0
   18.3660   -4.9305    0.0000 O   0  0  0  0  0  0  0  0  0  0  0  0
   18.3815   -8.2398    0.0000 O   0  0  0  0  0  0  0  0  0  0  0  0
   16.9486   -8.2456    0.0000 O   0  0  0  0  0  0  0  0  0  0  0  0
   17.6644   -8.6560    0.0000 C   0  0  0  0  0  0  0  0  0  0  0  0
   19.7897   -4.9297    0.0000 O   0  0  0  0  0  0  0  0  0  0  0  0
   19.8081   -8.2291    0.0000 O   0  0  0  0  0  0  0  0  0  0  0  0
   20.5115   -6.1581    0.0000 C   0  0  0  0  0  0  0  0  0  0  0  0
   20.5149   -6.9818    0.0000 C   0  0  0  0  0  0  0  0  0  0  0  0
   21.2268   -7.3906    0.0000 C   0  0  0  0  0  0  0  0  0  0  0  0
   21.9396   -6.9758    0.0000 C   0  0  0  0  0  0  0  0  0  0  0  0
   21.9361   -6.1519    0.0000 C   0  0  0  0  0  0  0  0  0  0  0  0
   21.2197   -5.7429    0.0000 C   0  0  0  0  0  0  0  0  0  0  0  0
   22.6503   -5.7389    0.0000 C   0  0  0  0  0  0  0  0  0  0  0  0
   23.3682   -6.1460    0.0000 C   0  0  0  0  0  0  0  0  0  0  0  0
   22.6485   -4.9120    0.0000 O   0  0  0  0  0  0  0  0  0  0  0  0
   24.0815   -5.7314    0.0000 O   0  0  0  0  0  0  0  0  0  0  0  0
   24.7951   -6.1384    0.0000 C   0  0  0  0  0  0  0  0  0  0  0  0
   22.6476   -6.5632    0.0000 O   0  0  0  0  0  0  0  0  0  0  0  0
   21.2291   -8.2162    0.0000 O   0  0  0  0  0  0  0  0  0  0  0  0
   24.7994   -6.9639    0.0000 O   0  0  0  0  0  0  0  0  0  0  0  0
   25.5084   -5.7239    0.0000 C   0  0  0  0  0  0  0  0  0  0  0  0
   26.2261   -6.1307    0.0000 C   0  0  0  0  0  0  0  0  0  0  0  0
   26.9394   -5.7162    0.0000 C   0  0  0  0  0  0  0  0  0  0  0  0
   27.6572   -6.1231    0.0000 C   0  0  0  0  0  0  0  0  0  0  0  0
   21.9459   -8.6248    0.0000 C   0  0  0  0  0  0  0  0  0  0  0  0
   21.9425   -9.4471    0.0000 C   0  0  0  0  0  0  0  0  0  0  0  0
   22.6551   -9.8598    0.0000 C   0  0  0  0  0  0  0  0  0  0  0  0
   23.3719   -9.4463    0.0000 C   0  0  0  0  0  0  0  0  0  0  0  0
   23.3715   -8.6198    0.0000 C   0  0  0  0  0  0  0  0  0  0  0  0
   22.6543   -8.2067    0.0000 O   0  0  0  0  0  0  0  0  0  0  0  0
   24.0872   -8.2095    0.0000 C   0  0  0  0  0  0  0  0  0  0  0  0
   24.0871   -9.8618    0.0000 O   0  0  0  0  0  0  0  0  0  0  0  0
   22.6544  -10.6855    0.0000 N   0  0  0  0  0  0  0  0  0  0  0  0
   21.9385  -11.0955    0.0000 C   0  0  0  0  0  0  0  0  0  0  0  0
   21.2234  -10.6842    0.0000 C   0  0  0  0  0  0  0  0  0  0  0  0
   21.9378  -11.9211    0.0000 O   0  0  0  0  0  0  0  0  0  0  0  0
   21.2241   -9.8587    0.0000 F   0  0  0  0  0  0  0  0  0  0  0  0
   20.5075  -11.0943    0.0000 F   0  0  0  0  0  0  0  0  0  0  0  0
   20.5028  -10.2680    0.0000 F   0  0  0  0  0  0  0  0  0  0  0  0
 11 20  2  0
 23 25  1  0
 19 12  2  0
 25 26  1  0
 25 27  2  0
 12  9  1  0
 26 28  1  0
  2  3  1  0
 28 29  1  0
  8 13  2  0
 23 30  1  0
  3  6  2  0
 21 31  1  0
  7 14  2  0
  1  2  2  0
 29 32  2  0
  5  8  1  0
 29 33  1  0
 15 16  1  0
 33 34  1  0
  3 15  1  0
 34 35  1  0
  6  7  1  0
 35 36  1  0
 12 17  1  0
 37 31  1  0
 37 38  1  0
  7 10  1  0
 11 18  1  0
 19 20  1  0
  9  8  1  0
  5  4  2  0
 37 42  1  0
 38 39  1  0
 39 40  1  0
 40 41  1  0
 41 42  1  0
  4  1  1  0
 41 43  1  0
  9 10  2  0
 40 44  1  0
  5  6  1  0
 39 45  1  0
 10 11  1  0
 45 46  1  0
 19 24  1  0
 46 47  1  0
 20 21  1  0
 46 48  2  0
 21 22  1  0
 47 49  1  0
 22 23  1  0
 47 50  1  0
 23 24  1  0
 47 51  1  0
M  END
>  <Classification>  (21) 
0

>  <pchembl>  (21) 
4.62

>  <InChI_steorem>  (21) 
InChI=1S/C34H36F3NO13/c1-4-5-9-21(40)49-13-20(39)33(47)11-16-24(19(12-33)51-22-10-17(27(41)14(2)50-22)38-32(46)34(35,36)37)31(45)26-25(29(16)43)28(42)15-7-6-8-18(48-3)23(15)30(26)44/h6-8,14,17,19,22,27,41,43,45,47H,4-5,9-13H2,1-3H3,(H,38,46)

>  <source>  (21) 
ChEMBL25

>  <source_id>  (21) 
25

>  <optional_reference>  (21) 
10.1093/toxsci/kft176

>  <optional_origin>  (21) 
None

>  <target>  (21) 
BSEP

$$$$

     RDKit          2D

 21 22  0  0  0  0  0  0  0  0999 V2000
   -4.6937   -2.8507    0.0000 C   0  0  0  0  0  0  0  0  0  0  0  0
   -5.3960   -3.2822    0.0000 C   0  0  0  0  0  0  0  0  0  0  0  0
   -5.3702   -4.1009    0.0000 C   0  0  0  0  0  0  0  0  0  0  0  0
   -4.6370   -4.4894    0.0000 C   0  0  0  0  0  0  0  0  0  0  0  0
   -3.9470   -4.0685    0.0000 C   0  0  0  0  0  0  0  0  0  0  0  0
   -3.9709   -3.2438    0.0000 C   0  0  0  0  0  0  0  0  0  0  0  0
   -3.2682   -2.8087    0.0000 C   0  0  0  0  0  0  0  0  0  0  0  0
   -2.5408   -3.1992    0.0000 C   0  0  0  0  0  0  0  0  0  0  0  0
   -1.8524   -2.7792    0.0000 C   0  0  0  0  0  0  0  0  0  0  0  0
   -2.5189   -4.0280    0.0000 C   0  0  0  0  0  0  0  0  0  0  0  0
   -1.1250   -3.1699    0.0000 C   0  0  0  0  0  0  0  0  0  0  0  0
   -0.9320   -3.9652    0.0000 S   0  0  0  0  0  0  0  0  0  0  0  0
   -0.1127   -4.0248    0.0000 C   0  0  0  0  0  0  0  0  0  0  0  0
    0.2007   -3.2702    0.0000 N   0  0  0  0  0  0  0  0  0  0  0  0
   -0.4253   -2.7405    0.0000 C   0  0  0  0  0  0  0  0  0  0  0  0
    0.3319   -4.7214    0.0000 S   0  0  0  0  0  0  0  0  0  0  0  0
   -0.3521   -1.9176    0.0000 O   0  0  0  0  0  0  0  0  0  0  0  0
    1.0071   -3.0767    0.0000 C   0  0  0  0  0  0  0  0  0  0  0  0
    1.5743   -3.6811    0.0000 C   0  0  0  0  0  0  0  0  0  0  0  0
    1.3500   -4.4687    0.0000 O   0  0  0  0  0  0  0  0  0  0  0  0
    2.3831   -3.4844    0.0000 O   0  0  0  0  0  0  0  0  0  0  0  0
  2  3  2  0
  9 11  2  3
 11 12  1  0
  5  6  1  0
  6  1  2  0
  1  2  1  0
  6  7  1  0
 12 13  1  0
 13 14  1  0
 14 15  1  0
 15 11  1  0
  3  4  1  0
 13 16  2  0
  7  8  2  3
 15 17  2  0
 14 18  1  0
  8  9  1  0
 18 19  1  0
  4  5  2  0
  8 10  1  0
 19 20  1  0
 19 21  2  0
M  END
>  <Classification>  (22) 
0

>  <pchembl>  (22) 
4.43

>  <InChI_steorem>  (22) 
InChI=1S/C15H13NO3S2/c1-10(7-11-5-3-2-4-6-11)8-12-14(19)16(9-13(17)18)15(20)21-12/h2-8H,9H2,1H3,(H,17,18)

>  <source>  (22) 
ChEMBL25

>  <source_id>  (22) 
25

>  <optional_reference>  (22) 
10.1093/toxsci/kft176

>  <optional_origin>  (22) 
None

>  <target>  (22) 
BSEP

$$$$

     RDKit          2D

 22 22  0  0  0  0  0  0  0  0999 V2000
    3.7030   -5.8989    0.0000 C   0  0  0  0  0  0  0  0  0  0  0  0
    3.7030   -6.7285    0.0000 C   0  0  0  0  0  0  0  0  0  0  0  0
    4.4175   -7.1410    0.0000 C   0  0  0  0  0  0  0  0  0  0  0  0
    5.1365   -6.7285    0.0000 C   0  0  0  0  0  0  0  0  0  0  0  0
    5.1365   -5.8989    0.0000 C   0  0  0  0  0  0  0  0  0  0  0  0
    4.4175   -5.4818    0.0000 C   0  0  0  0  0  0  0  0  0  0  0  0
    5.8504   -7.1420    0.0000 C   0  0  0  0  0  0  0  0  0  0  0  0
    4.8214   -4.7667    0.0000 C   0  0  0  0  0  0  0  0  0  0  0  0
    3.9964   -4.7667    0.0000 C   0  0  0  0  0  0  0  0  0  0  0  0
    5.8480   -5.4910    0.0000 C   0  0  0  0  0  0  0  0  0  0  0  0
    6.5584   -5.9035    0.0000 C   0  0  0  0  0  0  0  0  0  0  0  0
    7.2734   -5.4955    0.0000 C   0  0  0  0  0  0  0  0  0  0  0  0
    7.9839   -5.9080    0.0000 C   0  0  0  0  0  0  0  0  0  0  0  0
    8.6989   -5.5001    0.0000 C   0  0  0  0  0  0  0  0  0  0  0  0
    9.4093   -5.9126    0.0000 C   0  0  0  0  0  0  0  0  0  0  0  0
   10.1243   -5.5047    0.0000 C   0  0  0  0  0  0  0  0  0  0  0  0
    7.2766   -4.6705    0.0000 C   0  0  0  0  0  0  0  0  0  0  0  0
   10.8316   -5.9237    0.0000 C   0  0  0  0  0  0  0  0  0  0  0  0
   10.1286   -4.6797    0.0000 C   0  0  0  0  0  0  0  0  0  0  0  0
   10.8294   -6.7487    0.0000 C   0  0  0  0  0  0  0  0  0  0  0  0
   10.1137   -7.1592    0.0000 O   0  0  0  0  0  0  0  0  0  0  0  0
   11.5426   -7.1632    0.0000 O   0  0  0  0  0  0  0  0  0  0  0  0
 10 11  2  3
  4  5  2  0
 11 12  1  0
  5  6  1  0
 12 13  2  3
 13 14  1  0
  4  7  1  0
 14 15  2  3
  1  2  1  0
 15 16  1  0
  6  8  1  0
 12 17  1  0
  1  6  1  0
 16 18  2  3
  6  9  1  0
 16 19  1  0
  2  3  1  0
 18 20  1  0
  5 10  1  0
 20 21  1  0
  3  4  1  0
 20 22  2  0
M  END
>  <Classification>  (23) 
0

>  <pchembl>  (23) 
4.43

>  <InChI_steorem>  (23) 
InChI=1S/C20H28O2/c1-15(8-6-9-16(2)14-19(21)22)11-12-18-17(3)10-7-13-20(18,4)5/h6,8-9,11-12,14H,7,10,13H2,1-5H3,(H,21,22)

>  <source>  (23) 
ChEMBL25

>  <source_id>  (23) 
25

>  <optional_reference>  (23) 
10.1002/hep.27206

>  <optional_origin>  (23) 
None

>  <target>  (23) 
BSEP

$$$$

     RDKit          2D

 27 29  0  0  0  0  0  0  0  0999 V2000
   -1.6750  -20.4792    0.0000 C   0  0  0  0  0  0  0  0  0  0  0  0
   -1.6750  -21.3042    0.0000 C   0  0  0  0  0  0  0  0  0  0  0  0
   -0.9630  -21.7125    0.0000 C   0  0  0  0  0  0  0  0  0  0  0  0
   -0.2510  -21.3042    0.0000 C   0  0  0  0  0  0  0  0  0  0  0  0
   -0.2510  -20.4792    0.0000 C   0  0  0  0  0  0  0  0  0  0  0  0
   -0.9630  -20.0625    0.0000 N   0  0  0  0  0  0  0  0  0  0  0  0
   -0.9630  -22.5375    0.0000 C   0  0  0  0  0  0  0  0  0  0  0  0
   -1.6790  -22.9492    0.0000 C   0  0  0  0  0  0  0  0  0  0  0  0
   -1.6810  -23.7706    0.0000 C   0  0  0  0  0  0  0  0  0  0  0  0
   -0.9683  -24.1870    0.0000 C   0  0  0  0  0  0  0  0  0  0  0  0
   -0.2484  -22.9481    0.0000 C   0  0  0  0  0  0  0  0  0  0  0  0
   -0.2513  -23.7780    0.0000 C   0  0  0  0  0  0  0  0  0  0  0  0
    0.5370  -24.0372    0.0000 N   0  0  0  0  0  0  0  0  0  0  0  0
    1.0273  -23.3675    0.0000 O   0  0  0  0  0  0  0  0  0  0  0  0
    0.5418  -22.6945    0.0000 N   0  0  0  0  0  0  0  0  0  0  0  0
    0.4647  -20.0688    0.0000 C   0  0  0  0  0  0  0  0  0  0  0  0
   -2.3907  -20.0688    0.0000 C   0  0  0  0  0  0  0  0  0  0  0  0
    0.5708  -21.3042    0.0000 C   0  0  0  0  0  0  0  0  0  0  0  0
    0.9833  -22.0186    0.0000 O   0  0  0  0  0  0  0  0  0  0  0  0
    0.9833  -20.5897    0.0000 O   0  0  0  0  0  0  0  0  0  0  0  0
    1.8083  -20.5897    0.0000 C   0  0  0  0  0  0  0  0  0  0  0  0
   -2.3889  -21.7177    0.0000 C   0  0  0  0  0  0  0  0  0  0  0  0
   -3.1039  -21.3062    0.0000 O   0  0  0  0  0  0  0  0  0  0  0  0
   -2.3877  -22.5427    0.0000 O   0  0  0  0  0  0  0  0  0  0  0  0
   -3.8178  -21.7198    0.0000 C   0  0  0  0  0  0  0  0  0  0  0  0
   -4.5329  -21.3083    0.0000 C   0  0  0  0  0  0  0  0  0  0  0  0
   -3.8166  -22.5448    0.0000 C   0  0  0  0  0  0  0  0  0  0  0  0
  3  7  1  0
 12 13  2  0
 13 14  1  0
 14 15  1  0
 15 11  2  0
  7  8  2  0
  5 16  1  0
  1  2  2  0
  1 17  1  0
  1  6  1  0
  4 18  1  0
  2  3  1  0
 18 19  2  0
  7 11  1  0
 18 20  1  0
  8  9  1  0
 20 21  1  0
  9 10  2  0
  2 22  1  0
 10 12  1  0
 22 23  1  0
 11 12  1  0
 22 24  2  0
  3  4  1  0
 23 25  1  0
  4  5  2  0
 25 26  1  0
  5  6  1  0
 25 27  1  0
M  END
>  <Classification>  (24) 
0

>  <pchembl>  (24) 
4.55

>  <InChI_steorem>  (24) 
InChI=1S/C19H21N3O5/c1-9(2)26-19(24)15-11(4)20-10(3)14(18(23)25-5)16(15)12-7-6-8-13-17(12)22-27-21-13/h6-9,16,20H,1-5H3

>  <source>  (24) 
ChEMBL25

>  <source_id>  (24) 
25

>  <optional_reference>  (24) 
10.1093/toxsci/kft176

>  <optional_origin>  (24) 
None

>  <target>  (24) 
BSEP

$$$$

     RDKit          2D

 36 39  0  0  0  0  0  0  0  0999 V2000
    2.4208  -20.9750    0.0000 C   0  0  0  0  0  0  0  0  0  0  0  0
    1.7049  -20.5625    0.0000 C   0  0  0  0  0  0  0  0  0  0  0  0
    1.7049  -19.7375    0.0000 N   0  0  0  0  0  0  0  0  0  0  0  0
    2.4208  -19.3250    0.0000 C   0  0  0  0  0  0  0  0  0  0  0  0
    3.1325  -19.7375    0.0000 C   0  0  0  0  0  0  0  0  0  0  0  0
    3.8483  -19.3250    0.0000 O   0  0  0  0  0  0  0  0  0  0  0  0
   -1.8703  -18.5000    0.0000 C   0  0  0  0  0  0  0  0  0  0  0  0
   -1.8703  -19.3250    0.0000 N   0  0  0  0  0  0  0  0  0  0  0  0
   -1.1544  -19.7375    0.0000 C   0  0  0  0  0  0  0  0  0  0  0  0
   -0.4385  -19.3250    0.0000 C   0  0  0  0  0  0  0  0  0  0  0  0
   -0.4385  -18.5000    0.0000 C   0  0  0  0  0  0  0  0  0  0  0  0
   -1.1544  -18.0875    0.0000 N   0  0  0  0  0  0  0  0  0  0  0  0
    0.9890  -19.3250    0.0000 C   0  0  0  0  0  0  0  0  0  0  0  0
    0.9890  -18.5000    0.0000 N   0  0  0  0  0  0  0  0  0  0  0  0
    0.2773  -18.0875    0.0000 C   0  0  0  0  0  0  0  0  0  0  0  0
    0.2773  -19.7375    0.0000 N   0  0  0  0  0  0  0  0  0  0  0  0
    0.2773  -17.2625    0.0000 N   0  0  0  0  0  0  0  0  0  0  0  0
   -0.4385  -16.8500    0.0000 C   0  0  0  0  0  0  0  0  0  0  0  0
   -0.4385  -16.0250    0.0000 C   0  0  0  0  0  0  0  0  0  0  0  0
    0.2773  -15.6125    0.0000 C   0  0  0  0  0  0  0  0  0  0  0  0
    0.9890  -16.0250    0.0000 C   0  0  0  0  0  0  0  0  0  0  0  0
    0.9890  -16.8500    0.0000 C   0  0  0  0  0  0  0  0  0  0  0  0
   -1.1544  -20.5625    0.0000 N   0  0  0  0  0  0  0  0  0  0  0  0
   -0.4385  -20.9750    0.0000 C   0  0  0  0  0  0  0  0  0  0  0  0
   -0.4385  -21.8000    0.0000 C   0  0  0  0  0  0  0  0  0  0  0  0
   -1.1544  -22.2125    0.0000 C   0  0  0  0  0  0  0  0  0  0  0  0
   -1.8703  -21.8000    0.0000 C   0  0  0  0  0  0  0  0  0  0  0  0
   -1.8703  -20.9750    0.0000 C   0  0  0  0  0  0  0  0  0  0  0  0
   -2.5820  -18.0875    0.0000 N   0  0  0  0  0  0  0  0  0  0  0  0
   -3.2978  -18.5000    0.0000 C   0  0  0  0  0  0  0  0  0  0  0  0
   -4.0095  -18.0875    0.0000 C   0  0  0  0  0  0  0  0  0  0  0  0
   -4.7254  -18.5000    0.0000 O   0  0  0  0  0  0  0  0  0  0  0  0
   -2.5820  -17.2625    0.0000 C   0  0  0  0  0  0  0  0  0  0  0  0
   -3.2978  -16.8500    0.0000 C   0  0  0  0  0  0  0  0  0  0  0  0
   -4.0095  -17.2625    0.0000 O   0  0  0  0  0  0  0  0  0  0  0  0
    3.1325  -20.5625    0.0000 O   0  0  0  0  0  0  0  0  0  0  0  0
  1  2  1  0
  4  5  1  0
  5  6  1  0
  3  4  1  0
  7  8  2  0
  8  9  1  0
  9 10  2  0
 10 11  1  0
 11 12  2  0
  7 12  1  0
 13 14  1  0
 14 15  2  0
 13 16  2  0
 10 16  1  0
 11 15  1  0
 17 18  1  0
 18 19  1  0
 19 20  1  0
 20 21  1  0
 21 22  1  0
 17 22  1  0
 15 17  1  0
 23 24  1  0
 24 25  1  0
 25 26  1  0
 26 27  1  0
 27 28  1  0
 23 28  1  0
  9 23  1  0
 30 31  1  0
 31 32  1  0
 29 30  1  0
 33 34  1  0
 34 35  1  0
 29 33  1  0
  7 29  1  0
  3 13  1  0
  2  3  1  0
  1 36  1  0
M  END
>  <Classification>  (25) 
1

>  <pchembl>  (25) 
5.4

>  <InChI_steorem>  (25) 
InChI=1S/C24H40N8O4/c33-15-11-31(12-16-34)23-26-20-19(21(27-23)29-7-3-1-4-8-29)25-24(32(13-17-35)14-18-36)28-22(20)30-9-5-2-6-10-30/h33-36H,1-18H2

>  <source>  (25) 
ChEMBL25

>  <source_id>  (25) 
25

>  <optional_reference>  (25) 
10.1093/toxsci/kft176

>  <optional_origin>  (25) 
None

>  <target>  (25) 
BSEP

$$$$

     RDKit          2D

 41 44  0  0  0  0  0  0  0  0999 V2000
   10.1042    0.3528    0.0000 C   0  0  0  0  0  0  0  0  0  0  0  0
   10.2833   -0.4528    0.0000 C   0  0  0  0  0  0  0  0  0  0  0  0
   11.1055   -0.5316    0.0000 C   0  0  0  0  0  0  0  0  0  0  0  0
   11.4364    0.2264    0.0000 N   0  0  0  0  0  0  0  0  0  0  0  0
   10.8154    0.7725    0.0000 C   0  0  0  0  0  0  0  0  0  0  0  0
   12.2420    0.4057    0.0000 C   0  0  0  0  0  0  0  0  0  0  0  0
   12.7999   -0.2020    0.0000 C   0  0  0  0  0  0  0  0  0  0  0  0
   13.6105   -0.0157    0.0000 C   0  0  0  0  0  0  0  0  0  0  0  0
   13.8204    0.7810    0.0000 C   0  0  0  0  0  0  0  0  0  0  0  0
   14.6150    1.0016    0.0000 C   0  0  0  0  0  0  0  0  0  0  0  0
   14.8294    1.7992    0.0000 C   0  0  0  0  0  0  0  0  0  0  0  0
   15.6251    2.0154    0.0000 C   0  0  0  0  0  0  0  0  0  0  0  0
   15.8338    2.8166    0.0000 O   0  0  0  0  0  0  0  0  0  0  0  0
   16.2109    1.4350    0.0000 O   0  0  0  0  0  0  0  0  0  0  0  0
    9.3463    0.6836    0.0000 C   0  0  0  0  0  0  0  0  0  0  0  0
    9.2554    1.5011    0.0000 O   0  0  0  0  0  0  0  0  0  0  0  0
    7.9297    0.5193    0.0000 C   0  0  0  0  0  0  0  0  0  0  0  0
    7.8424    1.3383    0.0000 C   0  0  0  0  0  0  0  0  0  0  0  0
    7.0869    1.6647    0.0000 C   0  0  0  0  0  0  0  0  0  0  0  0
    6.4192    1.1735    0.0000 C   0  0  0  0  0  0  0  0  0  0  0  0
    6.5198    0.3504    0.0000 C   0  0  0  0  0  0  0  0  0  0  0  0
    7.2765    0.0258    0.0000 C   0  0  0  0  0  0  0  0  0  0  0  0
    9.7361   -1.0692    0.0000 C   0  0  0  0  0  0  0  0  0  0  0  0
    8.9324   -0.9031    0.0000 C   0  0  0  0  0  0  0  0  0  0  0  0
    8.3865   -1.5226    0.0000 C   0  0  0  0  0  0  0  0  0  0  0  0
    8.6460   -2.3042    0.0000 C   0  0  0  0  0  0  0  0  0  0  0  0
    9.4617   -2.4692    0.0000 C   0  0  0  0  0  0  0  0  0  0  0  0
   10.0016   -1.8475    0.0000 C   0  0  0  0  0  0  0  0  0  0  0  0
   10.8942    1.5947    0.0000 C   0  0  0  0  0  0  0  0  0  0  0  0
   11.6466    1.9375    0.0000 C   0  0  0  0  0  0  0  0  0  0  0  0
   10.2205    2.0739    0.0000 C   0  0  0  0  0  0  0  0  0  0  0  0
   15.2054    0.4222    0.0000 O   0  0  0  0  0  0  0  0  0  0  0  0
   14.1847   -0.6092    0.0000 O   0  0  0  0  0  0  0  0  0  0  0  0
   11.5252   -1.2429    0.0000 C   0  0  0  0  0  0  0  0  0  0  0  0
   11.1196   -1.9602    0.0000 C   0  0  0  0  0  0  0  0  0  0  0  0
   11.5382   -2.6707    0.0000 C   0  0  0  0  0  0  0  0  0  0  0  0
   12.3610   -2.6596    0.0000 C   0  0  0  0  0  0  0  0  0  0  0  0
   12.7687   -1.9361    0.0000 C   0  0  0  0  0  0  0  0  0  0  0  0
   12.3462   -1.2306    0.0000 C   0  0  0  0  0  0  0  0  0  0  0  0
   12.7823   -3.3699    0.0000 F   0  0  0  0  0  0  0  0  0  0  0  0
    8.6858    0.1893    0.0000 N   0  0  0  0  0  0  0  0  0  0  0  0
 37 38  1  0
 38 39  2  0
 39 34  1  0
 37 40  1  0
  1  2  1  0
  2  3  2  0
  3  4  1  0
  4  5  1  0
  5  1  2  0
  4  6  1  0
  6  7  1  0
  7  8  1  0
  8  9  1  0
  9 10  1  0
 10 11  1  0
 11 12  1  0
 12 13  2  0
 12 14  1  0
  1 15  1  0
 15 16  2  0
 17 18  2  0
 18 19  1  0
 19 20  2  0
 20 21  1  0
 21 22  2  0
 22 17  1  0
  2 23  1  0
 23 24  2  0
 24 25  1  0
 25 26  2  0
 26 27  1  0
 27 28  2  0
 28 23  1  0
  5 29  1  0
 29 30  1  0
 29 31  1  0
 10 32  1  0
  8 33  1  0
  3 34  1  0
 34 35  2  0
 35 36  1  0
 36 37  2  0
 15 41  1  0
 41 17  1  0
M  END
>  <Classification>  (26) 
0

>  <pchembl>  (26) 
4.89

>  <InChI_steorem>  (26) 
InChI=1S/C33H35FN2O5/c1-21(2)31-30(33(41)35-25-11-7-4-8-12-25)29(22-9-5-3-6-10-22)32(23-13-15-24(34)16-14-23)36(31)18-17-26(37)19-27(38)20-28(39)40/h3-16,21,26-27,37-38H,17-20H2,1-2H3,(H,35,41)(H,39,40)

>  <source>  (26) 
ChEMBL25

>  <source_id>  (26) 
25

>  <optional_reference>  (26) 
10.1093/toxsci/kft176

>  <optional_origin>  (26) 
None

>  <target>  (26) 
BSEP

$$$$

     RDKit          2D

 57 62  0  0  0  0  0  0  0  0999 V2000
   -2.5485   -2.8106    0.0000 C   0  0  0  0  0  0  0  0  0  0  0  0
   -1.8348   -2.3979    0.0000 C   0  0  0  0  0  0  0  0  0  0  0  0
   -1.1217   -2.8069    0.0000 C   0  0  0  0  0  0  0  0  0  0  0  0
   -1.1209   -3.6337    0.0000 C   0  0  0  0  0  0  0  0  0  0  0  0
    0.3041   -2.7999    0.0000 C   0  0  0  0  0  0  0  0  0  0  0  0
   -0.4095   -2.3928    0.0000 C   0  0  0  0  0  0  0  0  0  0  0  0
    0.3089   -3.6299    0.0000 C   0  0  0  0  0  0  0  0  0  0  0  0
   -0.4053   -4.0411    0.0000 C   0  0  0  0  0  0  0  0  0  0  0  0
   -0.2365   -4.8537    0.0000 N   0  0  0  0  0  0  0  0  0  0  0  0
    0.9256   -4.1873    0.0000 N   0  0  0  0  0  0  0  0  0  0  0  0
    0.5844   -4.9388    0.0000 C   0  0  0  0  0  0  0  0  0  0  0  0
    1.0686   -5.6073    0.0000 C   0  0  0  0  0  0  0  0  0  0  0  0
    1.8896   -5.5213    0.0000 C   0  0  0  0  0  0  0  0  0  0  0  0
    2.2241   -4.7651    0.0000 C   0  0  0  0  0  0  0  0  0  0  0  0
    1.7421   -4.0998    0.0000 C   0  0  0  0  0  0  0  0  0  0  0  0
    2.3756   -6.1898    0.0000 C   0  0  0  0  0  0  0  0  0  0  0  0
    1.0179   -2.3830    0.0000 N   0  0  0  0  0  0  0  0  0  0  0  0
    1.0128   -1.5580    0.0000 C   0  0  0  0  0  0  0  0  0  0  0  0
    1.7265   -1.1411    0.0000 C   0  0  0  0  0  0  0  0  0  0  0  0
    0.2981   -1.1500    0.0000 O   0  0  0  0  0  0  0  0  0  0  0  0
    2.4412   -1.5491    0.0000 C   0  0  0  0  0  0  0  0  0  0  0  0
    1.7214   -0.3163    0.0000 C   0  0  0  0  0  0  0  0  0  0  0  0
    1.0025    0.0917    0.0000 C   0  0  0  0  0  0  0  0  0  0  0  0
    0.2930   -0.3251    0.0000 C   0  0  0  0  0  0  0  0  0  0  0  0
   -0.4260    0.0829    0.0000 C   0  0  0  0  0  0  0  0  0  0  0  0
   -1.1397   -0.3340    0.0000 C   0  0  0  0  0  0  0  0  0  0  0  0
   -0.4311    0.9077    0.0000 C   0  0  0  0  0  0  0  0  0  0  0  0
   -1.8544    0.0740    0.0000 C   0  0  0  0  0  0  0  0  0  0  0  0
   -1.1346   -1.1589    0.0000 O   0  0  0  0  0  0  0  0  0  0  0  0
   -1.8596    0.8989    0.0000 C   0  0  0  0  0  0  0  0  0  0  0  0
   -2.5682   -0.3429    0.0000 C   0  0  0  0  0  0  0  0  0  0  0  0
   -2.5631   -1.1678    0.0000 C   0  0  0  0  0  0  0  0  0  0  0  0
   -3.2769   -1.5847    0.0000 C   0  0  0  0  0  0  0  0  0  0  0  0
   -3.2718   -2.4095    0.0000 C   0  0  0  0  0  0  0  0  0  0  0  0
   -3.9928   -1.9900    0.0000 O   0  0  0  0  0  0  0  0  0  0  0  0
   -4.7051   -1.5706    0.0000 C   0  0  0  0  0  0  0  0  0  0  0  0
   -5.4212   -1.9760    0.0000 C   0  0  0  0  0  0  0  0  0  0  0  0
   -4.6970   -0.7457    0.0000 O   0  0  0  0  0  0  0  0  0  0  0  0
   -3.9813   -2.8264    0.0000 C   0  0  0  0  0  0  0  0  0  0  0  0
   -3.9762   -3.6514    0.0000 C   0  0  0  0  0  0  0  0  0  0  0  0
   -4.6900   -4.0683    0.0000 C   0  0  0  0  0  0  0  0  0  0  0  0
   -4.6849   -4.8932    0.0000 O   0  0  0  0  0  0  0  0  0  0  0  0
   -1.8329   -4.0508    0.0000 C   0  0  0  0  0  0  0  0  0  0  0  0
   -2.5511   -3.6347    0.0000 C   0  0  0  0  0  0  0  0  0  0  0  0
   -3.1681   -4.1901    0.0000 O   0  0  0  0  0  0  0  0  0  0  0  0
   -2.8349   -4.9463    0.0000 C   0  0  0  0  0  0  0  0  0  0  0  0
   -2.0110   -4.8601    0.0000 C   0  0  0  0  0  0  0  0  0  0  0  0
   -1.4578   -5.4787    0.0000 O   0  0  0  0  0  0  0  0  0  0  0  0
   -3.0531   -5.7404    0.0000 C   0  0  0  0  0  0  0  0  0  0  0  0
   -3.2784   -3.2317    0.0000 C   0  0  0  0  0  0  0  0  0  0  0  0
   -4.7003   -2.4184    0.0000 O   0  0  0  0  0  0  0  0  0  0  0  0
   -5.4097   -2.8353    0.0000 C   0  0  0  0  0  0  0  0  0  0  0  0
   -3.2784   -0.7526    0.0000 C   0  0  0  0  0  0  0  0  0  0  0  0
   -1.8373   -1.5730    0.0000 O   0  0  0  0  0  0  0  0  0  0  0  0
   -0.4139   -1.5679    0.0000 O   0  0  0  0  0  0  0  0  0  0  0  0
   -2.5556   -1.9815    0.0000 C   0  0  0  0  0  0  0  0  0  0  0  0
   -3.2829    0.0651    0.0000 O   0  0  0  0  0  0  0  0  0  0  0  0
 25 27  1  0
 11 12  1  0
 26 28  1  0
  7  5  1  0
 26 29  1  0
 12 13  2  0
 28 30  1  0
  3  2  2  0
 28 31  1  0
 13 14  1  0
 31 57  1  0
  5  6  2  0
 31 32  1  0
 14 15  2  0
 32 33  1  0
 15 10  1  0
 33 34  1  0
  6  3  1  0
 33 35  1  0
 13 16  1  0
 35 36  1  0
  7  8  2  0
 36 37  1  0
  5 17  1  0
 36 38  2  0
  2  1  1  0
 34 39  1  0
 17 18  1  0
 39 40  1  0
  1 44  2  0
 40 41  2  0
 18 19  1  0
 41 42  1  0
 43 44  1  0
 43  4  2  0
 18 20  2  0
  8  9  1  0
 19 21  1  0
  9 11  2  0
 44 45  1  0
 45 46  1  0
 46 47  1  0
 47 43  1  0
 19 22  2  0
 47 48  2  0
 10  7  1  0
 46 49  1  0
 42 46  1  0
 22 23  1  0
 34 50  1  0
  3  4  1  0
 39 51  1  0
 23 24  2  0
 51 52  1  0
  4  8  1  0
 32 53  1  0
 24 25  1  0
  2 54  1  0
 10 11  1  0
  6 55  1  0
 25 26  1  0
  1 56  1  0
M  END
>  <Classification>  (27) 
0

>  <pchembl>  (27) 
4.38

>  <InChI_steorem>  (27) 
InChI=1S/C43H51N3O11/c1-19-14-16-46-28(18-19)44-32-29-30-37(50)25(7)40-31(29)41(52)43(9,57-40)55-17-15-27(54-10)22(4)39(56-26(8)47)24(6)36(49)23(5)35(48)20(2)12-11-13-21(3)42(53)45-33(34(32)46)38(30)51/h11-18,20,22-24,27,35-36,39,48-51H,1-10H3,(H,45,53)

>  <source>  (27) 
ChEMBL25

>  <source_id>  (27) 
25

>  <optional_reference>  (27) 
10.1093/toxsci/kft176

>  <optional_origin>  (27) 
None

>  <target>  (27) 
BSEP

$$$$

     RDKit          2D

 25 29  0  0  0  0  0  0  0  0999 V2000
   12.6260  -12.2970    0.0000 C   0  0  0  0  0  0  0  0  0  0  0  0
   13.3432  -12.7149    0.0000 C   0  0  0  0  0  0  0  0  0  0  0  0
   11.9173  -12.7049    0.0000 C   0  0  0  0  0  0  0  0  0  0  0  0
   12.6321  -11.4742    0.0000 C   0  0  0  0  0  0  0  0  0  0  0  0
   14.0559  -12.3059    0.0000 C   0  0  0  0  0  0  0  0  0  0  0  0
   13.3390  -13.5390    0.0000 C   0  0  0  0  0  0  0  0  0  0  0  0
   11.9131  -13.5290    0.0000 C   0  0  0  0  0  0  0  0  0  0  0  0
   11.2042  -12.2876    0.0000 C   0  0  0  0  0  0  0  0  0  0  0  0
   11.9325  -11.8486    0.0000 C   0  0  0  0  0  0  0  0  0  0  0  0
   13.3454  -11.0643    0.0000 C   0  0  0  0  0  0  0  0  0  0  0  0
   14.0599  -11.4799    0.0000 C   0  0  0  0  0  0  0  0  0  0  0  0
   14.8424  -12.5604    0.0000 C   0  0  0  0  0  0  0  0  0  0  0  0
   12.6260  -13.9458    0.0000 C   0  0  0  0  0  0  0  0  0  0  0  0
   11.2004  -13.9391    0.0000 C   0  0  0  0  0  0  0  0  0  0  0  0
   10.4876  -12.6994    0.0000 C   0  0  0  0  0  0  0  0  0  0  0  0
   14.8452  -11.2271    0.0000 C   0  0  0  0  0  0  0  0  0  0  0  0
   14.0643  -10.6574    0.0000 C   0  0  0  0  0  0  0  0  0  0  0  0
   15.3255  -11.8863    0.0000 C   0  0  0  0  0  0  0  0  0  0  0  0
   10.4834  -13.5235    0.0000 C   0  0  0  0  0  0  0  0  0  0  0  0
    9.7019  -12.4441    0.0000 C   0  0  0  0  0  0  0  0  0  0  0  0
   15.7560  -10.9195    0.0000 C   0  0  0  0  0  0  0  0  0  0  0  0
   14.8242  -10.3803    0.0000 O   0  0  0  0  0  0  0  0  0  0  0  0
    9.6989  -13.7786    0.0000 O   0  0  0  0  0  0  0  0  0  0  0  0
    9.2183  -13.1182    0.0000 N   0  0  0  0  0  0  0  0  0  0  0  0
   16.5393  -10.6655    0.0000 C   0  0  0  0  0  0  0  0  0  0  0  0
  1  2  1  0
  1  3  1  0
  1  4  1  0
  2  5  1  0
  2  6  1  0
  3  7  1  0
  3  8  1  0
  3  9  1  0
  4 10  1  0
  5 11  1  0
  5 12  1  0
  6 13  1  0
  7 14  2  0
  8 15  1  0
 11 16  1  0
 11 17  1  0
 12 18  1  0
 14 19  1  0
 15 20  1  0
 16 21  1  0
 16 22  1  0
 19 23  1  0
 20 24  2  0
 21 25  3  0
  7 13  1  0
 10 11  1  0
 15 19  2  0
 16 18  1  0
 23 24  1  0
M  END
>  <Classification>  (28) 
0

>  <pchembl>  (28) 
4.73

>  <InChI_steorem>  (28) 
InChI=1S/C22H27NO2/c1-4-22(24)10-8-18-16-6-5-15-11-19-14(13-23-25-19)12-20(15,2)17(16)7-9-21(18,22)3/h1,11,13,16-18,24H,5-10,12H2,2-3H3

>  <source>  (28) 
ChEMBL25

>  <source_id>  (28) 
25

>  <optional_reference>  (28) 
10.1093/toxsci/kft176

>  <optional_origin>  (28) 
None

>  <target>  (28) 
BSEP

$$$$

     RDKit          2D

 18 19  0  0  0  0  0  0  0  0999 V2000
    3.2662  -19.9595    0.0000 C   0  0  0  0  0  0  0  0  0  0  0  0
    3.2649  -20.7871    0.0000 C   0  0  0  0  0  0  0  0  0  0  0  0
    3.9779  -21.1999    0.0000 C   0  0  0  0  0  0  0  0  0  0  0  0
    4.6971  -20.7866    0.0000 C   0  0  0  0  0  0  0  0  0  0  0  0
    4.6940  -19.9556    0.0000 C   0  0  0  0  0  0  0  0  0  0  0  0
    3.9759  -19.5467    0.0000 C   0  0  0  0  0  0  0  0  0  0  0  0
    3.9720  -18.7217    0.0000 C   0  0  0  0  0  0  0  0  0  0  0  0
    4.6845  -18.3060    0.0000 O   0  0  0  0  0  0  0  0  0  0  0  0
    3.2556  -18.3127    0.0000 O   0  0  0  0  0  0  0  0  0  0  0  0
    5.4064  -19.5394    0.0000 N   0  0  0  0  0  0  0  0  0  0  0  0
    6.1229  -19.9484    0.0000 C   0  0  0  0  0  0  0  0  0  0  0  0
    6.1243  -20.7720    0.0000 C   0  0  0  0  0  0  0  0  0  0  0  0
    6.8399  -21.1809    0.0000 C   0  0  0  0  0  0  0  0  0  0  0  0
    7.5534  -20.7649    0.0000 C   0  0  0  0  0  0  0  0  0  0  0  0
    7.5466  -19.9356    0.0000 C   0  0  0  0  0  0  0  0  0  0  0  0
    6.8304  -19.5305    0.0000 C   0  0  0  0  0  0  0  0  0  0  0  0
    6.8227  -18.7056    0.0000 C   0  0  0  0  0  0  0  0  0  0  0  0
    8.2576  -19.5171    0.0000 C   0  0  0  0  0  0  0  0  0  0  0  0
  7  9  1  0
  4  5  2  0
  5 10  1  0
  2  3  2  0
 10 11  1  0
  5  6  1  0
 11 12  2  0
  6  1  2  0
 12 13  1  0
  1  2  1  0
 13 14  2  0
  6  7  1  0
 14 15  1  0
  3  4  1  0
 15 16  2  0
 16 11  1  0
  7  8  2  0
 16 17  1  0
 15 18  1  0
M  END
>  <Classification>  (29) 
0

>  <pchembl>  (29) 
4.24

>  <InChI_steorem>  (29) 
InChI=1S/C15H15NO2/c1-10-6-5-9-13(11(10)2)16-14-8-4-3-7-12(14)15(17)18/h3-9,16H,1-2H3,(H,17,18)

>  <source>  (29) 
ChEMBL25

>  <source_id>  (29) 
25

>  <optional_reference>  (29) 
10.1002/hep.27206

>  <optional_origin>  (29) 
None

>  <target>  (29) 
BSEP

$$$$

     RDKit          2D

 27 29  0  0  0  0  0  0  0  0999 V2000
   -1.6366  -20.2248    0.0000 C   0  0  0  0  0  0  0  0  0  0  0  0
   -0.9177  -19.8122    0.0000 C   0  0  0  0  0  0  0  0  0  0  0  0
   -0.9204  -18.9804    0.0000 C   0  0  0  0  0  0  0  0  0  0  0  0
   -1.6386  -18.5715    0.0000 C   0  0  0  0  0  0  0  0  0  0  0  0
   -2.3495  -19.8120    0.0000 C   0  0  0  0  0  0  0  0  0  0  0  0
   -2.3498  -18.9888    0.0000 C   0  0  0  0  0  0  0  0  0  0  0  0
   -3.0589  -18.5797    0.0000 S   0  0  0  0  0  0  0  0  0  0  0  0
   -3.7722  -18.9893    0.0000 N   0  0  0  0  0  0  0  0  0  0  0  0
   -3.7718  -19.8124    0.0000 C   0  0  0  0  0  0  0  0  0  0  0  0
   -3.0583  -20.2260    0.0000 N   0  0  0  0  0  0  0  0  0  0  0  0
   -2.3513  -18.1593    0.0000 O   0  0  0  0  0  0  0  0  0  0  0  0
   -3.6484  -17.9898    0.0000 O   0  0  0  0  0  0  0  0  0  0  0  0
   -0.2079  -18.5642    0.0000 S   0  0  0  0  0  0  0  0  0  0  0  0
    0.4996  -18.1456    0.0000 N   0  0  0  0  0  0  0  0  0  0  0  0
    0.2101  -19.2755    0.0000 O   0  0  0  0  0  0  0  0  0  0  0  0
   -0.6235  -17.8516    0.0000 O   0  0  0  0  0  0  0  0  0  0  0  0
   -0.2954  -20.3537    0.0000 C   0  0  0  0  0  0  0  0  0  0  0  0
    0.3189  -20.8931    0.0000 F   0  0  0  0  0  0  0  0  0  0  0  0
   -0.8448  -20.9686    0.0000 F   0  0  0  0  0  0  0  0  0  0  0  0
    0.2841  -19.7636    0.0000 F   0  0  0  0  0  0  0  0  0  0  0  0
   -4.4866  -20.2245    0.0000 C   0  0  0  0  0  0  0  0  0  0  0  0
   -5.2009  -19.8115    0.0000 C   0  0  0  0  0  0  0  0  0  0  0  0
   -5.1963  -18.9873    0.0000 C   0  0  0  0  0  0  0  0  0  0  0  0
   -5.9097  -18.5745    0.0000 C   0  0  0  0  0  0  0  0  0  0  0  0
   -6.6298  -18.9865    0.0000 C   0  0  0  0  0  0  0  0  0  0  0  0
   -6.6319  -19.8158    0.0000 C   0  0  0  0  0  0  0  0  0  0  0  0
   -5.9094  -20.2250    0.0000 C   0  0  0  0  0  0  0  0  0  0  0  0
  3 13  1  0
  2  3  1  0
 13 14  1  0
 13 15  2  0
  3  4  2  0
 13 16  2  0
  4  6  1  0
  2 17  1  0
  5 10  1  0
 17 18  1  0
  6  7  1  0
 17 19  1  0
  7  8  1  0
 17 20  1  0
  8  9  1  0
  9 21  1  0
  9 10  1  0
 21 22  1  0
  5  6  2  0
 22 23  2  0
  7 11  2  0
 23 24  1  0
  1  2  2  0
 24 25  2  0
  7 12  2  0
 25 26  1  0
  5  1  1  0
 26 27  2  0
 27 22  1  0
M  END
>  <Classification>  (30) 
0

>  <pchembl>  (30) 
4.16

>  <InChI_steorem>  (30) 
InChI=1S/C15H14F3N3O4S2/c16-15(17,18)10-7-11-13(8-12(10)26(19,22)23)27(24,25)21-14(20-11)6-9-4-2-1-3-5-9/h1-5,7-8,14,20-21H,6H2,(H2,19,22,23)

>  <source>  (30) 
ChEMBL25

>  <source_id>  (30) 
25

>  <optional_reference>  (30) 
10.1124/dmd.112.047068

>  <optional_origin>  (30) 
None

>  <target>  (30) 
BSEP

$$$$

     RDKit          2D

 24 26  0  0  0  0  0  0  0  0999 V2000
   -0.1038   -1.9631    0.0000 N   0  0  0  0  0  0  0  0  0  0  0  0
    1.3251    1.3369    0.0000 C   0  0  0  0  0  0  0  0  0  0  0  0
    0.6107    0.0994    0.0000 C   0  0  0  0  0  0  0  0  0  0  0  0
   -0.1038    0.5119    0.0000 C   0  0  0  0  0  0  0  0  0  0  0  0
   -0.1038    1.3369    0.0000 C   0  0  0  0  0  0  0  0  0  0  0  0
    0.6107    3.3994    0.0000 O   0  0  0  0  0  0  0  0  0  0  0  0
    0.6107    2.5744    0.0000 S   0  0  0  0  0  0  0  0  0  0  0  0
   -0.2143    2.5744    0.0000 O   0  0  0  0  0  0  0  0  0  0  0  0
    1.4357    2.5744    0.0000 C   0  0  0  0  0  0  0  0  0  0  0  0
    0.6107    1.7494    0.0000 C   0  0  0  0  0  0  0  0  0  0  0  0
    1.3251    0.5119    0.0000 C   0  0  0  0  0  0  0  0  0  0  0  0
    0.6107   -0.7256    0.0000 C   0  0  0  0  0  0  0  0  0  0  0  0
    1.3251   -1.1381    0.0000 C   0  0  0  0  0  0  0  0  0  0  0  0
    1.3251   -1.9631    0.0000 C   0  0  0  0  0  0  0  0  0  0  0  0
    2.0396   -2.3756    0.0000 Cl  0  0  0  0  0  0  0  0  0  0  0  0
    0.6107   -2.3756    0.0000 C   0  0  0  0  0  0  0  0  0  0  0  0
   -0.1038   -1.1381    0.0000 C   0  0  0  0  0  0  0  0  0  0  0  0
   -0.8183   -0.7256    0.0000 C   0  0  0  0  0  0  0  0  0  0  0  0
   -1.5328   -1.1381    0.0000 C   0  0  0  0  0  0  0  0  0  0  0  0
   -2.2472   -0.7256    0.0000 C   0  0  0  0  0  0  0  0  0  0  0  0
   -2.2472    0.0994    0.0000 C   0  0  0  0  0  0  0  0  0  0  0  0
   -2.9617    0.5119    0.0000 C   0  0  0  0  0  0  0  0  0  0  0  0
   -1.5328    0.5119    0.0000 N   0  0  0  0  0  0  0  0  0  0  0  0
   -0.8183    0.0994    0.0000 C   0  0  0  0  0  0  0  0  0  0  0  0
 16  1  2  0
 17  1  1  0
 10  2  2  0
  2 11  1  0
  3  4  1  0
 11  3  2  0
  3 12  1  0
  4  5  2  0
 10  5  1  0
  6  7  2  0
  8  7  2  0
  9  7  1  0
 10  7  1  0
 13 12  1  0
 12 17  2  0
 14 13  2  0
 14 15  1  0
 16 14  1  0
 18 17  1  0
 18 19  2  0
 18 24  1  0
 20 19  1  0
 21 20  2  0
 21 22  1  0
 21 23  1  0
 24 23  2  0
M  END
>  <Classification>  (31) 
0

>  <pchembl>  (31) 
4.35

>  <InChI_steorem>  (31) 
InChI=1S/C18H15ClN2O2S/c1-12-3-4-14(10-20-12)18-17(9-15(19)11-21-18)13-5-7-16(8-6-13)24(2,22)23/h3-11H,1-2H3

>  <source>  (31) 
ChEMBL25

>  <source_id>  (31) 
25

>  <optional_reference>  (31) 
10.1093/toxsci/kfq269

>  <optional_origin>  (31) 
None

>  <target>  (31) 
BSEP

$$$$

     RDKit          2D

 27 31  0  0  0  0  0  0  0  0999 V2000
   -0.0493    0.4776    0.0000 C   0  0  0  0  0  0  0  0  0  0  0  0
    2.2331    1.4349    0.0000 C   0  0  0  0  0  0  0  0  0  0  0  0
    0.3994   -1.6585    0.0000 C   0  0  0  0  0  0  0  0  0  0  0  0
   -0.3614   -1.9777    0.0000 C   0  0  0  0  0  0  0  0  0  0  0  0
    0.7115    0.7967    0.0000 C   0  0  0  0  0  0  0  0  0  0  0  0
    2.9939    1.7540    0.0000 C   0  0  0  0  0  0  0  0  0  0  0  0
    2.7858    0.1172    0.0000 C   0  0  0  0  0  0  0  0  0  0  0  0
   -0.1533   -0.3408    0.0000 C   0  0  0  0  0  0  0  0  0  0  0  0
   -0.9141   -0.6599    0.0000 C   0  0  0  0  0  0  0  0  0  0  0  0
    2.1290    0.6165    0.0000 C   0  0  0  0  0  0  0  0  0  0  0  0
    0.5034   -0.8401    0.0000 C   0  0  0  0  0  0  0  0  0  0  0  0
   -1.6603   -0.3081    0.0000 C   0  0  0  0  0  0  0  0  0  0  0  0
   -1.0181   -1.4783    0.0000 C   0  0  0  0  0  0  0  0  0  0  0  0
    1.3683    0.2974    0.0000 C   0  0  0  0  0  0  0  0  0  0  0  0
   -2.2255   -0.9090    0.0000 C   0  0  0  0  0  0  0  0  0  0  0  0
    3.6506    1.2547    0.0000 C   0  0  0  0  0  0  0  0  0  0  0  0
   -3.0478   -0.8418    0.0000 C   0  0  0  0  0  0  0  0  0  0  0  0
   -2.4894    0.9258    0.0000 C   0  0  0  0  0  0  0  0  0  0  0  0
   -3.2594    0.6296    0.0000 C   0  0  0  0  0  0  0  0  0  0  0  0
    4.4114    1.5738    0.0000 C   0  0  0  0  0  0  0  0  0  0  0  0
   -3.8604    1.1948    0.0000 C   0  0  0  0  0  0  0  0  0  0  0  0
    3.5466    0.4363    0.0000 N   0  0  0  0  0  0  0  0  0  0  0  0
    1.2642   -0.5210    0.0000 N   0  0  0  0  0  0  0  0  0  0  0  0
   -1.7778    0.5085    0.0000 N   0  0  0  0  0  0  0  0  0  0  0  0
   -3.5079   -0.1571    0.0000 N   0  0  0  0  0  0  0  0  0  0  0  0
   -3.4651   -1.5535    0.0000 O   0  0  0  0  0  0  0  0  0  0  0  0
   -1.8287   -1.6323    0.0000 S   0  0  0  0  0  0  0  0  0  0  0  0
  5  1  2  0
  1  8  1  0
  2  6  2  0
 10  2  1  0
  3  4  1  0
  3 11  2  0
 13  4  2  0
 14  5  1  0
  6 16  1  0
 10  7  2  0
  7 22  1  0
  8  9  2  0
 11  8  1  0
  9 12  1  0
  9 13  1  0
 14 10  1  0
 11 23  1  0
 12 15  2  0
 12 24  1  0
 13 27  1  0
 14 23  2  0
 17 15  1  0
 15 27  1  0
 16 20  1  0
 16 22  2  0
 17 25  1  0
 17 26  2  0
 19 18  1  0
 18 24  1  0
 19 21  1  0
 19 25  1  0
M  END
>  <Classification>  (32) 
1

>  <pchembl>  (32) 
5.16

>  <InChI_steorem>  (32) 
InChI=1S/C21H18N4OS/c1-11-3-4-13(10-22-11)15-6-5-14-16(25-15)7-8-17-18(14)19-20(27-17)21(26)24-12(2)9-23-19/h3-8,10,12,23H,9H2,1-2H3,(H,24,26)

>  <source>  (32) 
ChEMBL25

>  <source_id>  (32) 
25

>  <optional_reference>  (32) 
10.1021/acs.jmedchem.5b01457

>  <optional_origin>  (32) 
None

>  <target>  (32) 
BSEP

$$$$

     RDKit          2D

 28 30  0  0  0  0  0  0  0  0999 V2000
   -1.5976   -2.6175    0.0000 C   0  0  0  0  0  0  0  0  0  0  0  0
   -2.3120   -3.0300    0.0000 C   0  0  0  0  0  0  0  0  0  0  0  0
   -3.0265   -2.6175    0.0000 C   0  0  0  0  0  0  0  0  0  0  0  0
   -3.0265   -1.7925    0.0000 C   0  0  0  0  0  0  0  0  0  0  0  0
   -2.3120   -1.3800    0.0000 C   0  0  0  0  0  0  0  0  0  0  0  0
   -1.5976   -1.7925    0.0000 C   0  0  0  0  0  0  0  0  0  0  0  0
   -2.3120   -0.5550    0.0000 O   0  0  0  0  0  0  0  0  0  0  0  0
   -1.5976   -0.1425    0.0000 C   0  0  0  0  0  0  0  0  0  0  0  0
   -1.5976    0.6825    0.0000 C   0  0  0  0  0  0  0  0  0  0  0  0
   -0.8831    1.0950    0.0000 C   0  0  0  0  0  0  0  0  0  0  0  0
   -0.1686    0.6825    0.0000 C   0  0  0  0  0  0  0  0  0  0  0  0
   -0.1686   -0.1425    0.0000 C   0  0  0  0  0  0  0  0  0  0  0  0
   -0.8831   -0.5550    0.0000 C   0  0  0  0  0  0  0  0  0  0  0  0
    0.5459    1.0950    0.0000 S   0  0  0  0  0  0  0  0  0  0  0  0
    0.1334    1.8095    0.0000 O   0  0  0  0  0  0  0  0  0  0  0  0
    0.9584    0.3805    0.0000 O   0  0  0  0  0  0  0  0  0  0  0  0
    1.2603    1.5075    0.0000 C   0  0  0  0  0  0  0  0  0  0  0  0
    1.9748    1.0950    0.0000 C   0  0  0  0  0  0  0  0  0  0  0  0
    2.7873    0.9517    0.0000 C   0  0  0  0  0  0  0  0  0  0  0  0
    3.0694    0.1765    0.0000 C   0  0  0  0  0  0  0  0  0  0  0  0
    2.5391   -0.4555    0.0000 O   0  0  0  0  0  0  0  0  0  0  0  0
    1.7267   -0.3122    0.0000 C   0  0  0  0  0  0  0  0  0  0  0  0
    1.4445    0.4630    0.0000 C   0  0  0  0  0  0  0  0  0  0  0  0
    2.2570    1.8702    0.0000 C   0  0  0  0  0  0  0  0  0  0  0  0
    1.7267    2.5022    0.0000 N   0  0  0  0  0  0  0  0  0  0  0  0
    3.0694    2.0135    0.0000 O   0  0  0  0  0  0  0  0  0  0  0  0
    2.0088    3.2775    0.0000 O   0  0  0  0  0  0  0  0  0  0  0  0
   -2.3120   -3.8550    0.0000 Cl  0  0  0  0  0  0  0  0  0  0  0  0
  1  2  2  0
  1  6  1  0
  2  3  1  0
  2 28  1  0
  3  4  2  0
  4  5  1  0
  5  6  2  0
  5  7  1  0
  8  7  1  0
  8  9  2  0
  8 13  1  0
  9 10  1  0
 10 11  2  0
 11 12  1  0
 11 14  1  0
 12 13  2  0
 15 14  2  0
 16 14  2  0
 17 14  1  0
 17 18  1  0
 18 19  1  0
 18 23  1  0
 18 24  1  0
 19 20  1  0
 20 21  1  0
 22 21  1  0
 22 23  1  0
 24 25  1  0
 24 26  2  0
 25 27  1  0
M  END
>  <Classification>  (33) 
0

>  <pchembl>  (33) 
4.63

>  <InChI_steorem>  (33) 
InChI=1S/C19H20ClNO6S/c20-14-1-3-15(4-2-14)27-16-5-7-17(8-6-16)28(24,25)13-19(18(22)21-23)9-11-26-12-10-19/h1-8,23H,9-13H2,(H,21,22)

>  <source>  (33) 
ChEMBL25

>  <source_id>  (33) 
25

>  <optional_reference>  (33) 
10.1124/dmd.112.047068

>  <optional_origin>  (33) 
None

>  <target>  (33) 
BSEP

$$$$

     RDKit          2D

 33 36  0  0  0  0  0  0  0  0999 V2000
   -0.0454   -1.7244    0.0000 C   0  0  0  0  0  0  0  0  0  0  0  0
   -0.8704   -1.7244    0.0000 C   0  0  0  0  0  0  0  0  0  0  0  0
   -1.3553   -2.3918    0.0000 C   0  0  0  0  0  0  0  0  0  0  0  0
    0.9711    4.4952    0.0000 N   0  0  0  0  0  0  0  0  0  0  0  0
   -2.4745   -5.1478    0.0000 C   0  0  0  0  0  0  0  0  0  0  0  0
   -2.8101   -4.3941    0.0000 C   0  0  0  0  0  0  0  0  0  0  0  0
   -2.3251   -3.7267    0.0000 C   0  0  0  0  0  0  0  0  0  0  0  0
   -2.6607   -2.9730    0.0000 C   0  0  0  0  0  0  0  0  0  0  0  0
    0.2566    0.7827    0.0000 C   0  0  0  0  0  0  0  0  0  0  0  0
    0.2566    1.6077    0.0000 C   0  0  0  0  0  0  0  0  0  0  0  0
    0.9711    2.0202    0.0000 C   0  0  0  0  0  0  0  0  0  0  0  0
    1.6855    0.7827    0.0000 C   0  0  0  0  0  0  0  0  0  0  0  0
    2.4000    0.3702    0.0000 C   0  0  0  0  0  0  0  0  0  0  0  0
    0.2566    3.2577    0.0000 C   0  0  0  0  0  0  0  0  0  0  0  0
    1.6855    3.2577    0.0000 C   0  0  0  0  0  0  0  0  0  0  0  0
    0.9711    5.3202    0.0000 C   0  0  0  0  0  0  0  0  0  0  0  0
    1.6855    5.7327    0.0000 C   0  0  0  0  0  0  0  0  0  0  0  0
   -0.4579    0.3702    0.0000 N   0  0  0  0  0  0  0  0  0  0  0  0
   -0.4579   -0.4548    0.0000 C   0  0  0  0  0  0  0  0  0  0  0  0
    0.2096   -0.9397    0.0000 N   0  0  0  0  0  0  0  0  0  0  0  0
   -1.1253   -0.9397    0.0000 S   0  0  0  0  0  0  0  0  0  0  0  0
   -1.0197   -3.1455    0.0000 N   0  0  0  0  0  0  0  0  0  0  0  0
   -1.5047   -3.8129    0.0000 C   0  0  0  0  0  0  0  0  0  0  0  0
   -1.1691   -4.5666    0.0000 C   0  0  0  0  0  0  0  0  0  0  0  0
   -1.6540   -5.2340    0.0000 C   0  0  0  0  0  0  0  0  0  0  0  0
   -0.3486   -4.6528    0.0000 Cl  0  0  0  0  0  0  0  0  0  0  0  0
   -2.1758   -2.3056    0.0000 O   0  0  0  0  0  0  0  0  0  0  0  0
    1.6855    1.6077    0.0000 N   0  0  0  0  0  0  0  0  0  0  0  0
    0.9711    0.3702    0.0000 N   0  0  0  0  0  0  0  0  0  0  0  0
    0.9711    2.8452    0.0000 N   0  0  0  0  0  0  0  0  0  0  0  0
    0.2566    4.0827    0.0000 C   0  0  0  0  0  0  0  0  0  0  0  0
    1.6855    4.0827    0.0000 C   0  0  0  0  0  0  0  0  0  0  0  0
    1.6855    6.5577    0.0000 O   0  0  0  0  0  0  0  0  0  0  0  0
  1  2  2  0
  1 20  1  0
  2  3  1  0
  2 21  1  0
  3 22  1  0
  3 27  2  0
 16  4  1  0
 31  4  1  0
 32  4  1  0
  5  6  2  0
 25  5  1  0
  6  7  1  0
  8  7  1  0
 23  7  2  0
  9 10  2  0
  9 18  1  0
  9 29  1  0
 10 11  1  0
 11 28  2  0
 11 30  1  0
 12 13  1  0
 12 28  1  0
 12 29  2  0
 14 30  1  0
 14 31  1  0
 15 30  1  0
 32 15  1  0
 16 17  1  0
 17 33  1  0
 19 18  1  0
 19 20  2  0
 19 21  1  0
 23 22  1  0
 23 24  1  0
 24 25  2  0
 24 26  1  0
M  END
>  <Classification>  (34) 
0

>  <pchembl>  (34) 
4.88

>  <InChI_steorem>  (34) 
InChI=1S/C22H26ClN7O2S/c1-14-4-3-5-16(23)20(14)28-21(32)17-13-24-22(33-17)27-18-12-19(26-15(2)25-18)30-8-6-29(7-9-30)10-11-31/h3-5,12-13,31H,6-11H2,1-2H3,(H,28,32)(H,24,25,26,27)

>  <source>  (34) 
ChEMBL25

>  <source_id>  (34) 
25

>  <optional_reference>  (34) 
10.1093/toxsci/kft176

>  <optional_origin>  (34) 
None

>  <target>  (34) 
BSEP

$$$$

     RDKit          2D

 31 35  0  0  0  0  0  0  0  0999 V2000
   18.9499  -28.6353    0.0000 C   0  0  0  0  0  0  0  0  0  0  0  0
   18.1660  -28.8924    0.0000 C   0  0  0  0  0  0  0  0  0  0  0  0
   18.1722  -29.7143    0.0000 C   0  0  0  0  0  0  0  0  0  0  0  0
   16.0226  -30.1189    0.0000 C   0  0  0  0  0  0  0  0  0  0  0  0
   17.4389  -30.1295    0.0000 C   0  0  0  0  0  0  0  0  0  0  0  0
   19.4452  -29.3034    0.0000 C   0  0  0  0  0  0  0  0  0  0  0  0
   16.7307  -29.7038    0.0000 C   0  0  0  0  0  0  0  0  0  0  0  0
   16.0142  -30.9409    0.0000 C   0  0  0  0  0  0  0  0  0  0  0  0
   19.4368  -27.9609    0.0000 O   0  0  0  0  0  0  0  0  0  0  0  0
   17.4663  -28.4772    0.0000 C   0  0  0  0  0  0  0  0  0  0  0  0
   16.7392  -28.8818    0.0000 C   0  0  0  0  0  0  0  0  0  0  0  0
   15.3082  -29.7038    0.0000 C   0  0  0  0  0  0  0  0  0  0  0  0
   18.9647  -29.9778    0.0000 C   0  0  0  0  0  0  0  0  0  0  0  0
   20.2292  -29.0463    0.0000 O   0  0  0  0  0  0  0  0  0  0  0  0
   18.9499  -27.8070    0.0000 C   0  0  0  0  0  0  0  0  0  0  0  0
   15.3082  -31.3519    0.0000 C   0  0  0  0  0  0  0  0  0  0  0  0
   20.2292  -28.2201    0.0000 C   0  0  0  0  0  0  0  0  0  0  0  0
   17.4451  -30.9409    0.0000 C   0  0  0  0  0  0  0  0  0  0  0  0
   14.5980  -30.1189    0.0000 C   0  0  0  0  0  0  0  0  0  0  0  0
   14.5980  -30.9409    0.0000 C   0  0  0  0  0  0  0  0  0  0  0  0
   16.7307  -31.3519    0.0000 C   0  0  0  0  0  0  0  0  0  0  0  0
   18.2249  -27.4088    0.0000 O   0  0  0  0  0  0  0  0  0  0  0  0
   13.8814  -31.3519    0.0000 O   0  0  0  0  0  0  0  0  0  0  0  0
   18.1617  -28.0663    0.0000 C   0  0  0  0  0  0  0  0  0  0  0  0
   16.0226  -28.4667    0.0000 O   0  0  0  0  0  0  0  0  0  0  0  0
   16.0120  -29.2928    0.0000 C   0  0  0  0  0  0  0  0  0  0  0  0
   19.6581  -27.3919    0.0000 C   0  0  0  0  0  0  0  0  0  0  0  0
   19.6496  -26.5699    0.0000 O   0  0  0  0  0  0  0  0  0  0  0  0
   20.9457  -27.7923    0.0000 C   0  0  0  0  0  0  0  0  0  0  0  0
   21.6601  -28.2033    0.0000 C   0  0  0  0  0  0  0  0  0  0  0  0
   22.3682  -27.7923    0.0000 C   0  0  0  0  0  0  0  0  0  0  0  0
  2  1  1  0
  3  2  1  0
  4  7  1  0
  5  3  1  0
  6  1  1  0
  7 11  1  0
  8  4  1  0
  1  9  1  0
 10  2  1  0
 11 10  1  0
 12  4  1  0
 13  6  1  0
  6 14  1  0
  1 15  1  0
 16  8  2  0
 17  9  1  0
 18  5  1  0
 19 12  2  0
 20 19  1  0
 21 18  1  0
 22 15  2  0
 23 20  2  0
  2 24  1  0
 11 25  1  0
  4 26  1  0
 27 15  1  0
 28 27  1  0
 29 17  1  0
 30 29  1  0
 31 30  1  0
 14 17  1  0
  3 13  1  0
  5  7  1  0
  8 21  1  0
 16 20  1  0
M  END
>  <Classification>  (35) 
0

>  <pchembl>  (35) 
4.34

>  <InChI_steorem>  (35) 
InChI=1S/C25H34O6/c1-4-5-21-30-20-11-17-16-7-6-14-10-15(27)8-9-23(14,2)22(16)18(28)12-24(17,3)25(20,31-21)19(29)13-26/h8-10,16-18,20-22,26,28H,4-7,11-13H2,1-3H3

>  <source>  (35) 
ChEMBL25

>  <source_id>  (35) 
25

>  <optional_reference>  (35) 
10.1093/toxsci/kft176

>  <optional_origin>  (35) 
None

>  <target>  (35) 
BSEP

$$$$

     RDKit          2D

 23 25  0  0  0  0  0  0  0  0999 V2000
    2.2358   -0.3286    0.0000 N   0  0  0  0  0  0  0  0  0  0  0  0
    1.5683    0.1563    0.0000 C   0  0  0  0  0  0  0  0  0  0  0  0
    1.9808   -1.1132    0.0000 C   0  0  0  0  0  0  0  0  0  0  0  0
    0.9009   -0.3286    0.0000 S   0  0  0  0  0  0  0  0  0  0  0  0
    1.1558   -1.1132    0.0000 C   0  0  0  0  0  0  0  0  0  0  0  0
    1.5683    0.9813    0.0000 O   0  0  0  0  0  0  0  0  0  0  0  0
    2.4657   -1.7806    0.0000 O   0  0  0  0  0  0  0  0  0  0  0  0
    0.6709   -1.7806    0.0000 C   0  0  0  0  0  0  0  0  0  0  0  0
   -3.7671   -0.5958    0.0000 C   0  0  0  0  0  0  0  0  0  0  0  0
   -2.6110   -1.4357    0.0000 O   0  0  0  0  0  0  0  0  0  0  0  0
   -0.1496   -1.6944    0.0000 C   0  0  0  0  0  0  0  0  0  0  0  0
   -2.9466   -0.6820    0.0000 C   0  0  0  0  0  0  0  0  0  0  0  0
   -1.7905   -1.5219    0.0000 C   0  0  0  0  0  0  0  0  0  0  0  0
   -0.4851   -0.9407    0.0000 C   0  0  0  0  0  0  0  0  0  0  0  0
   -0.6345   -2.3619    0.0000 C   0  0  0  0  0  0  0  0  0  0  0  0
   -1.4550   -2.2756    0.0000 C   0  0  0  0  0  0  0  0  0  0  0  0
   -1.3056   -0.8545    0.0000 C   0  0  0  0  0  0  0  0  0  0  0  0
   -3.7095   -1.4188    0.0000 C   0  0  0  0  0  0  0  0  0  0  0  0
   -3.5397    0.1972    0.0000 C   0  0  0  0  0  0  0  0  0  0  0  0
   -4.5676   -0.7954    0.0000 C   0  0  0  0  0  0  0  0  0  0  0  0
   -5.1407   -0.2019    0.0000 C   0  0  0  0  0  0  0  0  0  0  0  0
   -4.1128    0.7907    0.0000 C   0  0  0  0  0  0  0  0  0  0  0  0
   -4.9133    0.5911    0.0000 C   0  0  0  0  0  0  0  0  0  0  0  0
  2  1  1  0
  3  1  1  0
  4  2  1  0
  5  3  1  0
  6  2  2  0
  7  3  2  0
  8  5  1  0
  9 12  1  0
 10 13  1  0
 11  8  1  0
 12 10  1  0
 13 16  1  0
 14 11  2  0
 15 11  1  0
 16 15  2  0
 17 14  1  0
 18  9  1  0
 19  9  1  0
 20  9  1  0
 21 20  1  0
 22 19  1  0
 23 22  1  0
  4  5  1  0
 17 13  2  0
 23 21  1  0
M  END
>  <Classification>  (36) 
0

>  <pchembl>  (36) 
4.42

>  <InChI_steorem>  (36) 
InChI=1S/C18H23NO3S/c1-18(9-3-2-4-10-18)12-22-14-7-5-13(6-8-14)11-15-16(20)19-17(21)23-15/h5-8,15H,2-4,9-12H2,1H3,(H,19,20,21)

>  <source>  (36) 
ChEMBL25

>  <source_id>  (36) 
25

>  <optional_reference>  (36) 
10.1093/toxsci/kfq269

>  <optional_origin>  (36) 
None

>  <target>  (36) 
BSEP

$$$$

     RDKit          2D

 27 29  0  0  0  0  0  0  0  0999 V2000
   -0.8903   -3.1141    0.0000 C   0  0  0  0  0  0  0  0  0  0  0  0
   -1.1452   -2.3295    0.0000 C   0  0  0  0  0  0  0  0  0  0  0  0
   -0.5932   -1.7164    0.0000 C   0  0  0  0  0  0  0  0  0  0  0  0
   -0.0833   -3.2856    0.0000 C   0  0  0  0  0  0  0  0  0  0  0  0
    0.4687   -2.6726    0.0000 C   0  0  0  0  0  0  0  0  0  0  0  0
    0.2138   -1.8879    0.0000 N   0  0  0  0  0  0  0  0  0  0  0  0
    0.8812   -1.4030    0.0000 C   0  0  0  0  0  0  0  0  0  0  0  0
    1.5487   -1.8879    0.0000 C   0  0  0  0  0  0  0  0  0  0  0  0
    1.2937   -2.6726    0.0000 N   0  0  0  0  0  0  0  0  0  0  0  0
    2.3333   -1.6330    0.0000 C   0  0  0  0  0  0  0  0  0  0  0  0
    2.9464   -2.1850    0.0000 C   0  0  0  0  0  0  0  0  0  0  0  0
    3.7310   -1.9301    0.0000 C   0  0  0  0  0  0  0  0  0  0  0  0
    3.9025   -1.1231    0.0000 C   0  0  0  0  0  0  0  0  0  0  0  0
    3.2894   -0.5711    0.0000 C   0  0  0  0  0  0  0  0  0  0  0  0
    2.5048   -0.8260    0.0000 C   0  0  0  0  0  0  0  0  0  0  0  0
    4.6872   -0.8682    0.0000 Cl  0  0  0  0  0  0  0  0  0  0  0  0
    0.8812   -0.5780    0.0000 C   0  0  0  0  0  0  0  0  0  0  0  0
    0.1668   -0.1655    0.0000 C   0  0  0  0  0  0  0  0  0  0  0  0
    0.1668    0.6595    0.0000 N   0  0  0  0  0  0  0  0  0  0  0  0
   -0.5477   -0.5780    0.0000 O   0  0  0  0  0  0  0  0  0  0  0  0
   -0.5477    1.0720    0.0000 C   0  0  0  0  0  0  0  0  0  0  0  0
    0.8812    1.0720    0.0000 C   0  0  0  0  0  0  0  0  0  0  0  0
   -0.5477    1.8970    0.0000 C   0  0  0  0  0  0  0  0  0  0  0  0
   -1.2622    2.3095    0.0000 C   0  0  0  0  0  0  0  0  0  0  0  0
    0.8812    1.8970    0.0000 C   0  0  0  0  0  0  0  0  0  0  0  0
    1.5957    2.3095    0.0000 C   0  0  0  0  0  0  0  0  0  0  0  0
   -1.9522   -2.1580    0.0000 Cl  0  0  0  0  0  0  0  0  0  0  0  0
  2  3  2  0
 10 15  2  0
 11 12  2  0
 12 13  1  0
 13 14  2  0
 14 15  1  0
  3  6  1  0
 13 16  1  0
  6  7  1  0
  7 17  1  0
  7  8  2  0
 17 18  1  0
  8  9  1  0
 18 19  1  0
  9  5  2  0
 18 20  2  0
  5  4  1  0
 19 21  1  0
  8 10  1  0
 19 22  1  0
 10 11  1  0
 21 23  1  0
  5  6  1  0
 23 24  1  0
 22 25  1  0
  1  2  1  0
 25 26  1  0
  1  4  2  0
  2 27  1  0
M  END
>  <Classification>  (37) 
1

>  <pchembl>  (37) 
5.04

>  <InChI_steorem>  (37) 
InChI=1S/C21H23Cl2N3O/c1-3-11-25(12-4-2)20(27)13-18-21(15-5-7-16(22)8-6-15)24-19-10-9-17(23)14-26(18)19/h5-10,14H,3-4,11-13H2,1-2H3

>  <source>  (37) 
ChEMBL25

>  <source_id>  (37) 
25

>  <optional_reference>  (37) 
10.1124/dmd.111.040758

>  <optional_origin>  (37) 
None

>  <target>  (37) 
BSEP

$$$$

     RDKit          2D

 32 37  0  0  0  0  0  0  0  0999 V2000
    0.2236   -0.8931    0.0000 C   0  0  0  0  0  0  0  0  0  0  0  0
    0.9590   -0.5194    0.0000 C   0  0  0  0  0  0  0  0  0  0  0  0
    0.6730   -0.1028    0.0000 C   0  0  0  0  0  0  0  0  0  0  0  0
    1.6946   -0.8931    0.0000 C   0  0  0  0  0  0  0  0  0  0  0  0
    1.4085   -0.4765    0.0000 C   0  0  0  0  0  0  0  0  0  0  0  0
    2.1441   -0.1028    0.0000 C   0  0  0  0  0  0  0  0  0  0  0  0
    0.6730    0.6446    0.0000 C   0  0  0  0  0  0  0  0  0  0  0  0
    1.4085    1.0183    0.0000 C   0  0  0  0  0  0  0  0  0  0  0  0
    0.9590    0.2280    0.0000 C   0  0  0  0  0  0  0  0  0  0  0  0
    2.1441    0.6446    0.0000 C   0  0  0  0  0  0  0  0  0  0  0  0
    2.9417   -0.3137    0.0000 C   0  0  0  0  0  0  0  0  0  0  0  0
    3.5232    0.2715    0.0000 C   0  0  0  0  0  0  0  0  0  0  0  0
    4.3207    0.0606    0.0000 N   0  0  0  0  0  0  0  0  0  0  0  0
    4.9022    0.6458    0.0000 C   0  0  0  0  0  0  0  0  0  0  0  0
    4.6861    1.4420    0.0000 C   0  0  0  0  0  0  0  0  0  0  0  0
    5.2676    2.0273    0.0000 C   0  0  0  0  0  0  0  0  0  0  0  0
    6.0652    1.8163    0.0000 C   0  0  0  0  0  0  0  0  0  0  0  0
    6.2813    1.0201    0.0000 C   0  0  0  0  0  0  0  0  0  0  0  0
    5.6998    0.4349    0.0000 C   0  0  0  0  0  0  0  0  0  0  0  0
    3.8885    1.6530    0.0000 C   0  0  0  0  0  0  0  0  0  0  0  0
    7.0788    0.8092    0.0000 C   0  0  0  0  0  0  0  0  0  0  0  0
    7.2949    0.0130    0.0000 N   0  0  0  0  0  0  0  0  0  0  0  0
    7.2085   -0.8183    0.0000 C   0  0  0  0  0  0  0  0  0  0  0  0
    8.1600   -1.0843    0.0000 C   0  0  0  0  0  0  0  0  0  0  0  0
    8.8815   -1.4616    0.0000 O   0  0  0  0  0  0  0  0  0  0  0  0
    8.6407   -0.8026    0.0000 C   0  0  0  0  0  0  0  0  0  0  0  0
    7.7167   -0.5610    0.0000 C   0  0  0  0  0  0  0  0  0  0  0  0
    8.9292    0.0700    0.0000 C   0  0  0  0  0  0  0  0  0  0  0  0
    8.4519   -0.1697    0.0000 C   0  0  0  0  0  0  0  0  0  0  0  0
    8.2079    0.4427    0.0000 N   0  0  0  0  0  0  0  0  0  0  0  0
    3.3071    1.0677    0.0000 O   0  0  0  0  0  0  0  0  0  0  0  0
    7.6603    1.3944    0.0000 O   0  0  0  0  0  0  0  0  0  0  0  0
 14 15  2  0
  4  6  1  0
 15 16  1  0
  5  6  1  0
 16 17  2  0
  7  8  1  0
 17 18  1  0
  3  5  1  0
 18 19  2  0
 19 14  1  0
  2  4  1  0
 15 20  1  0
  1  3  1  0
 18 21  1  0
 10  8  1  0
 21 22  1  0
 22 23  1  0
  8  9  1  0
  6 11  1  0
  1  2  1  0
 11 12  1  0
 22 27  1  0
 23 24  1  0
 24 25  1  0
 25 26  1  0
 26 27  1  0
  6 10  1  0
 26 28  1  0
 12 13  1  0
 24 29  1  0
  2  9  1  0
 29 30  1  0
 30 28  1  0
 13 14  1  0
 12 31  2  0
  3  7  1  0
 21 32  2  0
M  END
>  <Classification>  (38) 
0

>  <pchembl>  (38) 
4.22

>  <InChI_steorem>  (38) 
InChI=1S/C26H35N3O3/c1-16-2-3-20(25(31)29-14-21-12-27-13-22(15-29)32-21)7-23(16)28-24(30)11-26-8-17-4-18(9-26)6-19(5-17)10-26/h2-3,7,17-19,21-22,27H,4-6,8-15H2,1H3,(H,28,30)

>  <source>  (38) 
ChEMBL25

>  <source_id>  (38) 
25

>  <optional_reference>  (38) 
10.1124/dmd.112.047068

>  <optional_origin>  (38) 
None

>  <target>  (38) 
BSEP

$$$$

     RDKit          2D

 33 35  0  0  0  0  0  0  0  0999 V2000
   15.8981   -9.0304    0.0000 S   0  0  0  0  0  0  0  0  0  0  0  0
   16.6080   -9.4348    0.0000 N   0  0  0  0  0  0  0  0  0  0  0  0
   10.2438  -10.6854    0.0000 C   0  0  0  0  0  0  0  0  0  0  0  0
   17.3137   -9.0180    0.0000 C   0  0  0  0  0  0  0  0  0  0  0  0
   10.9495  -10.2685    0.0000 C   0  0  0  0  0  0  0  0  0  0  0  0
   15.1923   -9.4390    0.0000 C   0  0  0  0  0  0  0  0  0  0  0  0
   15.4689   -8.3246    0.0000 O   0  0  0  0  0  0  0  0  0  0  0  0
   16.2860   -8.3122    0.0000 O   0  0  0  0  0  0  0  0  0  0  0  0
   10.2438  -11.5067    0.0000 C   0  0  0  0  0  0  0  0  0  0  0  0
   18.0195   -9.4266    0.0000 N   0  0  0  0  0  0  0  0  0  0  0  0
    9.5380  -10.2768    0.0000 C   0  0  0  0  0  0  0  0  0  0  0  0
   17.3096   -8.2008    0.0000 O   0  0  0  0  0  0  0  0  0  0  0  0
   10.9495   -9.4514    0.0000 O   0  0  0  0  0  0  0  0  0  0  0  0
   11.6635  -10.6771    0.0000 N   0  0  0  0  0  0  0  0  0  0  0  0
   14.4783   -9.0304    0.0000 C   0  0  0  0  0  0  0  0  0  0  0  0
   15.1965  -10.2562    0.0000 C   0  0  0  0  0  0  0  0  0  0  0  0
    9.5380  -11.9153    0.0000 C   0  0  0  0  0  0  0  0  0  0  0  0
    8.8323  -10.6854    0.0000 C   0  0  0  0  0  0  0  0  0  0  0  0
    8.8323  -11.5067    0.0000 C   0  0  0  0  0  0  0  0  0  0  0  0
   13.7726   -9.4472    0.0000 C   0  0  0  0  0  0  0  0  0  0  0  0
   14.4907  -10.6648    0.0000 C   0  0  0  0  0  0  0  0  0  0  0  0
   13.7849  -10.2562    0.0000 C   0  0  0  0  0  0  0  0  0  0  0  0
    8.1265  -10.2809    0.0000 Cl  0  0  0  0  0  0  0  0  0  0  0  0
   18.0277  -10.2438    0.0000 C   0  0  0  0  0  0  0  0  0  0  0  0
   10.9578  -11.9153    0.0000 O   0  0  0  0  0  0  0  0  0  0  0  0
   12.3693  -10.2685    0.0000 C   0  0  0  0  0  0  0  0  0  0  0  0
   13.0792  -10.6730    0.0000 C   0  0  0  0  0  0  0  0  0  0  0  0
   10.9578  -12.7325    0.0000 C   0  0  0  0  0  0  0  0  0  0  0  0
   17.3220  -10.6524    0.0000 C   0  0  0  0  0  0  0  0  0  0  0  0
   18.7376  -10.6400    0.0000 C   0  0  0  0  0  0  0  0  0  0  0  0
   18.7376  -11.4654    0.0000 C   0  0  0  0  0  0  0  0  0  0  0  0
   17.3220  -11.4654    0.0000 C   0  0  0  0  0  0  0  0  0  0  0  0
   18.0319  -11.8740    0.0000 C   0  0  0  0  0  0  0  0  0  0  0  0
  2  1  1  0
  3  5  1  0
  4  2  1  0
  5 14  1  0
  6  1  1  0
  7  1  2  0
  8  1  2  0
  9  3  2  0
 10  4  1  0
 11  3  1  0
 12  4  2  0
 13  5  2  0
 14 26  1  0
 15  6  2  0
 16  6  1  0
 17  9  1  0
 18 11  2  0
 19 18  1  0
 20 15  1  0
 21 16  2  0
 22 21  1  0
 23 18  1  0
 24 10  1  0
 25  9  1  0
 26 27  1  0
 27 22  1  0
 28 25  1  0
 29 24  1  0
 30 24  1  0
 31 30  1  0
 32 29  1  0
 33 31  1  0
 20 22  2  0
 32 33  1  0
 19 17  2  0
M  END
>  <Classification>  (39) 
0

>  <pchembl>  (39) 
4.56

>  <InChI_steorem>  (39) 
InChI=1S/C23H28ClN3O5S/c1-32-21-12-9-17(24)15-20(21)22(28)25-14-13-16-7-10-19(11-8-16)33(30,31)27-23(29)26-18-5-3-2-4-6-18/h7-12,15,18H,2-6,13-14H2,1H3,(H,25,28)(H2,26,27,29)

>  <source>  (39) 
ChEMBL25

>  <source_id>  (39) 
25

>  <optional_reference>  (39) 
10.1053/gast.2002.36591

>  <optional_origin>  (39) 
None

>  <target>  (39) 
BSEP

$$$$

     RDKit          2D

 19 19  0  0  0  0  0  0  0  0999 V2000
    9.1088  -11.0362    0.0000 C   0  0  0  0  0  0  0  0  0  0  0  0
    8.4030   -9.8104    0.0000 N   0  0  0  0  0  0  0  0  0  0  0  0
    8.3948  -11.4448    0.0000 C   0  0  0  0  0  0  0  0  0  0  0  0
    9.1088  -10.2190    0.0000 C   0  0  0  0  0  0  0  0  0  0  0  0
   11.9359  -11.0280    0.0000 C   0  0  0  0  0  0  0  0  0  0  0  0
   11.2302  -11.4448    0.0000 N   0  0  0  0  0  0  0  0  0  0  0  0
    9.8145  -11.4448    0.0000 C   0  0  0  0  0  0  0  0  0  0  0  0
    9.8145   -9.8022    0.0000 C   0  0  0  0  0  0  0  0  0  0  0  0
    8.3948   -8.9932    0.0000 O   0  0  0  0  0  0  0  0  0  0  0  0
    7.6890  -10.2190    0.0000 O   0  0  0  0  0  0  0  0  0  0  0  0
   10.5244  -11.0362    0.0000 C   0  0  0  0  0  0  0  0  0  0  0  0
   11.9359  -10.2108    0.0000 O   0  0  0  0  0  0  0  0  0  0  0  0
    7.6890  -11.0362    0.0000 F   0  0  0  0  0  0  0  0  0  0  0  0
    8.3948  -12.2620    0.0000 F   0  0  0  0  0  0  0  0  0  0  0  0
    7.6890  -11.8451    0.0000 F   0  0  0  0  0  0  0  0  0  0  0  0
   12.6500  -11.4366    0.0000 C   0  0  0  0  0  0  0  0  0  0  0  0
   10.5244  -10.2108    0.0000 C   0  0  0  0  0  0  0  0  0  0  0  0
   12.6500  -12.2537    0.0000 C   0  0  0  0  0  0  0  0  0  0  0  0
   13.3557  -11.0280    0.0000 C   0  0  0  0  0  0  0  0  0  0  0  0
  2  4  1  0
  3  1  1  0
  4  1  2  0
  5  6  1  0
  6 11  1  0
  7  1  1  0
  8  4  1  0
  9  2  1  0
 10  2  2  0
 11  7  2  0
 12  5  2  0
 13  3  1  0
 14  3  1  0
 15  3  1  0
 16  5  1  0
 17 11  1  0
 18 16  1  0
 19 16  1  0
  8 17  2  0
M  CHG  2   2   1   9  -1
M  END
>  <Classification>  (40) 
0

>  <pchembl>  (40) 
4.3

>  <InChI_steorem>  (40) 
InChI=1S/C11H11F3N2O3/c1-6(2)10(17)15-7-3-4-9(16(18)19)8(5-7)11(12,13)14/h3-6H,1-2H3,(H,15,17)

>  <source>  (40) 
ChEMBL25

>  <source_id>  (40) 
25

>  <optional_reference>  (40) 
10.1093/toxsci/kfq269

>  <optional_origin>  (40) 
None

>  <target>  (40) 
BSEP

$$$$

     RDKit          2D

 32 34  0  0  0  0  0  0  0  0999 V2000
   12.0226  -10.5368    0.0000 N   0  0  0  0  0  0  0  0  0  0  0  0
    9.8765  -14.1770    0.0000 C   0  0  0  0  0  0  0  0  0  0  0  0
   11.1311  -14.5980    0.0000 N   0  0  0  0  0  0  0  0  0  0  0  0
   10.6606  -13.9377    0.0000 N   0  0  0  0  0  0  0  0  0  0  0  0
   10.6482  -15.2501    0.0000 N   0  0  0  0  0  0  0  0  0  0  0  0
    9.8765  -14.9942    0.0000 N   0  0  0  0  0  0  0  0  0  0  0  0
    9.1707  -13.7561    0.0000 C   0  0  0  0  0  0  0  0  0  0  0  0
   12.7284  -10.1158    0.0000 C   0  0  0  0  0  0  0  0  0  0  0  0
   11.3169  -10.1241    0.0000 C   0  0  0  0  0  0  0  0  0  0  0  0
    9.1748  -12.9471    0.0000 C   0  0  0  0  0  0  0  0  0  0  0  0
   13.4341  -10.5203    0.0000 C   0  0  0  0  0  0  0  0  0  0  0  0
   12.0226  -11.3499    0.0000 C   0  0  0  0  0  0  0  0  0  0  0  0
    9.8888  -12.5509    0.0000 C   0  0  0  0  0  0  0  0  0  0  0  0
   11.3169   -9.2986    0.0000 O   0  0  0  0  0  0  0  0  0  0  0  0
   13.4341  -11.3292    0.0000 O   0  0  0  0  0  0  0  0  0  0  0  0
   10.5946  -12.9595    0.0000 C   0  0  0  0  0  0  0  0  0  0  0  0
    9.8930  -11.7255    0.0000 C   0  0  0  0  0  0  0  0  0  0  0  0
   11.3127  -11.7502    0.0000 C   0  0  0  0  0  0  0  0  0  0  0  0
   12.7160   -9.2986    0.0000 C   0  0  0  0  0  0  0  0  0  0  0  0
   14.1399  -10.1158    0.0000 O   0  0  0  0  0  0  0  0  0  0  0  0
   11.3045  -12.5550    0.0000 C   0  0  0  0  0  0  0  0  0  0  0  0
   10.6070  -11.3292    0.0000 C   0  0  0  0  0  0  0  0  0  0  0  0
    8.4649  -14.1646    0.0000 C   0  0  0  0  0  0  0  0  0  0  0  0
   10.6070  -10.5327    0.0000 C   0  0  0  0  0  0  0  0  0  0  0  0
    8.4773  -12.5261    0.0000 C   0  0  0  0  0  0  0  0  0  0  0  0
   13.4217   -8.8901    0.0000 C   0  0  0  0  0  0  0  0  0  0  0  0
   12.0102   -8.8983    0.0000 C   0  0  0  0  0  0  0  0  0  0  0  0
    9.8930  -10.1158    0.0000 C   0  0  0  0  0  0  0  0  0  0  0  0
    9.1748  -10.5203    0.0000 C   0  0  0  0  0  0  0  0  0  0  0  0
    7.7592  -13.7437    0.0000 C   0  0  0  0  0  0  0  0  0  0  0  0
    7.7633  -12.9347    0.0000 C   0  0  0  0  0  0  0  0  0  0  0  0
    8.4815  -10.1158    0.0000 C   0  0  0  0  0  0  0  0  0  0  0  0
  2  7  1  0
  3  4  1  0
  4  2  2  0
  5  6  1  0
  6  2  1  0
  7 10  1  0
  8  1  1  0
  9  1  1  0
 10 13  1  0
 11  8  1  0
 12  1  1  0
 13 17  2  0
 14  9  2  0
 15 11  2  0
 16 21  2  0
 17 22  1  0
 18 12  1  0
  8 19  1  0
 20 11  1  0
 21 18  1  0
 22 18  2  0
 23  7  2  0
 24  9  1  0
 25 10  2  0
 26 19  1  0
 27 19  1  0
 28 24  1  0
 29 28  1  0
 30 31  2  0
 31 25  1  0
 32 29  1  0
 13 16  1  0
 30 23  1  0
  3  5  2  0
M  END
>  <Classification>  (41) 
0

>  <pchembl>  (41) 
4.51

>  <InChI_steorem>  (41) 
InChI=1S/C24H29N5O3/c1-4-5-10-21(30)29(22(16(2)3)24(31)32)15-17-11-13-18(14-12-17)19-8-6-7-9-20(19)23-25-27-28-26-23/h6-9,11-14,16,22H,4-5,10,15H2,1-3H3,(H,31,32)(H,25,26,27,28)

>  <source>  (41) 
ChEMBL25

>  <source_id>  (41) 
25

>  <optional_reference>  (41) 
10.1124/dmd.112.047068

>  <optional_origin>  (41) 
None

>  <target>  (41) 
BSEP

$$$$

     RDKit          2D

 19 19  0  0  0  0  0  0  0  0999 V2000
   -5.2003    1.4932    0.0000 C   0  0  0  0  0  0  0  0  0  0  0  0
   -3.8990    0.7455    0.0000 C   0  0  0  0  0  0  0  0  0  0  0  0
    1.2990   -0.7500    0.0000 C   0  0  0  0  0  0  0  0  0  0  0  0
    2.5973   -1.5031    0.0000 N   0  0  0  0  0  0  0  0  0  0  0  0
   -6.2387    0.8917    0.0000 O   0  0  0  0  0  0  0  0  0  0  0  0
   -2.6003    1.4977    0.0000 C   0  0  0  0  0  0  0  0  0  0  0  0
    0.0000   -1.5000    0.0000 C   0  0  0  0  0  0  0  0  0  0  0  0
    1.2990    0.7500    0.0000 C   0  0  0  0  0  0  0  0  0  0  0  0
   -1.2990    0.7500    0.0000 C   0  0  0  0  0  0  0  0  0  0  0  0
   -3.8969   -0.4545    0.0000 N   0  0  0  0  0  0  0  0  0  0  0  0
   -5.2024    2.6932    0.0000 O   0  0  0  0  0  0  0  0  0  0  0  0
    0.0000    1.5000    0.0000 C   0  0  0  0  0  0  0  0  0  0  0  0
   -1.2990   -0.7500    0.0000 C   0  0  0  0  0  0  0  0  0  0  0  0
    6.2387   -0.9161    0.0000 Cl  0  0  0  0  0  0  0  0  0  0  0  0
    3.8916   -4.9570    0.0000 Cl  0  0  0  0  0  0  0  0  0  0  0  0
    2.5951   -3.0039    0.0000 C   0  0  0  0  0  0  0  0  0  0  0  0
    3.8999   -0.7576    0.0000 C   0  0  0  0  0  0  0  0  0  0  0  0
    3.8933   -3.7570    0.0000 C   0  0  0  0  0  0  0  0  0  0  0  0
    5.1972   -1.5121    0.0000 C   0  0  0  0  0  0  0  0  0  0  0  0
  2  1  1  0
  3  8  2  0
  4  3  1  0
  5  1  2  0
  6  2  1  0
  7 13  2  0
  8 12  1  0
  9  6  1  0
  2 10  1  0
 11  1  1  0
 12  9  2  0
 13  9  1  0
 14 19  1  0
 15 18  1  0
 16  4  1  0
 17  4  1  0
 18 16  1  0
 19 17  1  0
  7  3  1  0
M  END
>  <Classification>  (42) 
0

>  <pchembl>  (42) 
4.03

>  <InChI_steorem>  (42) 
InChI=1S/C13H18Cl2N2O2/c14-5-7-17(8-6-15)11-3-1-10(2-4-11)9-12(16)13(18)19/h1-4,12H,5-9,16H2,(H,18,19)

>  <source>  (42) 
ChEMBL25

>  <source_id>  (42) 
25

>  <optional_reference>  (42) 
10.1124/dmd.112.047068

>  <optional_origin>  (42) 
None

>  <target>  (42) 
BSEP

$$$$

     RDKit          2D

 19 20  0  0  0  0  0  0  0  0999 V2000
    2.5973   -1.5031    0.0000 N   0  0  0  0  0  0  0  0  0  0  0  0
    2.5951   -3.0039    0.0000 C   0  0  0  0  0  0  0  0  0  0  0  0
    1.2990   -0.7500    0.0000 C   0  0  0  0  0  0  0  0  0  0  0  0
    2.5951    3.0039    0.0000 C   0  0  0  0  0  0  0  0  0  0  0  0
    1.2990    0.7500    0.0000 C   0  0  0  0  0  0  0  0  0  0  0  0
    3.8915   -3.7585    0.0000 C   0  0  0  0  0  0  0  0  0  0  0  0
    1.2935   -3.7495    0.0000 C   0  0  0  0  0  0  0  0  0  0  0  0
    2.5972    1.5031    0.0000 C   0  0  0  0  0  0  0  0  0  0  0  0
    1.5548    3.6021    0.0000 O   0  0  0  0  0  0  0  0  0  0  0  0
    3.6331    3.6061    0.0000 O   0  0  0  0  0  0  0  0  0  0  0  0
    4.9329   -3.1621    0.0000 Cl  0  0  0  0  0  0  0  0  0  0  0  0
    0.2563   -3.1459    0.0000 Cl  0  0  0  0  0  0  0  0  0  0  0  0
    2.5847   -6.0040    0.0000 C   0  0  0  0  0  0  0  0  0  0  0  0
    0.0000   -1.5000    0.0000 C   0  0  0  0  0  0  0  0  0  0  0  0
    1.2883   -5.2495    0.0000 C   0  0  0  0  0  0  0  0  0  0  0  0
    3.8864   -5.2585    0.0000 C   0  0  0  0  0  0  0  0  0  0  0  0
    0.0000    1.5000    0.0000 C   0  0  0  0  0  0  0  0  0  0  0  0
   -1.2990    0.7500    0.0000 C   0  0  0  0  0  0  0  0  0  0  0  0
   -1.2990   -0.7500    0.0000 C   0  0  0  0  0  0  0  0  0  0  0  0
  2  1  1  0
  3  1  1  0
  4  8  1  0
  5  3  2  0
  6  2  2  0
  7  2  1  0
  8  5  1  0
  9  4  1  0
 10  4  2  0
 11  6  1  0
 12  7  1  0
 13 15  1  0
 14  3  1  0
 15  7  2  0
 16  6  1  0
 17  5  1  0
 18 19  1  0
 19 14  2  0
 13 16  2  0
 17 18  2  0
M  END
>  <Classification>  (43) 
0

>  <pchembl>  (43) 
4.36

>  <InChI_steorem>  (43) 
InChI=1S/C14H11Cl2NO2/c15-10-5-3-6-11(16)14(10)17-12-7-2-1-4-9(12)8-13(18)19/h1-7,17H,8H2,(H,18,19)

>  <source>  (43) 
ChEMBL25

>  <source_id>  (43) 
25

>  <optional_reference>  (43) 
10.1002/hep.27206

>  <optional_origin>  (43) 
None

>  <target>  (43) 
BSEP

$$$$

     RDKit          2D

 21 23  0  0  0  0  0  0  0  0999 V2000
    0.0000    1.5002    0.0000 N   0  0  0  0  0  0  0  0  0  0  0  0
   -1.2989    0.7501    0.0000 C   0  0  0  0  0  0  0  0  0  0  0  0
    0.0000   -1.5002    0.0000 S   0  0  0  0  0  0  0  0  0  0  0  0
    1.2806    0.7501    0.0000 C   0  0  0  0  0  0  0  0  0  0  0  0
   -1.2989   -0.7501    0.0000 C   0  0  0  0  0  0  0  0  0  0  0  0
    1.2806   -0.7501    0.0000 C   0  0  0  0  0  0  0  0  0  0  0  0
   -2.5978    1.5002    0.0000 C   0  0  0  0  0  0  0  0  0  0  0  0
   -2.5978   -1.5002    0.0000 C   0  0  0  0  0  0  0  0  0  0  0  0
    0.0120    3.0009    0.0000 C   0  0  0  0  0  0  0  0  0  0  0  0
   -3.8968    0.7501    0.0000 C   0  0  0  0  0  0  0  0  0  0  0  0
    1.3173    3.7417    0.0000 C   0  0  0  0  0  0  0  0  0  0  0  0
    2.6346    5.9832    0.0000 N   0  0  0  0  0  0  0  0  0  0  0  0
   -3.8968   -0.7501    0.0000 C   0  0  0  0  0  0  0  0  0  0  0  0
   -4.9360    1.3500    0.0000 Cl  0  0  0  0  0  0  0  0  0  0  0  0
    2.5978    1.5002    0.0000 C   0  0  0  0  0  0  0  0  0  0  0  0
    2.5978   -1.5002    0.0000 C   0  0  0  0  0  0  0  0  0  0  0  0
    1.3293    5.2425    0.0000 C   0  0  0  0  0  0  0  0  0  0  0  0
    2.6443    7.1832    0.0000 C   0  0  0  0  0  0  0  0  0  0  0  0
    3.6692    5.3752    0.0000 C   0  0  0  0  0  0  0  0  0  0  0  0
    3.8968    0.7501    0.0000 C   0  0  0  0  0  0  0  0  0  0  0  0
    3.8968   -0.7501    0.0000 C   0  0  0  0  0  0  0  0  0  0  0  0
  2  1  1  0
  3  6  1  0
  4  1  1  0
  5  2  2  0
  6  4  2  0
  7  2  1  0
  8  5  1  0
  9  1  1  0
 10  7  2  0
 11  9  1  0
 12 17  1  0
 13 10  1  0
 14 10  1  0
 15  4  1  0
 16  6  1  0
 17 11  1  0
 18 12  1  0
 19 12  1  0
 20 15  2  0
 21 20  1  0
  3  5  1  0
 16 21  2  0
  8 13  2  0
M  END
>  <Classification>  (44) 
0

>  <pchembl>  (44) 
4.47

>  <InChI_steorem>  (44) 
InChI=1S/C17H19ClN2S/c1-19(2)10-5-11-20-14-6-3-4-7-16(14)21-17-9-8-13(18)12-15(17)20/h3-4,6-9,12H,5,10-11H2,1-2H3

>  <source>  (44) 
ChEMBL25

>  <source_id>  (44) 
25

>  <optional_reference>  (44) 
10.1023/a:1023278211849

>  <optional_origin>  (44) 
None

>  <target>  (44) 
BSEP

$$$$

     RDKit          2D

 24 26  0  0  0  0  0  0  0  0999 V2000
    1.2990   -0.7500    0.0000 C   0  0  0  0  0  0  0  0  0  0  0  0
    1.2990    0.7500    0.0000 C   0  0  0  0  0  0  0  0  0  0  0  0
    1.2947   -3.7520    0.0000 N   0  0  0  0  0  0  0  0  0  0  0  0
   -0.3159   -5.5398    0.0000 N   0  0  0  0  0  0  0  0  0  0  0  0
    2.5977   -1.5021    0.0000 C   0  0  0  0  0  0  0  0  0  0  0  0
    1.1523   -5.2324    0.0000 C   0  0  0  0  0  0  0  0  0  0  0  0
    0.0000    1.5000    0.0000 C   0  0  0  0  0  0  0  0  0  0  0  0
    0.0000   -1.5000    0.0000 C   0  0  0  0  0  0  0  0  0  0  0  0
    2.5952   -3.0030    0.0000 C   0  0  0  0  0  0  0  0  0  0  0  0
    3.8983   -0.7531    0.0000 O   0  0  0  0  0  0  0  0  0  0  0  0
   -1.0619   -4.2384    0.0000 C   0  0  0  0  0  0  0  0  0  0  0  0
   -0.0548   -3.1268    0.0000 C   0  0  0  0  0  0  0  0  0  0  0  0
   -1.2990    0.7500    0.0000 C   0  0  0  0  0  0  0  0  0  0  0  0
    2.3383    1.3500    0.0000 Cl  0  0  0  0  0  0  0  0  0  0  0  0
   -1.2990   -0.7500    0.0000 C   0  0  0  0  0  0  0  0  0  0  0  0
    3.9008    0.7478    0.0000 C   0  0  0  0  0  0  0  0  0  0  0  0
    7.8040    2.9889    0.0000 C   0  0  0  0  0  0  0  0  0  0  0  0
    5.2013    1.4968    0.0000 C   0  0  0  0  0  0  0  0  0  0  0  0
   -2.3383    1.3500    0.0000 Cl  0  0  0  0  0  0  0  0  0  0  0  0
    8.8451    3.5857    0.0000 Cl  0  0  0  0  0  0  0  0  0  0  0  0
    6.5073    3.7429    0.0000 C   0  0  0  0  0  0  0  0  0  0  0  0
    7.7994    1.4889    0.0000 C   0  0  0  0  0  0  0  0  0  0  0  0
    5.2060    2.9969    0.0000 C   0  0  0  0  0  0  0  0  0  0  0  0
    6.4981    0.7429    0.0000 C   0  0  0  0  0  0  0  0  0  0  0  0
  2  1  2  0
  3  9  1  0
  4  6  2  0
  5  1  1  0
  6  3  1  0
  7  2  1  0
  8  1  1  0
  9  5  1  0
 10  5  1  0
 11 12  2  0
 12  3  1  0
 13 15  1  0
 14  2  1  0
 15  8  2  0
 16 10  1  0
 17 22  2  0
 18 16  1  0
 19 13  1  0
 20 17  1  0
 21 23  2  0
 22 24  1  0
 23 18  1  0
 24 18  2  0
 13  7  2  0
  4 11  1  0
 17 21  1  0
M  END
>  <Classification>  (45) 
0

>  <pchembl>  (45) 
4.87

>  <InChI_steorem>  (45) 
InChI=1S/C18H15Cl3N2O/c19-14-3-1-13(2-4-14)11-24-18(10-23-8-7-22-12-23)16-6-5-15(20)9-17(16)21/h1-9,12,18H,10-11H2

>  <source>  (45) 
ChEMBL25

>  <source_id>  (45) 
25

>  <optional_reference>  (45) 
10.1002/hep.27206

>  <optional_origin>  (45) 
None

>  <target>  (45) 
BSEP

$$$$

     RDKit          2D

 25 26  0  0  0  0  0  0  0  0999 V2000
    1.2990   -0.7500    0.0000 C   0  0  0  0  0  0  0  0  0  0  0  0
    1.2990    0.7500    0.0000 C   0  0  0  0  0  0  0  0  0  0  0  0
    0.0000    1.5000    0.0000 N   0  0  0  0  0  0  0  0  0  0  0  0
   -1.2990    0.7500    0.0000 C   0  0  0  0  0  0  0  0  0  0  0  0
   -1.2990   -0.7500    0.0000 C   0  0  0  0  0  0  0  0  0  0  0  0
    0.0000   -1.5000    0.0000 C   0  0  0  0  0  0  0  0  0  0  0  0
    0.5133   -2.9102    0.0000 C   0  0  0  0  0  0  0  0  0  0  0  0
   -0.4490   -4.0610    0.0000 C   0  0  0  0  0  0  0  0  0  0  0  0
    0.0662   -5.4697    0.0000 C   0  0  0  0  0  0  0  0  0  0  0  0
    1.5439   -5.7278    0.0000 C   0  0  0  0  0  0  0  0  0  0  0  0
    2.5062   -4.5772    0.0000 C   0  0  0  0  0  0  0  0  0  0  0  0
    1.9910   -3.1685    0.0000 C   0  0  0  0  0  0  0  0  0  0  0  0
    2.5973   -1.5031    0.0000 C   0  0  0  0  0  0  0  0  0  0  0  0
    2.5944   -2.7031    0.0000 O   0  0  0  0  0  0  0  0  0  0  0  0
    3.8990   -0.7562    0.0000 O   0  0  0  0  0  0  0  0  0  0  0  0
    4.9370   -1.3583    0.0000 C   0  0  0  0  0  0  0  0  0  0  0  0
   -1.7515   -3.3153    0.0000 N   0  0  0  0  0  0  0  0  0  0  0  0
   -2.7889   -3.9185    0.0000 O   0  0  0  0  0  0  0  0  0  0  0  0
   -1.7549   -2.3153    0.0000 O   0  0  0  0  0  0  0  0  0  0  0  0
    2.3383    1.3500    0.0000 C   0  0  0  0  0  0  0  0  0  0  0  0
   -2.3383    1.3500    0.0000 C   0  0  0  0  0  0  0  0  0  0  0  0
   -2.6003   -1.4978    0.0000 C   0  0  0  0  0  0  0  0  0  0  0  0
   -3.8990   -0.7455    0.0000 O   0  0  0  0  0  0  0  0  0  0  0  0
   -2.6021   -2.4978    0.0000 O   0  0  0  0  0  0  0  0  0  0  0  0
   -4.9395   -1.3434    0.0000 C   0  0  0  0  0  0  0  0  0  0  0  0
  6  7  1  0
  5  6  1  0
  1 13  1  0
 13 14  2  0
  1  2  2  0
 13 15  1  0
  7  8  2  0
 15 16  1  0
  1  6  1  0
  8  9  1  0
  2  3  1  0
 17 18  2  0
 17 19  1  0
  8 17  1  0
  9 10  2  0
  2 20  1  0
  3  4  1  0
  4 21  1  0
 10 11  1  0
  5 22  1  0
  4  5  2  0
 22 23  1  0
 11 12  2  0
 22 24  2  0
 12  7  1  0
 23 25  1  0
M  CHG  2  17   1  19  -1
M  END
>  <Classification>  (46) 
0

>  <pchembl>  (46) 
4.51

>  <InChI_steorem>  (46) 
InChI=1S/C17H18N2O6/c1-9-13(16(20)24-3)15(14(10(2)18-9)17(21)25-4)11-7-5-6-8-12(11)19(22)23/h5-8,15,18H,1-4H3

>  <source>  (46) 
ChEMBL25

>  <source_id>  (46) 
25

>  <optional_reference>  (46) 
10.1124/dmd.111.040758

>  <optional_origin>  (46) 
None

>  <target>  (46) 
BSEP

$$$$

     RDKit          2D

 25 26  0  0  0  0  0  0  0  0999 V2000
   -3.8933    3.7570    0.0000 C   0  0  0  0  0  0  0  0  0  0  0  0
   -2.5951    3.0039    0.0000 C   0  0  0  0  0  0  0  0  0  0  0  0
    2.5973   -1.5031    0.0000 C   0  0  0  0  0  0  0  0  0  0  0  0
   -2.5973    1.5031    0.0000 O   0  0  0  0  0  0  0  0  0  0  0  0
   -3.8912    5.2578    0.0000 O   0  0  0  0  0  0  0  0  0  0  0  0
    1.2990   -0.7500    0.0000 C   0  0  0  0  0  0  0  0  0  0  0  0
    2.5951   -3.0039    0.0000 C   0  0  0  0  0  0  0  0  0  0  0  0
   -4.9336    3.1588    0.0000 O   0  0  0  0  0  0  0  0  0  0  0  0
    3.6375   -0.9049    0.0000 O   0  0  0  0  0  0  0  0  0  0  0  0
    0.0000   -1.5000    0.0000 C   0  0  0  0  0  0  0  0  0  0  0  0
    3.8915   -3.7585    0.0000 C   0  0  0  0  0  0  0  0  0  0  0  0
    1.2935   -3.7495    0.0000 C   0  0  0  0  0  0  0  0  0  0  0  0
    1.2990    0.7500    0.0000 C   0  0  0  0  0  0  0  0  0  0  0  0
   -1.2990    0.7500    0.0000 C   0  0  0  0  0  0  0  0  0  0  0  0
    2.5847   -6.0040    0.0000 C   0  0  0  0  0  0  0  0  0  0  0  0
   -1.2990   -0.7500    0.0000 C   0  0  0  0  0  0  0  0  0  0  0  0
    0.0000    1.5000    0.0000 C   0  0  0  0  0  0  0  0  0  0  0  0
    3.8864   -5.2585    0.0000 C   0  0  0  0  0  0  0  0  0  0  0  0
    1.2883   -5.2495    0.0000 C   0  0  0  0  0  0  0  0  0  0  0  0
    2.5806   -7.2040    0.0000 Cl  0  0  0  0  0  0  0  0  0  0  0  0
   -1.5568    2.4023    0.0000 C   0  0  0  0  0  0  0  0  0  0  0  0
   -1.5549    3.6021    0.0000 C   0  0  0  0  0  0  0  0  0  0  0  0
   -5.1894    6.0109    0.0000 C   0  0  0  0  0  0  0  0  0  0  0  0
   -5.1877    7.2109    0.0000 C   0  0  0  0  0  0  0  0  0  0  0  0
   -6.2297    5.4127    0.0000 C   0  0  0  0  0  0  0  0  0  0  0  0
  2  1  1  0
  3  6  1  0
  4  2  1  0
  5  1  1  0
  6 13  2  0
  7  3  1  0
  8  1  2  0
  9  3  2  0
 10 16  2  0
 11  7  2  0
 12  7  1  0
 13 17  1  0
 14  4  1  0
 15 19  1  0
 16 14  1  0
 17 14  2  0
 18 11  1  0
 19 12  2  0
 20 15  1  0
 21  2  1  0
 22  2  1  0
 23  5  1  0
 24 23  1  0
 25 23  1  0
 10  6  1  0
 18 15  2  0
M  END
>  <Classification>  (47) 
0

>  <pchembl>  (47) 
4.82

>  <InChI_steorem>  (47) 
InChI=1S/C20H21ClO4/c1-13(2)24-19(23)20(3,4)25-17-11-7-15(8-12-17)18(22)14-5-9-16(21)10-6-14/h5-13H,1-4H3

>  <source>  (47) 
ChEMBL25

>  <source_id>  (47) 
25

>  <optional_reference>  (47) 
10.1093/toxsci/kfq269

>  <optional_origin>  (47) 
None

>  <target>  (47) 
BSEP

$$$$

     RDKit          2D

 25 28  0  0  0  0  0  0  0  0999 V2000
    0.0000    1.5002    0.0000 N   0  0  0  0  0  0  0  0  0  0  0  0
   -1.2989    0.7501    0.0000 C   0  0  0  0  0  0  0  0  0  0  0  0
    0.0000   -1.5002    0.0000 S   0  0  0  0  0  0  0  0  0  0  0  0
    1.2806    0.7501    0.0000 C   0  0  0  0  0  0  0  0  0  0  0  0
   -1.2989   -0.7501    0.0000 C   0  0  0  0  0  0  0  0  0  0  0  0
    1.2806   -0.7501    0.0000 C   0  0  0  0  0  0  0  0  0  0  0  0
    0.0120    3.0009    0.0000 C   0  0  0  0  0  0  0  0  0  0  0  0
    2.6328    5.9848    0.0000 N   0  0  0  0  0  0  0  0  0  0  0  0
   -2.5978    1.5002    0.0000 C   0  0  0  0  0  0  0  0  0  0  0  0
    1.3173    3.7417    0.0000 C   0  0  0  0  0  0  0  0  0  0  0  0
    1.3293    5.2425    0.0000 C   0  0  0  0  0  0  0  0  0  0  0  0
   -2.5978   -1.5002    0.0000 C   0  0  0  0  0  0  0  0  0  0  0  0
   -3.8968    0.7501    0.0000 C   0  0  0  0  0  0  0  0  0  0  0  0
   -5.1981    1.4978    0.0000 S   0  0  0  0  0  0  0  0  0  0  0  0
   -3.8968   -0.7501    0.0000 C   0  0  0  0  0  0  0  0  0  0  0  0
    3.6685    5.3785    0.0000 C   0  0  0  0  0  0  0  0  0  0  0  0
    2.6419    7.4847    0.0000 C   0  0  0  0  0  0  0  0  0  0  0  0
    2.5978    1.5002    0.0000 C   0  0  0  0  0  0  0  0  0  0  0  0
    2.5978   -1.5002    0.0000 C   0  0  0  0  0  0  0  0  0  0  0  0
    0.0348    6.0004    0.0000 C   0  0  0  0  0  0  0  0  0  0  0  0
   -6.2364    0.8963    0.0000 C   0  0  0  0  0  0  0  0  0  0  0  0
    1.3473    8.2425    0.0000 C   0  0  0  0  0  0  0  0  0  0  0  0
    3.8968    0.7501    0.0000 C   0  0  0  0  0  0  0  0  0  0  0  0
    3.8968   -0.7501    0.0000 C   0  0  0  0  0  0  0  0  0  0  0  0
    0.0438    7.5003    0.0000 C   0  0  0  0  0  0  0  0  0  0  0  0
  2  1  1  0
  3  6  1  0
  4  1  1  0
  5  2  2  0
  6  4  2  0
  7  1  1  0
  8 11  1  0
  9  2  1  0
 10  7  1  0
 11 10  1  0
 12  5  1  0
 13  9  2  0
 14 13  1  0
 15 13  1  0
 16  8  1  0
 17  8  1  0
 18  4  1  0
 19  6  1  0
 20 11  1  0
 21 14  1  0
 22 25  1  0
 23 18  2  0
 24 23  1  0
 25 20  1  0
  3  5  1  0
 24 19  2  0
 15 12  2  0
 22 17  1  0
M  END
>  <Classification>  (48) 
0

>  <pchembl>  (48) 
4.61

>  <InChI_steorem>  (48) 
InChI=1S/C21H26N2S2/c1-22-13-6-5-7-16(22)12-14-23-18-8-3-4-9-20(18)25-21-11-10-17(24-2)15-19(21)23/h3-4,8-11,15-16H,5-7,12-14H2,1-2H3

>  <source>  (48) 
ChEMBL25

>  <source_id>  (48) 
25

>  <optional_reference>  (48) 
10.1124/dmd.112.047068

>  <optional_origin>  (48) 
None

>  <target>  (48) 
BSEP

$$$$

     RDKit          2D

 22 25  0  0  0  0  0  0  0  0999 V2000
    2.0440    1.7885    0.0000 C   0  0  0  0  0  0  0  0  0  0  0  0
    2.0440    0.3467    0.0000 C   0  0  0  0  0  0  0  0  0  0  0  0
    0.8030   -0.3650    0.0000 C   0  0  0  0  0  0  0  0  0  0  0  0
   -0.4380    0.3285    0.0000 C   0  0  0  0  0  0  0  0  0  0  0  0
   -1.6790   -0.3832    0.0000 C   0  0  0  0  0  0  0  0  0  0  0  0
   -1.6790   -1.8250    0.0000 C   0  0  0  0  0  0  0  0  0  0  0  0
    0.8030    2.5185    0.0000 C   0  0  0  0  0  0  0  0  0  0  0  0
   -0.4562    1.7885    0.0000 C   0  0  0  0  0  0  0  0  0  0  0  0
    0.8212   -1.8067    0.0000 C   0  0  0  0  0  0  0  0  0  0  0  0
    4.5625    0.3285    0.0000 C   0  0  0  0  0  0  0  0  0  0  0  0
   -2.9565    0.3102    0.0000 C   0  0  0  0  0  0  0  0  0  0  0  0
    3.3032    2.5367    0.0000 C   0  0  0  0  0  0  0  0  0  0  0  0
   -0.4197   -2.5550    0.0000 C   0  0  0  0  0  0  0  0  0  0  0  0
   -2.9382   -2.5732    0.0000 C   0  0  0  0  0  0  0  0  0  0  0  0
    4.5625    1.8067    0.0000 C   0  0  0  0  0  0  0  0  0  0  0  0
   -4.1792   -1.8432    0.0000 C   0  0  0  0  0  0  0  0  0  0  0  0
   -4.1792   -0.4015    0.0000 C   0  0  0  0  0  0  0  0  0  0  0  0
    2.0413    2.9885    0.0000 C   0  0  0  0  0  0  0  0  0  0  0  0
    3.3371    1.3372    0.0000 O   0  0  0  0  0  0  0  0  0  0  0  0
   -5.2209   -2.4390    0.0000 O   0  0  0  0  0  0  0  0  0  0  0  0
    4.5984    3.2544    0.0000 C   0  0  0  0  0  0  0  0  0  0  0  0
    5.6339    3.8610    0.0000 C   0  0  0  0  0  0  0  0  0  0  0  0
  2  1  1  0
  3  2  1  0
  4  8  1  0
  5  4  1  0
  6  5  2  0
  7  1  1  0
  8  7  1  0
  9  3  1  0
 10  2  1  0
 11  5  1  0
 12  1  1  0
 13  9  1  0
 14  6  1  0
 15 12  1  0
 16 17  1  0
 17 11  2  0
  1 18  1  0
 12 19  1  0
 20 16  1  0
 10 15  1  0
  3  4  1  0
  6 13  1  0
 14 16  2  0
 12 21  1  0
 21 22  3  0
M  END
>  <Classification>  (49) 
0

>  <pchembl>  (49) 
4.85

>  <InChI_steorem>  (49) 
InChI=1S/C20H24O2/c1-3-20(22)11-9-18-17-6-4-13-12-14(21)5-7-15(13)16(17)8-10-19(18,20)2/h1,5,7,12,16-18,21-22H,4,6,8-11H2,2H3

>  <source>  (49) 
ChEMBL25

>  <source_id>  (49) 
25

>  <optional_reference>  (49) 
10.1093/toxsci/kft176

>  <optional_origin>  (49) 
None

>  <target>  (49) 
BSEP

$$$$

     RDKit          2D

 25 28  0  0  0  0  0  0  0  0999 V2000
   -3.9091   -1.5019    0.0000 C   0  0  0  0  0  0  0  0  0  0  0  0
   -2.6111    0.7486    0.0000 C   0  0  0  0  0  0  0  0  0  0  0  0
   -2.6111   -0.7486    0.0000 C   0  0  0  0  0  0  0  0  0  0  0  0
   -1.2964   -1.4973    0.0000 C   0  0  0  0  0  0  0  0  0  0  0  0
    0.0000   -0.7486    0.0000 C   0  0  0  0  0  0  0  0  0  0  0  0
    1.2964   -1.4973    0.0000 C   0  0  0  0  0  0  0  0  0  0  0  0
    2.5929   -0.7486    0.0000 C   0  0  0  0  0  0  0  0  0  0  0  0
    2.5929    0.7486    0.0000 C   0  0  0  0  0  0  0  0  0  0  0  0
    1.2964    1.4973    0.0000 C   0  0  0  0  0  0  0  0  0  0  0  0
    0.0000    0.7486    0.0000 C   0  0  0  0  0  0  0  0  0  0  0  0
   -1.2964    1.4973    0.0000 O   0  0  0  0  0  0  0  0  0  0  0  0
   -3.6486    1.3517    0.0000 O   0  0  0  0  0  0  0  0  0  0  0  0
   -1.2928   -2.6973    0.0000 O   0  0  0  0  0  0  0  0  0  0  0  0
   -5.2007   -3.7565    0.0000 C   0  0  0  0  0  0  0  0  0  0  0  0
   -3.9067   -3.0027    0.0000 C   0  0  0  0  0  0  0  0  0  0  0  0
   -2.5983   -3.7598    0.0000 C   0  0  0  0  0  0  0  0  0  0  0  0
   -2.5914   -5.2569    0.0000 C   0  0  0  0  0  0  0  0  0  0  0  0
   -1.2913   -5.9992    0.0000 C   0  0  0  0  0  0  0  0  0  0  0  0
   -1.2844   -7.4962    0.0000 C   0  0  0  0  0  0  0  0  0  0  0  0
   -2.5775   -8.2510    0.0000 C   0  0  0  0  0  0  0  0  0  0  0  0
   -3.8776   -7.5087    0.0000 C   0  0  0  0  0  0  0  0  0  0  0  0
   -3.8845   -6.0116    0.0000 C   0  0  0  0  0  0  0  0  0  0  0  0
   -5.1846   -5.2693    0.0000 O   0  0  0  0  0  0  0  0  0  0  0  0
   -6.2443   -3.1641    0.0000 O   0  0  0  0  0  0  0  0  0  0  0  0
   -1.5602   -3.1579    0.0000 O   0  0  0  0  0  0  0  0  0  0  0  0
  2  3  1  0
  3  4  2  0
  4  5  1  0
  5  6  2  0
  6  7  1  0
  7  8  2  0
  8  9  1  0
  9 10  2  0
  5 10  1  0
 10 11  1  0
  2 11  1  0
  2 12  2  0
  4 13  1  0
  1  3  1  0
 14 15  1  0
 15 16  2  0
 16 17  1  0
 17 18  2  0
 18 19  1  0
 19 20  2  0
 20 21  1  0
 21 22  2  0
 17 22  1  0
 22 23  1  0
 14 23  1  0
 14 24  2  0
 16 25  1  0
  1 15  1  0
M  END
>  <Classification>  (50) 
0

>  <pchembl>  (50) 
4.4

>  <InChI_steorem>  (50) 
InChI=1S/C19H12O6/c20-16-10-5-1-3-7-14(10)24-18(22)12(16)9-13-17(21)11-6-2-4-8-15(11)25-19(13)23/h1-8,20-21H,9H2

>  <source>  (50) 
ChEMBL25

>  <source_id>  (50) 
25

>  <optional_reference>  (50) 
10.1124/dmd.112.047068

>  <optional_origin>  (50) 
None

>  <target>  (50) 
BSEP

$$$$

     RDKit          2D

 26 27  0  0  0  0  0  0  0  0999 V2000
    2.5988   -1.5004    0.0000 C   0  0  0  0  0  0  0  0  0  0  0  0
    2.6015   -3.0012    0.0000 C   0  0  0  0  0  0  0  0  0  0  0  0
    6.5060   -6.7488    0.0000 C   0  0  0  0  0  0  0  0  0  0  0  0
    5.2054   -5.9999    0.0000 C   0  0  0  0  0  0  0  0  0  0  0  0
    7.8093   -8.9986    0.0000 N   0  0  0  0  0  0  0  0  0  0  0  0
    1.5631   -3.6028    0.0000 O   0  0  0  0  0  0  0  0  0  0  0  0
    1.2990   -0.7500    0.0000 C   0  0  0  0  0  0  0  0  0  0  0  0
    3.8990   -0.7507    0.0000 C   0  0  0  0  0  0  0  0  0  0  0  0
    1.5601   -2.1013    0.0000 O   0  0  0  0  0  0  0  0  0  0  0  0
    7.8066   -7.4978    0.0000 C   0  0  0  0  0  0  0  0  0  0  0  0
    3.9021   -3.7502    0.0000 O   0  0  0  0  0  0  0  0  0  0  0  0
    3.9048   -5.2510    0.0000 C   0  0  0  0  0  0  0  0  0  0  0  0
    9.1099   -9.7475    0.0000 C   0  0  0  0  0  0  0  0  0  0  0  0
    6.5122   -9.7536    0.0000 C   0  0  0  0  0  0  0  0  0  0  0  0
    1.2990    0.7500    0.0000 C   0  0  0  0  0  0  0  0  0  0  0  0
    0.0000   -1.5000    0.0000 C   0  0  0  0  0  0  0  0  0  0  0  0
    5.1977   -1.5013    0.0000 C   0  0  0  0  0  0  0  0  0  0  0  0
    3.8998    0.7493    0.0000 C   0  0  0  0  0  0  0  0  0  0  0  0
    9.1120  -10.9475    0.0000 C   0  0  0  0  0  0  0  0  0  0  0  0
    6.5156  -10.9536    0.0000 C   0  0  0  0  0  0  0  0  0  0  0  0
   -1.2990   -0.7500    0.0000 C   0  0  0  0  0  0  0  0  0  0  0  0
    0.0000    1.5000    0.0000 C   0  0  0  0  0  0  0  0  0  0  0  0
    5.1992    1.4987    0.0000 C   0  0  0  0  0  0  0  0  0  0  0  0
    6.4971   -0.7520    0.0000 C   0  0  0  0  0  0  0  0  0  0  0  0
   -1.2990    0.7500    0.0000 C   0  0  0  0  0  0  0  0  0  0  0  0
    6.4979    0.7480    0.0000 C   0  0  0  0  0  0  0  0  0  0  0  0
  2  1  1  0
  3  4  3  0
  4 12  1  0
  5 10  1  0
  6  2  2  0
  7  1  1  0
  8  1  1  0
  9  1  1  0
 10  3  1  0
 11  2  1  0
 12 11  1  0
 13  5  1  0
 14  5  1  0
 15  7  2  0
 16  7  1  0
 17  8  1  0
 18  8  1  0
 19 13  1  0
 20 14  1  0
 21 16  2  0
 22 15  1  0
 23 18  1  0
 24 17  1  0
 25 22  2  0
 26 24  1  0
 23 26  1  0
 21 25  1  0
M  END
>  <Classification>  (51) 
0

>  <pchembl>  (51) 
4.56

>  <InChI_steorem>  (51) 
InChI=1S/C22H31NO3/c1-3-23(4-2)17-11-12-18-26-21(24)22(25,19-13-7-5-8-14-19)20-15-9-6-10-16-20/h5,7-8,13-14,20,25H,3-4,6,9-10,15-18H2,1-2H3

>  <source>  (51) 
ChEMBL25

>  <source_id>  (51) 
25

>  <optional_reference>  (51) 
10.1093/toxsci/kfq269

>  <optional_origin>  (51) 
None

>  <target>  (51) 
BSEP

$$$$

     RDKit          2D

 22 25  0  0  0  0  0  0  0  0999 V2000
   -5.2209   -2.4390    0.0000 O   0  0  0  0  0  0  0  0  0  0  0  0
   -4.1792   -1.8432    0.0000 C   0  0  0  0  0  0  0  0  0  0  0  0
   -4.1792   -0.4015    0.0000 C   0  0  0  0  0  0  0  0  0  0  0  0
   -2.9382   -2.5732    0.0000 C   0  0  0  0  0  0  0  0  0  0  0  0
   -1.6790   -1.8250    0.0000 C   0  0  0  0  0  0  0  0  0  0  0  0
   -0.4197   -2.5550    0.0000 C   0  0  0  0  0  0  0  0  0  0  0  0
   -1.6790   -0.3832    0.0000 C   0  0  0  0  0  0  0  0  0  0  0  0
   -2.9565    0.3102    0.0000 C   0  0  0  0  0  0  0  0  0  0  0  0
   -0.4380    0.3285    0.0000 C   0  0  0  0  0  0  0  0  0  0  0  0
    0.8030   -0.3650    0.0000 C   0  0  0  0  0  0  0  0  0  0  0  0
    0.8212   -1.8067    0.0000 C   0  0  0  0  0  0  0  0  0  0  0  0
   -0.4562    1.7885    0.0000 C   0  0  0  0  0  0  0  0  0  0  0  0
    0.8030    2.5185    0.0000 C   0  0  0  0  0  0  0  0  0  0  0  0
    2.0440    1.7885    0.0000 C   0  0  0  0  0  0  0  0  0  0  0  0
    2.0440    0.3467    0.0000 C   0  0  0  0  0  0  0  0  0  0  0  0
    2.0413    2.9885    0.0000 C   0  0  0  0  0  0  0  0  0  0  0  0
    3.3032    2.5367    0.0000 C   0  0  0  0  0  0  0  0  0  0  0  0
    3.3371    1.3372    0.0000 O   0  0  0  0  0  0  0  0  0  0  0  0
    4.5625    1.8067    0.0000 C   0  0  0  0  0  0  0  0  0  0  0  0
    4.5625    0.3285    0.0000 C   0  0  0  0  0  0  0  0  0  0  0  0
    4.5984    3.2544    0.0000 C   0  0  0  0  0  0  0  0  0  0  0  0
    5.6339    3.8610    0.0000 C   0  0  0  0  0  0  0  0  0  0  0  0
  2  1  2  0
  3  2  1  0
  4  2  1  0
  8  3  1  0
  5  4  2  0
  6  5  1  0
  7  5  1  0
  6 11  1  0
  7  8  1  0
  7  9  1  0
 10  9  1  0
  9 12  1  0
 10 11  1  0
 15 10  1  0
 12 13  1  0
 14 13  1  0
 15 14  1  0
 14 16  1  0
 14 17  1  0
 15 20  1  0
 17 18  1  0
 19 17  1  0
 17 21  1  0
 19 20  1  0
 21 22  3  0
M  END
>  <Classification>  (52) 
0

>  <pchembl>  (52) 
4.35

>  <InChI_steorem>  (52) 
InChI=1S/C20H26O2/c1-3-20(22)11-9-18-17-6-4-13-12-14(21)5-7-15(13)16(17)8-10-19(18,20)2/h1,12,15-18,22H,4-11H2,2H3

>  <source>  (52) 
ChEMBL25

>  <source_id>  (52) 
25

>  <optional_reference>  (52) 
10.1093/toxsci/kfq269

>  <optional_origin>  (52) 
None

>  <target>  (52) 
BSEP

$$$$

     RDKit          2D

 27 29  0  0  0  0  0  0  0  0999 V2000
    2.5977    1.5022    0.0000 C   0  0  0  0  0  0  0  0  0  0  0  0
    1.2932    8.2529    0.0000 C   0  0  0  0  0  0  0  0  0  0  0  0
    7.8040   -2.9889    0.0000 C   0  0  0  0  0  0  0  0  0  0  0  0
    1.2990   -0.7500    0.0000 N   0  0  0  0  0  0  0  0  0  0  0  0
    2.5952    3.0030    0.0000 C   0  0  0  0  0  0  0  0  0  0  0  0
    3.8982    0.7531    0.0000 C   0  0  0  0  0  0  0  0  0  0  0  0
    1.2990    0.7500    0.0000 C   0  0  0  0  0  0  0  0  0  0  0  0
    2.5938    7.5039    0.0000 O   0  0  0  0  0  0  0  0  0  0  0  0
    7.8015   -1.4880    0.0000 O   0  0  0  0  0  0  0  0  0  0  0  0
    1.2912    9.4529    0.0000 O   0  0  0  0  0  0  0  0  0  0  0  0
    8.8438   -3.5878    0.0000 O   0  0  0  0  0  0  0  0  0  0  0  0
    1.2965    3.7535    0.0000 C   0  0  0  0  0  0  0  0  0  0  0  0
    3.9029   -0.7469    0.0000 C   0  0  0  0  0  0  0  0  0  0  0  0
    3.8945    3.7526    0.0000 C   0  0  0  0  0  0  0  0  0  0  0  0
    5.1951    1.5071    0.0000 C   0  0  0  0  0  0  0  0  0  0  0  0
    2.5963    6.0031    0.0000 C   0  0  0  0  0  0  0  0  0  0  0  0
    6.5010   -0.7389    0.0000 C   0  0  0  0  0  0  0  0  0  0  0  0
    1.2970    5.2535    0.0000 C   0  0  0  0  0  0  0  0  0  0  0  0
    6.4964    0.7610    0.0000 C   0  0  0  0  0  0  0  0  0  0  0  0
    3.8951    5.2526    0.0000 C   0  0  0  0  0  0  0  0  0  0  0  0
    5.2043   -1.4929    0.0000 C   0  0  0  0  0  0  0  0  0  0  0  0
    0.0000   -1.5000    0.0000 C   0  0  0  0  0  0  0  0  0  0  0  0
    6.7656   -3.5902    0.0000 C   0  0  0  0  0  0  0  0  0  0  0  0
    0.2548    7.6515    0.0000 C   0  0  0  0  0  0  0  0  0  0  0  0
    0.0000    1.5000    0.0000 C   0  0  0  0  0  0  0  0  0  0  0  0
   -1.2990   -0.7500    0.0000 C   0  0  0  0  0  0  0  0  0  0  0  0
   -1.2990    0.7500    0.0000 C   0  0  0  0  0  0  0  0  0  0  0  0
  2  8  1  0
  3  9  1  0
  4  7  2  0
  5  1  1  0
  6  1  1  0
  7  1  1  0
  8 16  1  0
  9 17  1  0
 10  2  2  0
 11  3  2  0
 12  5  2  0
 13  6  2  0
 14  5  1  0
 15  6  1  0
 16 20  1  0
 17 19  1  0
 18 12  1  0
 19 15  2  0
 20 14  2  0
 21 13  1  0
 22  4  1  0
 23  3  1  0
 24  2  1  0
 25  7  1  0
 26 27  1  0
 27 25  2  0
 21 17  2  0
 18 16  2  0
 26 22  2  0
M  END
>  <Classification>  (53) 
0

>  <pchembl>  (53) 
4.25

>  <InChI_steorem>  (53) 
InChI=1S/C22H19NO4/c1-15(24)26-19-10-6-17(7-11-19)22(21-5-3-4-14-23-21)18-8-12-20(13-9-18)27-16(2)25/h3-14,22H,1-2H3

>  <source>  (53) 
ChEMBL25

>  <source_id>  (53) 
25

>  <optional_reference>  (53) 
10.1124/dmd.112.047068

>  <optional_origin>  (53) 
None

>  <target>  (53) 
BSEP

$$$$

     RDKit          2D

 28 29  0  0  0  0  0  0  0  0999 V2000
    0.6077   -0.1698    0.0000 C   0  0  0  0  0  0  0  0  0  0  0  0
    0.1566    2.3888    0.0000 C   0  0  0  0  0  0  0  0  0  0  0  0
    1.1208    1.2398    0.0000 C   0  0  0  0  0  0  0  0  0  0  0  0
   -1.3206    2.1284    0.0000 C   0  0  0  0  0  0  0  0  0  0  0  0
   -0.8695   -0.4302    0.0000 C   0  0  0  0  0  0  0  0  0  0  0  0
   -1.8337    0.7188    0.0000 N   0  0  0  0  0  0  0  0  0  0  0  0
    3.3910   -0.6597    0.0000 N   0  0  0  0  0  0  0  0  0  0  0  0
    2.5987    1.5004    0.0000 C   0  0  0  0  0  0  0  0  0  0  0  0
    3.8991    0.7525    0.0000 C   0  0  0  0  0  0  0  0  0  0  0  0
    1.1182   -1.5811    0.0000 C   0  0  0  0  0  0  0  0  0  0  0  0
    0.6670    3.8002    0.0000 C   0  0  0  0  0  0  0  0  0  0  0  0
    2.4067   -0.8367    0.0000 O   0  0  0  0  0  0  0  0  0  0  0  0
    4.1651   -1.5766    0.0000 O   0  0  0  0  0  0  0  0  0  0  0  0
    0.1518   -2.7295    0.0000 O   0  0  0  0  0  0  0  0  0  0  0  0
    2.1027   -1.7565    0.0000 O   0  0  0  0  0  0  0  0  0  0  0  0
   -0.1065    4.7176    0.0000 O   0  0  0  0  0  0  0  0  0  0  0  0
    2.1443    4.0648    0.0000 O   0  0  0  0  0  0  0  0  0  0  0  0
   -1.2799   -1.5579    0.0000 C   0  0  0  0  0  0  0  0  0  0  0  0
   -2.0920    3.0476    0.0000 C   0  0  0  0  0  0  0  0  0  0  0  0
    0.6622   -4.1408    0.0000 C   0  0  0  0  0  0  0  0  0  0  0  0
    2.5964    3.0004    0.0000 C   0  0  0  0  0  0  0  0  0  0  0  0
    5.1969    1.5046    0.0000 C   0  0  0  0  0  0  0  0  0  0  0  0
   -0.3041   -5.2892    0.0000 C   0  0  0  0  0  0  0  0  0  0  0  0
    2.5524    5.1933    0.0000 C   0  0  0  0  0  0  0  0  0  0  0  0
    3.8943    3.7525    0.0000 C   0  0  0  0  0  0  0  0  0  0  0  0
    0.1040   -6.4176    0.0000 C   0  0  0  0  0  0  0  0  0  0  0  0
   -1.4855   -5.0787    0.0000 C   0  0  0  0  0  0  0  0  0  0  0  0
    5.1945    3.0046    0.0000 C   0  0  0  0  0  0  0  0  0  0  0  0
  2  3  1  0
  3  1  1  0
  4  6  1  0
  5  1  2  0
  6  5  1  0
  7  9  1  0
  8  3  1  0
  9  8  2  0
 10  1  1  0
 11  2  1  0
 12  7  1  0
 13  7  2  0
 14 10  1  0
 15 10  2  0
 16 11  2  0
 17 11  1  0
 18  5  1  0
 19  4  1  0
 20 14  1  0
 21  8  1  0
 22  9  1  0
 23 20  1  0
 24 17  1  0
 25 21  2  0
 26 23  1  0
 27 23  1  0
 28 25  1  0
  2  4  2  0
 28 22  2  0
M  CHG  2   7   1  12  -1
M  END
>  <Classification>  (54) 
0

>  <pchembl>  (54) 
4.48

>  <InChI_steorem>  (54) 
InChI=1S/C20H24N2O6/c1-11(2)10-28-20(24)17-13(4)21-12(3)16(19(23)27-5)18(17)14-8-6-7-9-15(14)22(25)26/h6-9,11,18,21H,10H2,1-5H3

>  <source>  (54) 
ChEMBL25

>  <source_id>  (54) 
25

>  <optional_reference>  (54) 
10.1002/hep.27206

>  <optional_origin>  (54) 
None

>  <target>  (54) 
BSEP

$$$$

     RDKit          2D

 30 32  0  0  0  0  0  0  0  0999 V2000
    0.0000    0.7486    0.0000 C   0  0  0  0  0  0  0  0  0  0  0  0
    0.0000   -0.7486    0.0000 C   0  0  0  0  0  0  0  0  0  0  0  0
    1.2964   -1.4973    0.0000 C   0  0  0  0  0  0  0  0  0  0  0  0
    2.5911   -3.7520    0.0000 C   0  0  0  0  0  0  0  0  0  0  0  0
   -1.2447   -7.4974    0.0000 C   0  0  0  0  0  0  0  0  0  0  0  0
   -1.2964    1.4973    0.0000 C   0  0  0  0  0  0  0  0  0  0  0  0
    1.2933   -2.9981    0.0000 O   0  0  0  0  0  0  0  0  0  0  0  0
    1.2964    1.4973    0.0000 C   0  0  0  0  0  0  0  0  0  0  0  0
   -1.2964   -1.4973    0.0000 C   0  0  0  0  0  0  0  0  0  0  0  0
   -1.2596   -5.9975    0.0000 O   0  0  0  0  0  0  0  0  0  0  0  0
   -2.6111    0.7486    0.0000 C   0  0  0  0  0  0  0  0  0  0  0  0
   -2.5363   -8.2603    0.0000 C   0  0  0  0  0  0  0  0  0  0  0  0
    2.5880   -5.2529    0.0000 C   0  0  0  0  0  0  0  0  0  0  0  0
   -1.2845   -2.9981    0.0000 C   0  0  0  0  0  0  0  0  0  0  0  0
    2.5929   -0.7486    0.0000 C   0  0  0  0  0  0  0  0  0  0  0  0
   -2.6111   -0.7486    0.0000 C   0  0  0  0  0  0  0  0  0  0  0  0
   -2.5660   -5.2603    0.0000 C   0  0  0  0  0  0  0  0  0  0  0  0
    3.4583   -3.2541    0.0000 O   0  0  0  0  0  0  0  0  0  0  0  0
   -3.8427   -7.5232    0.0000 C   0  0  0  0  0  0  0  0  0  0  0  0
   -0.1996   -8.0871    0.0000 O   0  0  0  0  0  0  0  0  0  0  0  0
    2.5929    0.7486    0.0000 C   0  0  0  0  0  0  0  0  0  0  0  0
   -3.8575   -6.0232    0.0000 C   0  0  0  0  0  0  0  0  0  0  0  0
   -2.5778   -3.7595    0.0000 C   0  0  0  0  0  0  0  0  0  0  0  0
   -4.8759   -8.1334    0.0000 O   0  0  0  0  0  0  0  0  0  0  0  0
    3.8857   -6.0068    0.0000 C   0  0  0  0  0  0  0  0  0  0  0  0
    2.5849   -6.4529    0.0000 C   0  0  0  0  0  0  0  0  0  0  0  0
    1.7208   -5.7508    0.0000 C   0  0  0  0  0  0  0  0  0  0  0  0
   -3.6486   -1.3517    0.0000 C   0  0  0  0  0  0  0  0  0  0  0  0
    3.6321    1.3486    0.0000 C   0  0  0  0  0  0  0  0  0  0  0  0
    3.8837   -7.0068    0.0000 C   0  0  0  0  0  0  0  0  0  0  0  0
  2  1  1  0
  3  2  1  0
  4  7  1  0
  5 10  1  0
  6  1  1  0
  3  7  1  0
  8  1  2  0
  9  2  1  0
 10 17  1  0
 11  6  2  0
 12 19  1  0
 13  4  1  0
  9 14  1  0
 15 21  1  0
 16 11  1  0
 17 23  1  0
 18  4  2  0
 19 22  1  0
 20  5  2  0
 21  8  1  0
 22 17  1  0
 23 14  1  0
 19 24  1  0
 25 13  1  0
 26 13  1  0
 27 13  1  0
 16 28  1  0
 21 29  1  0
 30 25  1  0
  3 15  1  0
 16  9  1  0
  5 12  1  0
M  END
>  <Classification>  (55) 
0

>  <pchembl>  (55) 
4.61

>  <InChI_steorem>  (55) 
InChI=1S/C25H38O5/c1-6-25(4,5)24(28)30-21-12-15(2)11-17-8-7-16(3)20(23(17)21)10-9-19-13-18(26)14-22(27)29-19/h7-8,11,15-16,18-21,23,26H,6,9-10,12-14H2,1-5H3

>  <source>  (55) 
ChEMBL25

>  <source_id>  (55) 
25

>  <optional_reference>  (55) 
10.1093/toxsci/kfq269

>  <optional_origin>  (55) 
None

>  <target>  (55) 
BSEP

$$$$

     RDKit          2D

 35 37  0  0  0  0  0  0  0  0999 V2000
   -2.7349   -1.5042    0.0000 C   0  0  0  0  0  0  0  0  0  0  0  0
   -3.9594   -3.5998    0.0000 C   0  0  0  0  0  0  0  0  0  0  0  0
   -0.0048   -2.9949    0.0000 C   0  0  0  0  0  0  0  0  0  0  0  0
   -2.6048   -2.9858    0.0000 C   0  0  0  0  0  0  0  0  0  0  0  0
    2.5951   -3.0039    0.0000 C   0  0  0  0  0  0  0  0  0  0  0  0
    3.8925   -3.7584    0.0000 C   0  0  0  0  0  0  0  0  0  0  0  0
    2.5973   -1.5031    0.0000 C   0  0  0  0  0  0  0  0  0  0  0  0
    3.8976   -0.7537    0.0000 C   0  0  0  0  0  0  0  0  0  0  0  0
    3.9019    0.7463    0.0000 C   0  0  0  0  0  0  0  0  0  0  0  0
    5.1945   -1.5074    0.0000 C   0  0  0  0  0  0  0  0  0  0  0  0
    5.2031    1.4926    0.0000 C   0  0  0  0  0  0  0  0  0  0  0  0
    6.4957   -0.7611    0.0000 C   0  0  0  0  0  0  0  0  0  0  0  0
    6.5000    0.7389    0.0000 C   0  0  0  0  0  0  0  0  0  0  0  0
    5.1951   -3.0130    0.0000 C   0  0  0  0  0  0  0  0  0  0  0  0
    6.4842   -5.2683    0.0000 C   0  0  0  0  0  0  0  0  0  0  0  0
    5.1807   -6.0123    0.0000 C   0  0  0  0  0  0  0  0  0  0  0  0
    9.0924   -3.7765    0.0000 C   0  0  0  0  0  0  0  0  0  0  0  0
    9.0877   -5.2765    0.0000 C   0  0  0  0  0  0  0  0  0  0  0  0
   10.3843   -6.0306    0.0000 C   0  0  0  0  0  0  0  0  0  0  0  0
   11.6857   -5.2847    0.0000 C   0  0  0  0  0  0  0  0  0  0  0  0
   11.6905   -3.7847    0.0000 C   0  0  0  0  0  0  0  0  0  0  0  0
   10.3938   -3.0306    0.0000 C   0  0  0  0  0  0  0  0  0  0  0  0
    5.1741   -7.2123    0.0000 C   0  0  0  0  0  0  0  0  0  0  0  0
    4.1447   -5.4069    0.0000 C   0  0  0  0  0  0  0  0  0  0  0  0
   -4.9573   -2.4799    0.0000 C   0  0  0  0  0  0  0  0  0  0  0  0
    1.2925   -3.7494    0.0000 N   0  0  0  0  0  0  0  0  0  0  0  0
    6.4925   -3.7675    0.0000 N   0  0  0  0  0  0  0  0  0  0  0  0
   12.7231   -5.8880    0.0000 N   0  0  0  0  0  0  0  0  0  0  0  0
   -1.3074   -3.7403    0.0000 O   0  0  0  0  0  0  0  0  0  0  0  0
   -0.0007   -1.7949    0.0000 O   0  0  0  0  0  0  0  0  0  0  0  0
    3.8883   -4.9584    0.0000 O   0  0  0  0  0  0  0  0  0  0  0  0
    7.7992   -1.8220    0.0000 O   0  0  0  0  0  0  0  0  0  0  0  0
    6.7580   -2.4182    0.0000 O   0  0  0  0  0  0  0  0  0  0  0  0
   -4.2005   -1.1847    0.0000 O   0  0  0  0  0  0  0  0  0  0  0  0
    7.7951   -3.0220    0.0000 S   0  0  0  0  0  0  0  0  0  0  0  0
  1  4  1  0
  1 34  1  0
  2  4  1  0
  2 25  1  0
  3 26  1  0
  3 29  1  0
  3 30  2  0
  4 29  1  0
  5  6  1  0
  5  7  1  0
  5 26  1  0
 14  6  1  0
  6 31  1  0
  7  8  1  0
  8  9  2  0
 10  8  1  0
 11  9  1  0
 10 12  2  0
 11 13  2  0
 12 13  1  0
 14 27  1  0
 15 16  1  0
 15 27  1  0
 16 23  1  0
 16 24  1  0
 17 18  2  0
 17 22  1  0
 17 35  1  0
 18 19  1  0
 19 20  2  0
 20 21  1  0
 20 28  1  0
 21 22  2  0
 25 34  1  0
 27 35  1  0
 32 35  2  0
 33 35  2  0
M  END
>  <Classification>  (56) 
0

>  <pchembl>  (56) 
4.6

>  <InChI_steorem>  (56) 
InChI=1S/C25H35N3O6S/c1-18(2)15-28(35(31,32)22-10-8-20(26)9-11-22)16-24(29)23(14-19-6-4-3-5-7-19)27-25(30)34-21-12-13-33-17-21/h3-11,18,21,23-24,29H,12-17,26H2,1-2H3,(H,27,30)

>  <source>  (56) 
ChEMBL25

>  <source_id>  (56) 
25

>  <optional_reference>  (56) 
10.1093/toxsci/kfq269

>  <optional_origin>  (56) 
None

>  <target>  (56) 
BSEP

$$$$

     RDKit          2D

 33 37  0  0  0  0  0  0  0  0999 V2000
   -2.6111    0.7486    0.0000 C   0  0  0  0  0  0  0  0  0  0  0  0
   -2.6111   -0.7486    0.0000 N   0  0  0  0  0  0  0  0  0  0  0  0
    0.0000   -0.7486    0.0000 C   0  0  0  0  0  0  0  0  0  0  0  0
   -1.2964   -1.4973    0.0000 C   0  0  0  0  0  0  0  0  0  0  0  0
   -1.2964    1.4973    0.0000 N   0  0  0  0  0  0  0  0  0  0  0  0
   -9.1077    2.9946    0.0000 C   0  0  0  0  0  0  0  0  0  0  0  0
    0.0000    0.7486    0.0000 C   0  0  0  0  0  0  0  0  0  0  0  0
   -7.8096    3.7478    0.0000 C   0  0  0  0  0  0  0  0  0  0  0  0
  -10.4234    3.7389    0.0000 O   0  0  0  0  0  0  0  0  0  0  0  0
   -3.9086    1.5029    0.0000 N   0  0  0  0  0  0  0  0  0  0  0  0
   -6.5078    3.0010    0.0000 N   0  0  0  0  0  0  0  0  0  0  0  0
    1.2964   -1.4973    0.0000 C   0  0  0  0  0  0  0  0  0  0  0  0
    1.2964    1.4973    0.0000 C   0  0  0  0  0  0  0  0  0  0  0  0
  -10.4142    0.7444    0.0000 O   0  0  0  0  0  0  0  0  0  0  0  0
  -11.7175    2.9863    0.0000 C   0  0  0  0  0  0  0  0  0  0  0  0
    2.5929   -0.7486    0.0000 C   0  0  0  0  0  0  0  0  0  0  0  0
    2.5929    0.7486    0.0000 C   0  0  0  0  0  0  0  0  0  0  0  0
   -9.1018    1.4970    0.0000 C   0  0  0  0  0  0  0  0  0  0  0  0
  -11.7129    1.4890    0.0000 C   0  0  0  0  0  0  0  0  0  0  0  0
   -3.9097    3.0028    0.0000 C   0  0  0  0  0  0  0  0  0  0  0  0
   -5.2071    0.7519    0.0000 C   0  0  0  0  0  0  0  0  0  0  0  0
   -5.2093    3.7519    0.0000 C   0  0  0  0  0  0  0  0  0  0  0  0
   -6.5067    1.5010    0.0000 C   0  0  0  0  0  0  0  0  0  0  0  0
   -7.8125    4.9478    0.0000 O   0  0  0  0  0  0  0  0  0  0  0  0
   -1.2928   -2.6973    0.0000 N   0  0  0  0  0  0  0  0  0  0  0  0
    3.8911   -1.5017    0.0000 O   0  0  0  0  0  0  0  0  0  0  0  0
    3.8911    1.5017    0.0000 O   0  0  0  0  0  0  0  0  0  0  0  0
  -13.0163    3.7309    0.0000 C   0  0  0  0  0  0  0  0  0  0  0  0
  -13.0071    0.7364    0.0000 C   0  0  0  0  0  0  0  0  0  0  0  0
    3.8894    2.7017    0.0000 C   0  0  0  0  0  0  0  0  0  0  0  0
    3.8894   -2.7017    0.0000 C   0  0  0  0  0  0  0  0  0  0  0  0
  -14.3104    2.9783    0.0000 C   0  0  0  0  0  0  0  0  0  0  0  0
  -14.3058    1.4810    0.0000 C   0  0  0  0  0  0  0  0  0  0  0  0
  2  1  2  0
  3  7  1  0
  4  2  1  0
  5  1  1  0
  6  8  1  0
  7  5  2  0
  8 11  1  0
  9  6  1  0
 10  1  1  0
 11 22  1  0
 12  3  1  0
 13  7  1  0
 14 18  1  0
 15  9  1  0
 16 12  2  0
 17 13  2  0
 18  6  1  0
 19 15  2  0
 20 10  1  0
 21 10  1  0
 22 20  1  0
 23 21  1  0
 24  8  2  0
 25  4  1  0
 26 16  1  0
 27 17  1  0
 28 15  1  0
 29 19  1  0
 30 27  1  0
 31 26  1  0
 32 28  2  0
 33 29  2  0
  4  3  2  0
 23 11  1  0
 17 16  1  0
 14 19  1  0
 32 33  1  0
M  END
>  <Classification>  (57) 
0

>  <pchembl>  (57) 
4.35

>  <InChI_steorem>  (57) 
InChI=1S/C23H25N5O5/c1-30-18-11-14-15(12-19(18)31-2)25-23(26-21(14)24)28-9-7-27(8-10-28)22(29)20-13-32-16-5-3-4-6-17(16)33-20/h3-6,11-12,20H,7-10,13H2,1-2H3,(H2,24,25,26)

>  <source>  (57) 
ChEMBL25

>  <source_id>  (57) 
25

>  <optional_reference>  (57) 
10.1093/toxsci/kft176

>  <optional_origin>  (57) 
None

>  <target>  (57) 
BSEP

$$$$

     RDKit          2D

 50 53  0  0  0  0  0  0  0  0999 V2000
   -7.6913    6.1464    0.0000 N   0  0  0  0  0  0  0  0  0  0  0  0
   -5.1920    1.5249    0.0000 C   0  0  0  0  0  0  0  0  0  0  0  0
   -7.2212    7.5708    0.0000 C   0  0  0  0  0  0  0  0  0  0  0  0
   -3.8946    0.7703    0.0000 N   0  0  0  0  0  0  0  0  0  0  0  0
   -2.6010   -1.4850    0.0000 C   0  0  0  0  0  0  0  0  0  0  0  0
   -6.4817    5.2810    0.0000 C   0  0  0  0  0  0  0  0  0  0  0  0
   -5.7213    7.5640    0.0000 S   0  0  0  0  0  0  0  0  0  0  0  0
   -3.8984   -0.7305    0.0000 C   0  0  0  0  0  0  0  0  0  0  0  0
    3.9044   -0.7576    0.0000 C   0  0  0  0  0  0  0  0  0  0  0  0
   -5.1882    3.0257    0.0000 N   0  0  0  0  0  0  0  0  0  0  0  0
   -2.6048   -2.9858    0.0000 N   0  0  0  0  0  0  0  0  0  0  0  0
    4.4757    5.2776    0.0000 N   0  0  0  0  0  0  0  0  0  0  0  0
    2.6018   -1.5031    0.0000 N   0  0  0  0  0  0  0  0  0  0  0  0
    5.2203    2.9895    0.0000 C   0  0  0  0  0  0  0  0  0  0  0  0
   -5.2643    6.1353    0.0000 C   0  0  0  0  0  0  0  0  0  0  0  0
    2.5951   -3.0039    0.0000 C   0  0  0  0  0  0  0  0  0  0  0  0
    6.4358    3.8464    0.0000 S   0  0  0  0  0  0  0  0  0  0  0  0
    5.9757    5.2741    0.0000 C   0  0  0  0  0  0  0  0  0  0  0  0
   -6.4855    3.7802    0.0000 C   0  0  0  0  0  0  0  0  0  0  0  0
   -0.0048   -2.9949    0.0000 C   0  0  0  0  0  0  0  0  0  0  0  0
   -1.3074   -3.7403    0.0000 C   0  0  0  0  0  0  0  0  0  0  0  0
    4.0088    3.8522    0.0000 C   0  0  0  0  0  0  0  0  0  0  0  0
    1.2925   -3.7494    0.0000 C   0  0  0  0  0  0  0  0  0  0  0  0
   -6.2329    0.9278    0.0000 O   0  0  0  0  0  0  0  0  0  0  0  0
   -1.5601   -0.8880    0.0000 O   0  0  0  0  0  0  0  0  0  0  0  0
    4.9411   -1.3619    0.0000 O   0  0  0  0  0  0  0  0  0  0  0  0
    3.8902   -3.7623    0.0000 C   0  0  0  0  0  0  0  0  0  0  0  0
    3.9110    0.7432    0.0000 O   0  0  0  0  0  0  0  0  0  0  0  0
   -8.0938    8.7888    0.0000 C   0  0  0  0  0  0  0  0  0  0  0  0
    5.2136    1.4886    0.0000 C   0  0  0  0  0  0  0  0  0  0  0  0
   -1.3157   -5.2412    0.0000 C   0  0  0  0  0  0  0  0  0  0  0  0
   -5.2018   -1.4745    0.0000 C   0  0  0  0  0  0  0  0  0  0  0  0
    3.8819   -5.2632    0.0000 C   0  0  0  0  0  0  0  0  0  0  0  0
    1.2884   -4.9494    0.0000 O   0  0  0  0  0  0  0  0  0  0  0  0
   -2.6192   -5.9852    0.0000 C   0  0  0  0  0  0  0  0  0  0  0  0
   -4.1472    3.6227    0.0000 C   0  0  0  0  0  0  0  0  0  0  0  0
   -7.5991    9.8821    0.0000 C   0  0  0  0  0  0  0  0  0  0  0  0
   -9.2880    8.6709    0.0000 C   0  0  0  0  0  0  0  0  0  0  0  0
   -6.2385   -0.8701    0.0000 C   0  0  0  0  0  0  0  0  0  0  0  0
   -5.2073   -2.6745    0.0000 C   0  0  0  0  0  0  0  0  0  0  0  0
    5.1752   -6.0230    0.0000 C   0  0  0  0  0  0  0  0  0  0  0  0
    2.5772   -6.0033    0.0000 C   0  0  0  0  0  0  0  0  0  0  0  0
   -2.6297   -7.4852    0.0000 C   0  0  0  0  0  0  0  0  0  0  0  0
   -3.9131   -5.2262    0.0000 C   0  0  0  0  0  0  0  0  0  0  0  0
   -5.2173   -5.9672    0.0000 C   0  0  0  0  0  0  0  0  0  0  0  0
    5.1638   -7.5230    0.0000 C   0  0  0  0  0  0  0  0  0  0  0  0
    2.5658   -7.5032    0.0000 C   0  0  0  0  0  0  0  0  0  0  0  0
   -3.9339   -8.2261    0.0000 C   0  0  0  0  0  0  0  0  0  0  0  0
   -5.2277   -7.4672    0.0000 C   0  0  0  0  0  0  0  0  0  0  0  0
    3.8591   -8.2631    0.0000 C   0  0  0  0  0  0  0  0  0  0  0  0
  2 10  1  0
  3  1  2  0
  4  2  1  0
  5  8  1  0
  6  1  1  0
  7  3  1  0
  8  4  1  0
  9 13  1  0
 10 19  1  0
 11  5  1  0
 12 22  1  0
 13 16  1  0
 14 30  1  0
 15  6  2  0
 16 23  1  0
 17 14  1  0
 18 17  1  0
 19  6  1  0
 20 21  1  0
 21 11  1  0
 22 14  2  0
 23 20  1  0
 24  2  2  0
 25  5  2  0
 26  9  2  0
 16 27  1  0
 28  9  1  0
 29  3  1  0
 30 28  1  0
 31 21  1  0
 32  8  1  0
 33 27  1  0
 23 34  1  0
 35 31  1  0
 36 10  1  0
 37 29  1  0
 38 29  1  0
 39 32  1  0
 40 32  1  0
 41 33  2  0
 42 33  1  0
 43 35  2  0
 44 35  1  0
 45 44  2  0
 46 41  1  0
 47 42  2  0
 48 43  1  0
 49 45  1  0
 50 47  1  0
  7 15  1  0
 48 49  2  0
 46 50  2  0
 18 12  2  0
M  END
>  <Classification>  (58) 
1

>  <pchembl>  (58) 
5.66

>  <InChI_steorem>  (58) 
InChI=1S/C37H48N6O5S2/c1-24(2)33(42-36(46)43(5)20-29-22-49-35(40-29)25(3)4)34(45)39-28(16-26-12-8-6-9-13-26)18-32(44)31(17-27-14-10-7-11-15-27)41-37(47)48-21-30-19-38-23-50-30/h6-15,19,22-25,28,31-33,44H,16-18,20-21H2,1-5H3,(H,39,45)(H,41,47)(H,42,46)

>  <source>  (58) 
ChEMBL25

>  <source_id>  (58) 
25

>  <optional_reference>  (58) 
10.1093/toxsci/kfq269

>  <optional_origin>  (58) 
None

>  <target>  (58) 
BSEP

$$$$

     RDKit          2D

 49 53  0  0  0  0  0  0  0  0999 V2000
    3.9112   12.0085    0.0000 C   0  0  0  0  0  0  0  0  0  0  0  0
    5.2100   12.7535    0.0000 C   0  0  0  0  0  0  0  0  0  0  0  0
    6.5135   11.9855    0.0000 C   0  0  0  0  0  0  0  0  0  0  0  0
    3.9159   10.4957    0.0000 C   0  0  0  0  0  0  0  0  0  0  0  0
    5.2103    9.7435    0.0000 C   0  0  0  0  0  0  0  0  0  0  0  0
    6.5091   10.4885    0.0000 C   0  0  0  0  0  0  0  0  0  0  0  0
    7.8036    9.7364    0.0000 C   0  0  0  0  0  0  0  0  0  0  0  0
    7.7992    8.2393    0.0000 C   0  0  0  0  0  0  0  0  0  0  0  0
    6.5003    7.4944    0.0000 C   0  0  0  0  0  0  0  0  0  0  0  0
    5.2059    8.2465    0.0000 N   0  0  0  0  0  0  0  0  0  0  0  0
    6.4992    5.9935    0.0000 C   0  0  0  0  0  0  0  0  0  0  0  0
    5.4593    5.3947    0.0000 O   0  0  0  0  0  0  0  0  0  0  0  0
    7.7966    3.7404    0.0000 C   0  0  0  0  0  0  0  0  0  0  0  0
    9.0953    2.9882    0.0000 C   0  0  0  0  0  0  0  0  0  0  0  0
    6.4945    2.9941    0.0000 C   0  0  0  0  0  0  0  0  0  0  0  0
    5.1967    3.7478    0.0000 C   0  0  0  0  0  0  0  0  0  0  0  0
    4.1555    3.1511    0.0000 O   0  0  0  0  0  0  0  0  0  0  0  0
   10.1352    3.5870    0.0000 O   0  0  0  0  0  0  0  0  0  0  0  0
   10.3928    0.7351    0.0000 C   0  0  0  0  0  0  0  0  0  0  0  0
   11.6941    1.4828    0.0000 C   0  0  0  0  0  0  0  0  0  0  0  0
   10.3871   -0.7658    0.0000 C   0  0  0  0  0  0  0  0  0  0  0  0
    9.0850   -1.5121    0.0000 C   0  0  0  0  0  0  0  0  0  0  0  0
    9.0771   -3.0121    0.0000 C   0  0  0  0  0  0  0  0  0  0  0  0
    7.7742   -3.7553    0.0000 C   0  0  0  0  0  0  0  0  0  0  0  0
    6.4791   -2.9985    0.0000 C   0  0  0  0  0  0  0  0  0  0  0  0
    6.4869   -1.4986    0.0000 C   0  0  0  0  0  0  0  0  0  0  0  0
    7.7898   -0.7553    0.0000 C   0  0  0  0  0  0  0  0  0  0  0  0
   12.9928    0.7305    0.0000 C   0  0  0  0  0  0  0  0  0  0  0  0
   14.2941    1.4783    0.0000 N   0  0  0  0  0  0  0  0  0  0  0  0
   15.5911    0.7298    0.0000 C   0  0  0  0  0  0  0  0  0  0  0  0
   16.8960    1.4954    0.0000 C   0  0  0  0  0  0  0  0  0  0  0  0
   14.3011    2.9899    0.0000 C   0  0  0  0  0  0  0  0  0  0  0  0
   15.5968    3.7397    0.0000 C   0  0  0  0  0  0  0  0  0  0  0  0
   16.8943    2.9924    0.0000 C   0  0  0  0  0  0  0  0  0  0  0  0
   18.1901    3.7422    0.0000 C   0  0  0  0  0  0  0  0  0  0  0  0
   18.1883    5.2393    0.0000 C   0  0  0  0  0  0  0  0  0  0  0  0
   16.8909    5.9866    0.0000 C   0  0  0  0  0  0  0  0  0  0  0  0
   15.5951    5.2368    0.0000 C   0  0  0  0  0  0  0  0  0  0  0  0
   15.5894   -0.7709    0.0000 C   0  0  0  0  0  0  0  0  0  0  0  0
   16.6280   -1.3719    0.0000 O   0  0  0  0  0  0  0  0  0  0  0  0
   14.2873   -3.0214    0.0000 C   0  0  0  0  0  0  0  0  0  0  0  0
   13.2477   -3.6207    0.0000 C   0  0  0  0  0  0  0  0  0  0  0  0
   14.2864   -4.2214    0.0000 C   0  0  0  0  0  0  0  0  0  0  0  0
   15.3260   -3.6223    0.0000 C   0  0  0  0  0  0  0  0  0  0  0  0
    7.7978    5.2412    0.0000 N   0  0  0  0  0  0  0  0  0  0  0  0
    5.2001    4.9478    0.0000 N   0  0  0  0  0  0  0  0  0  0  0  0
    9.0941    1.4873    0.0000 N   0  0  0  0  0  0  0  0  0  0  0  0
   11.6962    2.6828    0.0000 O   0  0  0  0  0  0  0  0  0  0  0  0
   14.2892   -1.5205    0.0000 N   0  0  0  0  0  0  0  0  0  0  0  0
  9 10  2  0
 10  5  1  0
  9 11  1  0
 11 12  2  0
 13 14  1  0
 13 15  1  0
 15 16  1  0
 16 17  2  0
 14 18  2  0
 19 20  1  0
 19 21  1  0
 21 22  1  0
 22 23  2  0
 23 24  1  0
 24 25  2  0
 25 26  1  0
 26 27  2  0
 27 22  1  0
 20 28  1  0
 28 29  1  0
 29 30  1  0
 29 32  1  0
 30 31  1  0
 31 34  1  0
 33 32  1  0
 33 34  1  0
 33 38  1  0
 34 35  1  0
 35 36  1  0
 36 37  1  0
 37 38  1  0
 30 39  1  0
 39 40  2  0
 41 42  1  0
 41 43  1  0
 41 44  1  0
  1  2  2  0
  2  3  1  0
  3  6  2  0
  5  4  2  0
 11 45  1  0
 45 13  1  0
 14 47  1  0
 47 19  1  0
 20 48  1  0
 16 46  1  0
 39 49  1  0
 49 41  1  0
  4  1  1  0
  5  6  1  0
  6  7  1  0
  7  8  2  0
  8  9  1  0
M  END
>  <Classification>  (59) 
1

>  <pchembl>  (59) 
5.31

>  <InChI_steorem>  (59) 
InChI=1S/C38H50N6O5/c1-38(2,3)43-37(49)32-20-26-14-7-8-15-27(26)22-44(32)23-33(45)30(19-24-11-5-4-6-12-24)41-36(48)31(21-34(39)46)42-35(47)29-18-17-25-13-9-10-16-28(25)40-29/h4-6,9-13,16-18,26-27,30-33,45H,7-8,14-15,19-23H2,1-3H3,(H2,39,46)(H,41,48)(H,42,47)(H,43,49)

>  <source>  (59) 
ChEMBL25

>  <source_id>  (59) 
25

>  <optional_reference>  (59) 
10.1093/toxsci/kfq269

>  <optional_origin>  (59) 
None

>  <target>  (59) 
BSEP

$$$$

     RDKit          2D

 57 60  0  0  0  0  0  0  0  0999 V2000
    4.3400    0.9300    0.0000 O   0  0  0  0  0  0  0  0  0  0  0  0
    4.6099    3.6450    0.0000 O   0  0  0  0  0  0  0  0  0  0  0  0
    8.2076   -0.1525    0.0000 O   0  0  0  0  0  0  0  0  0  0  0  0
    6.8275   -2.1560    0.0000 O   0  0  0  0  0  0  0  0  0  0  0  0
    3.3547    4.4788    0.0000 O   0  0  0  0  0  0  0  0  0  0  0  0
    1.9207    1.3881    0.0000 O   0  0  0  0  0  0  0  0  0  0  0  0
   -2.2500    1.7900    0.0000 O   0  0  0  0  0  0  0  0  0  0  0  0
   -0.0515    0.8289    0.0000 O   0  0  0  0  0  0  0  0  0  0  0  0
   -3.6832   -2.5724    0.0000 O   0  0  0  0  0  0  0  0  0  0  0  0
   -3.0431   -5.2825    0.0000 O   0  0  0  0  0  0  0  0  0  0  0  0
   -9.5051   -3.8610    0.0000 O   0  0  0  0  0  0  0  0  0  0  0  0
  -10.8751   -1.3450    0.0000 O   0  0  0  0  0  0  0  0  0  0  0  0
    0.9900    3.5700    0.0000 N   0  0  0  0  0  0  0  0  0  0  0  0
    4.5000    2.4500    0.0000 C   0  0  0  0  0  0  0  0  0  0  0  0
    5.6200    0.1000    0.0000 C   0  0  0  0  0  0  0  0  0  0  0  0
    6.9800    0.7100    0.0000 C   0  0  0  0  0  0  0  0  0  0  0  0
    5.8600    3.0600    0.0000 C   0  0  0  0  0  0  0  0  0  0  0  0
    3.3000    3.2800    0.0000 C   0  0  0  0  0  0  0  0  0  0  0  0
    5.5000   -1.4500    0.0000 C   0  0  0  0  0  0  0  0  0  0  0  0
    7.0800    2.2400    0.0000 C   0  0  0  0  0  0  0  0  0  0  0  0
    2.0600    2.5800    0.0000 C   0  0  0  0  0  0  0  0  0  0  0  0
    4.3000   -2.4200    0.0000 C   0  0  0  0  0  0  0  0  0  0  0  0
   -0.3600    3.1800    0.0000 C   0  0  0  0  0  0  0  0  0  0  0  0
    5.9620    4.2557    0.0000 C   0  0  0  0  0  0  0  0  0  0  0  0
    1.3600    4.9600    0.0000 C   0  0  0  0  0  0  0  0  0  0  0  0
    4.5700   -3.9100    0.0000 C   0  0  0  0  0  0  0  0  0  0  0  0
   -0.7700    1.7900    0.0000 C   0  0  0  0  0  0  0  0  0  0  0  0
   -1.4000    4.1800    0.0000 C   0  0  0  0  0  0  0  0  0  0  0  0
    9.2963    0.3521    0.0000 C   0  0  0  0  0  0  0  0  0  0  0  0
    0.3400    5.9800    0.0000 C   0  0  0  0  0  0  0  0  0  0  0  0
    6.8699   -3.3553    0.0000 C   0  0  0  0  0  0  0  0  0  0  0  0
   -1.0400    5.5700    0.0000 C   0  0  0  0  0  0  0  0  0  0  0  0
   -3.0300    0.4800    0.0000 C   0  0  0  0  0  0  0  0  0  0  0  0
    3.4100   -4.8000    0.0000 C   0  0  0  0  0  0  0  0  0  0  0  0
   -2.0600   -0.7300    0.0000 C   0  0  0  0  0  0  0  0  0  0  0  0
    5.6894   -4.3423    0.0000 C   0  0  0  0  0  0  0  0  0  0  0  0
   -4.5249    0.3786    0.0000 C   0  0  0  0  0  0  0  0  0  0  0  0
    3.4100   -6.5900    0.0000 C   0  0  0  0  0  0  0  0  0  0  0  0
   -2.5600   -2.1500    0.0000 C   0  0  0  0  0  0  0  0  0  0  0  0
   -5.1867   -0.9684    0.0000 C   0  0  0  0  0  0  0  0  0  0  0  0
    1.2900   -6.0600    0.0000 C   0  0  0  0  0  0  0  0  0  0  0  0
   -6.6841   -1.0698    0.0000 C   0  0  0  0  0  0  0  0  0  0  0  0
   -0.4500   -6.6300    0.0000 C   0  0  0  0  0  0  0  0  0  0  0  0
   -1.2100   -2.9100    0.0000 C   0  0  0  0  0  0  0  0  0  0  0  0
   -1.8700   -5.0300    0.0000 C   0  0  0  0  0  0  0  0  0  0  0  0
   -0.8770   -0.5286    0.0000 C   0  0  0  0  0  0  0  0  0  0  0  0
   -5.1934    1.3752    0.0000 C   0  0  0  0  0  0  0  0  0  0  0  0
    4.1485   -7.5358    0.0000 C   0  0  0  0  0  0  0  0  0  0  0  0
   -7.3474   -2.4152    0.0000 C   0  0  0  0  0  0  0  0  0  0  0  0
   -8.8442   -2.5135    0.0000 C   0  0  0  0  0  0  0  0  0  0  0  0
   -7.5177    0.1773    0.0000 C   0  0  0  0  0  0  0  0  0  0  0  0
   -9.6777   -1.2664    0.0000 C   0  0  0  0  0  0  0  0  0  0  0  0
   -0.7848   -8.0861    0.0000 C   0  0  0  0  0  0  0  0  0  0  0  0
   -9.0144    0.0790    0.0000 C   0  0  0  0  0  0  0  0  0  0  0  0
    0.3142   -9.1081    0.0000 C   0  0  0  0  0  0  0  0  0  0  0  0
   -8.8369   -4.8577    0.0000 C   0  0  0  0  0  0  0  0  0  0  0  0
    0.0467  -10.2779    0.0000 C   0  0  0  0  0  0  0  0  0  0  0  0
  1 14  1  0
 15  1  1  0
 14  2  1  0
 16  3  1  0
  3 29  1  0
 19  4  1  0
  4 31  1  0
  5 18  2  0
  6 21  2  0
  7 27  1  0
  7 33  1  0
  8 27  2  0
 39  9  1  0
 10 45  2  0
 50 11  1  0
 11 56  1  0
 52 12  1  0
 13 21  1  0
 13 23  1  0
 13 25  1  0
 14 17  1  0
 14 18  1  0
 15 16  1  0
 15 19  1  0
 16 20  1  0
 17 20  1  0
 17 24  1  0
 18 21  1  0
 19 22  1  0
 22 26  1  0
 23 27  1  0
 23 28  1  0
 25 30  1  0
 26 34  1  0
 26 36  1  0
 28 32  1  0
 30 32  1  0
 33 35  1  0
 33 37  1  0
 34 38  1  0
 35 39  1  0
 35 46  1  0
 37 40  2  3
 37 47  1  0
 38 41  2  0
 38 48  1  0
 39 44  1  0
 42 40  1  0
 41 43  1  0
 42 49  1  0
 42 51  1  0
 43 45  1  0
 43 53  1  0
 44 45  1  0
 49 50  1  0
 50 52  1  0
 51 54  1  0
 52 54  1  0
 53 55  1  0
 55 57  2  0
M  END
>  <Classification>  (60) 
1

>  <pchembl>  (60) 
5.14

>  <InChI_steorem>  (60) 
InChI=1S/C44H69NO12/c1-10-13-31-19-25(2)18-26(3)20-37(54-8)40-38(55-9)22-28(5)44(52,57-40)41(49)42(50)45-17-12-11-14-32(45)43(51)56-39(29(6)34(47)24-35(31)48)27(4)21-30-15-16-33(46)36(23-30)53-7/h10,19,21,26,28-34,36-40,46-47,52H,1,11-18,20,22-24H2,2-9H3

>  <source>  (60) 
ChEMBL25

>  <source_id>  (60) 
25

>  <optional_reference>  (60) 
10.1093/toxsci/kft176

>  <optional_origin>  (60) 
None

>  <target>  (60) 
BSEP

$$$$

     RDKit          2D

 59 63  0  0  0  0  0  0  0  0999 V2000
   -0.6300   -2.6500    0.0000 C   0  0  0  0  0  0  0  0  0  0  0  0
    3.2300   -0.3900    0.0000 C   0  0  0  0  0  0  0  0  0  0  0  0
    3.2300   -1.8800    0.0000 C   0  0  0  0  0  0  0  0  0  0  0  0
   -1.9300   -1.8800    0.0000 C   0  0  0  0  0  0  0  0  0  0  0  0
    0.6600   -0.3900    0.0000 C   0  0  0  0  0  0  0  0  0  0  0  0
    0.6600   -1.8700    0.0000 C   0  0  0  0  0  0  0  0  0  0  0  0
   -2.3800   -4.2600    0.0000 C   0  0  0  0  0  0  0  0  0  0  0  0
    4.1900    0.5300    0.0000 N   0  0  0  0  0  0  0  0  0  0  0  0
   -3.0100   -2.9400    0.0000 O   0  0  0  0  0  0  0  0  0  0  0  0
    1.9500    0.3100    0.0000 C   0  0  0  0  0  0  0  0  0  0  0  0
    1.9500   -2.6500    0.0000 C   0  0  0  0  0  0  0  0  0  0  0  0
   -0.6300    0.3100    0.0000 C   0  0  0  0  0  0  0  0  0  0  0  0
   -0.9200   -4.0700    0.0000 C   0  0  0  0  0  0  0  0  0  0  0  0
   -1.9300   -0.3900    0.0000 C   0  0  0  0  0  0  0  0  0  0  0  0
   -4.3000    2.7200    0.0000 C   0  0  0  0  0  0  0  0  0  0  0  0
    4.1900    2.1300    0.0000 C   0  0  0  0  0  0  0  0  0  0  0  0
   -3.1000    3.5700    0.0000 C   0  0  0  0  0  0  0  0  0  0  0  0
   -2.2100    5.6200    0.0000 C   0  0  0  0  0  0  0  0  0  0  0  0
   -3.5200    5.0300    0.0000 C   0  0  0  0  0  0  0  0  0  0  0  0
    4.5074   -2.6667    0.0000 C   0  0  0  0  0  0  0  0  0  0  0  0
   -3.7300    1.3600    0.0000 C   0  0  0  0  0  0  0  0  0  0  0  0
    5.7441   -4.9537    0.0000 N   0  0  0  0  0  0  0  0  0  0  0  0
   -0.7000    4.9800    0.0000 C   0  0  0  0  0  0  0  0  0  0  0  0
    4.4660   -4.1670    0.0000 N   0  0  0  0  0  0  0  0  0  0  0  0
    5.4300    2.9200    0.0000 C   0  0  0  0  0  0  0  0  0  0  0  0
   -4.8700   -4.7400    0.0000 O   0  0  0  0  0  0  0  0  0  0  0  0
   -5.7879    3.1064    0.0000 O   0  0  0  0  0  0  0  0  0  0  0  0
    8.3021   -6.5212    0.0000 N   0  0  0  0  0  0  0  0  0  0  0  0
   -5.8600   -3.2000    0.0000 C   0  0  0  0  0  0  0  0  0  0  0  0
   -6.1887    4.5527    0.0000 C   0  0  0  0  0  0  0  0  0  0  0  0
   -4.6200   -1.6300    0.0000 C   0  0  0  0  0  0  0  0  0  0  0  0
   -4.9900    0.0000    0.0000 C   0  0  0  0  0  0  0  0  0  0  0  0
    3.9200    5.5200    0.0000 C   0  0  0  0  0  0  0  0  0  0  0  0
   -0.1213   -4.9656    0.0000 O   0  0  0  0  0  0  0  0  0  0  0  0
    5.4300    4.5000    0.0000 C   0  0  0  0  0  0  0  0  0  0  0  0
    3.1522    2.7324    0.0000 O   0  0  0  0  0  0  0  0  0  0  0  0
    5.7049   -6.4533    0.0000 C   0  0  0  0  0  0  0  0  0  0  0  0
    7.0624   -4.2380    0.0000 C   0  0  0  0  0  0  0  0  0  0  0  0
    0.8100    5.4600    0.0000 C   0  0  0  0  0  0  0  0  0  0  0  0
    2.2200    4.6900    0.0000 C   0  0  0  0  0  0  0  0  0  0  0  0
   -7.3502    4.8541    0.0000 O   0  0  0  0  0  0  0  0  0  0  0  0
    1.9500    1.5100    0.0000 O   0  0  0  0  0  0  0  0  0  0  0  0
    1.9500   -3.8500    0.0000 O   0  0  0  0  0  0  0  0  0  0  0  0
   -0.6300    1.5100    0.0000 O   0  0  0  0  0  0  0  0  0  0  0  0
    8.3413   -5.0218    0.0000 C   0  0  0  0  0  0  0  0  0  0  0  0
    6.9839   -7.2370    0.0000 C   0  0  0  0  0  0  0  0  0  0  0  0
   -4.6058    5.5410    0.0000 O   0  0  0  0  0  0  0  0  0  0  0  0
   -0.7000    3.7800    0.0000 O   0  0  0  0  0  0  0  0  0  0  0  0
   -2.2267   -5.4502    0.0000 C   0  0  0  0  0  0  0  0  0  0  0  0
   -2.9674    0.2131    0.0000 C   0  0  0  0  0  0  0  0  0  0  0  0
   -1.9516    3.2220    0.0000 C   0  0  0  0  0  0  0  0  0  0  0  0
   -2.2100    6.8200    0.0000 C   0  0  0  0  0  0  0  0  0  0  0  0
   -6.5219    0.1638    0.0000 O   0  0  0  0  0  0  0  0  0  0  0  0
   -2.5544    1.1190    0.0000 C   0  0  0  0  0  0  0  0  0  0  0  0
    9.3253   -7.1482    0.0000 C   0  0  0  0  0  0  0  0  0  0  0  0
    6.5322    2.4455    0.0000 C   0  0  0  0  0  0  0  0  0  0  0  0
   -5.3472    5.4082    0.0000 C   0  0  0  0  0  0  0  0  0  0  0  0
    0.8100    6.6600    0.0000 C   0  0  0  0  0  0  0  0  0  0  0  0
   -7.0081    1.2608    0.0000 C   0  0  0  0  0  0  0  0  0  0  0  0
  2  3  1  0
  3 11  2  0
  4  1  2  0
  5  6  2  0
  6  1  1  0
  7 13  1  0
  8  2  1  0
  9  4  1  0
 10  5  1  0
 11  6  1  0
 12  5  1  0
 13  1  1  0
 14  4  1  0
 15 21  1  0
 16  8  1  0
 17 15  1  0
 18 19  1  0
 19 17  1  0
 20  3  1  0
 21 32  1  0
 22 24  1  0
 23 18  1  0
 24 20  2  3
 25 16  1  0
 26  7  1  0
 15 27  1  0
 28 45  1  0
 29 26  1  0
 30 27  1  0
 31 29  2  0
 32 31  1  0
 33 35  1  0
 34 13  2  0
 35 25  2  0
 36 16  2  0
 37 22  1  0
 38 22  1  0
 39 40  1  0
 40 33  2  0
 41 30  2  0
 42 10  1  0
 43 11  1  0
 44 12  1  0
 45 38  1  0
 46 37  1  0
 19 47  1  0
 23 48  1  0
  7 49  1  0
 50 14  1  0
 17 51  1  0
 18 52  1  0
 32 53  1  0
 21 54  1  0
 55 28  1  0
 56 25  1  0
 57 30  1  0
 39 58  1  0
 59 53  1  0
 12 14  2  0
  9  7  1  0
 10  2  2  0
 46 28  1  0
 39 23  1  0
M  END
>  <Classification>  (61) 
0

>  <pchembl>  (61) 
4.95

>  <InChI_steorem>  (61) 
InChI=1S/C43H58N4O12/c1-21-12-11-13-22(2)42(55)45-33-28(20-44-47-17-15-46(9)16-18-47)37(52)30-31(38(33)53)36(51)26(6)40-32(30)41(54)43(8,59-40)57-19-14-29(56-10)23(3)39(58-27(7)48)25(5)35(50)24(4)34(21)49/h11-14,19-21,23-25,29,34-35,39,49-53H,15-18H2,1-10H3,(H,45,55)

>  <source>  (61) 
ChEMBL25

>  <source_id>  (61) 
25

>  <optional_reference>  (61) 
10.1124/dmd.111.040758

>  <optional_origin>  (61) 
None

>  <target>  (61) 
BSEP

$$$$

     RDKit          2D

 61 66  0  0  0  0  0  0  0  0999 V2000
   -4.4200    3.1800    0.0000 C   0  0  0  0  0  0  0  0  0  0  0  0
   -5.6100    3.9400    0.0000 C   0  0  0  0  0  0  0  0  0  0  0  0
   -5.6100    5.6000    0.0000 N   0  0  0  0  0  0  0  0  0  0  0  0
   -4.4200    6.3700    0.0000 C   0  0  0  0  0  0  0  0  0  0  0  0
   -3.2300    5.6000    0.0000 C   0  0  0  0  0  0  0  0  0  0  0  0
   -3.2300    3.9400    0.0000 C   0  0  0  0  0  0  0  0  0  0  0  0
    2.7100    0.0000    0.0000 C   0  0  0  0  0  0  0  0  0  0  0  0
    1.5200   -0.7700    0.0000 C   0  0  0  0  0  0  0  0  0  0  0  0
    0.3300    0.0000    0.0000 C   0  0  0  0  0  0  0  0  0  0  0  0
    0.3300    1.6400    0.0000 C   0  0  0  0  0  0  0  0  0  0  0  0
   -2.0400    0.0000    0.0000 C   0  0  0  0  0  0  0  0  0  0  0  0
   -0.8500   -0.7700    0.0000 C   0  0  0  0  0  0  0  0  0  0  0  0
    1.5200    2.4100    0.0000 C   0  0  0  0  0  0  0  0  0  0  0  0
    2.7100    1.6400    0.0000 C   0  0  0  0  0  0  0  0  0  0  0  0
    3.9000    2.4100    0.0000 O   0  0  0  0  0  0  0  0  0  0  0  0
    3.9000    3.9400    0.0000 C   0  0  0  0  0  0  0  0  0  0  0  0
    1.5200    3.9400    0.0000 C   0  0  0  0  0  0  0  0  0  0  0  0
   -2.0400    1.6400    0.0000 C   0  0  0  0  0  0  0  0  0  0  0  0
   -0.8500    2.4100    0.0000 C   0  0  0  0  0  0  0  0  0  0  0  0
   -0.8500    3.9400    0.0000 N   0  0  0  0  0  0  0  0  0  0  0  0
   -3.2300    2.4100    0.0000 N   0  0  0  0  0  0  0  0  0  0  0  0
    1.5200   -1.9700    0.0000 O   0  0  0  0  0  0  0  0  0  0  0  0
   -0.8500   -1.9700    0.0000 O   0  0  0  0  0  0  0  0  0  0  0  0
   -6.9370    6.3108    0.0000 C   0  0  0  0  0  0  0  0  0  0  0  0
   -6.9845    7.8109    0.0000 C   0  0  0  0  0  0  0  0  0  0  0  0
   -8.0418    8.3783    0.0000 C   0  0  0  0  0  0  0  0  0  0  0  0
   -5.9646    8.4431    0.0000 C   0  0  0  0  0  0  0  0  0  0  0  0
   -3.2300   -0.7700    0.0000 N   0  0  0  0  0  0  0  0  0  0  0  0
   -3.2300   -2.2000    0.0000 C   0  0  0  0  0  0  0  0  0  0  0  0
   -4.4200   -2.9800    0.0000 C   0  0  0  0  0  0  0  0  0  0  0  0
   -2.2264   -2.8578    0.0000 O   0  0  0  0  0  0  0  0  0  0  0  0
   -5.4756   -2.4092    0.0000 C   0  0  0  0  0  0  0  0  0  0  0  0
   -4.4200   -4.9700    0.0000 C   0  0  0  0  0  0  0  0  0  0  0  0
   -3.2300   -5.8400    0.0000 C   0  0  0  0  0  0  0  0  0  0  0  0
   -2.0400   -4.9700    0.0000 C   0  0  0  0  0  0  0  0  0  0  0  0
   -0.8500   -5.8400    0.0000 C   0  0  0  0  0  0  0  0  0  0  0  0
    0.3300   -4.9700    0.0000 C   0  0  0  0  0  0  0  0  0  0  0  0
   -0.8500   -7.0400    0.0000 C   0  0  0  0  0  0  0  0  0  0  0  0
    1.5200   -5.8400    0.0000 C   0  0  0  0  0  0  0  0  0  0  0  0
    0.3300   -3.7700    0.0000 O   0  0  0  0  0  0  0  0  0  0  0  0
    1.4500   -7.0380    0.0000 C   0  0  0  0  0  0  0  0  0  0  0  0
    2.7100   -5.1900    0.0000 C   0  0  0  0  0  0  0  0  0  0  0  0
    3.7175   -5.8419    0.0000 O   0  0  0  0  0  0  0  0  0  0  0  0
    2.7100   -3.2000    0.0000 C   0  0  0  0  0  0  0  0  0  0  0  0
    3.9000   -2.3100    0.0000 C   0  0  0  0  0  0  0  0  0  0  0  0
    3.9000   -0.7700    0.0000 C   0  0  0  0  0  0  0  0  0  0  0  0
    5.0714   -3.2637    0.0000 O   0  0  0  0  0  0  0  0  0  0  0  0
    5.0900    0.0000    0.0000 C   0  0  0  0  0  0  0  0  0  0  0  0
    3.7163   -3.8537    0.0000 C   0  0  0  0  0  0  0  0  0  0  0  0
    5.0900    1.6400    0.0000 C   0  0  0  0  0  0  0  0  0  0  0  0
    6.3471   -0.8066    0.0000 O   0  0  0  0  0  0  0  0  0  0  0  0
    6.2800    2.4100    0.0000 C   0  0  0  0  0  0  0  0  0  0  0  0
    6.2800    3.9400    0.0000 O   0  0  0  0  0  0  0  0  0  0  0  0
    3.9000    5.1400    0.0000 C   0  0  0  0  0  0  0  0  0  0  0  0
    4.9148   -1.4105    0.0000 C   0  0  0  0  0  0  0  0  0  0  0  0
    3.9062    0.0960    0.0000 C   0  0  0  0  0  0  0  0  0  0  0  0
    4.8353   -4.7458    0.0000 C   0  0  0  0  0  0  0  0  0  0  0  0
    3.7145   -5.1745    0.0000 C   0  0  0  0  0  0  0  0  0  0  0  0
    5.7668   -5.5024    0.0000 O   0  0  0  0  0  0  0  0  0  0  0  0
    0.5164    4.5978    0.0000 O   0  0  0  0  0  0  0  0  0  0  0  0
    6.2914   -2.0053    0.0000 C   0  0  0  0  0  0  0  0  0  0  0  0
 13 14  2  0
 28 29  1  0
  5  6  1  0
 29 30  1  0
 29 31  2  0
  7 14  1  0
 30 32  1  0
 13 10  1  0
 30 33  2  0
  1  2  1  0
 33 34  1  0
 14 15  1  0
 34 35  2  0
 15 16  1  0
 35 36  1  0
 16 17  1  0
 36 37  1  0
 17 13  1  0
 36 38  1  0
 18 19  1  0
 37 39  1  0
  9  8  1  0
 37 40  1  0
  8  7  2  0
 39 41  1  0
  9 10  2  0
 39 42  1  0
  1  6  1  0
 42 43  1  0
 19 20  2  0
 42 44  1  0
 20  6  1  0
 44 45  1  0
  6 21  1  0
 45 46  1  0
 21 18  1  0
 45 47  1  0
  2  3  1  0
 46 48  1  0
  8 22  1  0
 44 49  1  0
  3  4  1  0
 48 50  1  0
 12 23  2  0
 48 51  1  0
  4  5  1  0
 50 52  2  0
  3 24  1  0
 16 53  1  0
  9 12  1  0
 16 54  1  0
 52 53  1  0
 24 25  1  0
 46 55  1  0
 10 19  1  0
  7 56  1  0
 25 26  1  0
 47 57  1  0
 18 11  2  0
 57 58  1  0
 25 27  1  0
 57 59  2  0
 11 12  1  0
 17 60  2  0
 11 28  1  0
 51 61  1  0
M  END
>  <Classification>  (62) 
0

>  <pchembl>  (62) 
4.57

>  <InChI_steorem>  (62) 
InChI=1S/C46H62N4O11/c1-22(2)21-50-18-16-46(17-19-50)48-34-31-32-39(54)28(8)42-33(31)43(56)45(10,61-42)59-20-15-30(58-11)25(5)41(60-29(9)51)27(7)38(53)26(6)37(52)23(3)13-12-14-24(4)44(57)47-36(40(32)55)35(34)49-46/h12-15,20,22-23,25-27,30,37-38,41,49,52-54H,16-19,21H2,1-11H3,(H,47,57)

>  <source>  (62) 
ChEMBL25

>  <source_id>  (62) 
25

>  <optional_reference>  (62) 
10.1093/toxsci/kfq269

>  <optional_origin>  (62) 
None

>  <target>  (62) 
BSEP

$$$$

     RDKit          2D

 27 30  0  0  0  0  0  0  0  0999 V2000
   13.9527  -19.1666    0.0000 C   0  0  0  0  0  0  0  0  0  0  0  0
   13.9516  -19.9940    0.0000 C   0  0  0  0  0  0  0  0  0  0  0  0
   14.6664  -20.4069    0.0000 C   0  0  0  0  0  0  0  0  0  0  0  0
   14.6646  -18.7539    0.0000 C   0  0  0  0  0  0  0  0  0  0  0  0
   15.3800  -19.1630    0.0000 C   0  0  0  0  0  0  0  0  0  0  0  0
   15.3788  -19.9915    0.0000 C   0  0  0  0  0  0  0  0  0  0  0  0
   16.0918  -20.4044    0.0000 S   0  0  0  0  0  0  0  0  0  0  0  0
   16.0941  -18.7475    0.0000 N   0  0  0  0  0  0  0  0  0  0  0  0
   16.8116  -19.1650    0.0000 C   0  0  0  0  0  0  0  0  0  0  0  0
   16.8081  -19.9915    0.0000 C   0  0  0  0  0  0  0  0  0  0  0  0
   17.5182  -20.4054    0.0000 C   0  0  0  0  0  0  0  0  0  0  0  0
   18.2363  -19.9975    0.0000 C   0  0  0  0  0  0  0  0  0  0  0  0
   18.2397  -19.1710    0.0000 C   0  0  0  0  0  0  0  0  0  0  0  0
   17.5251  -18.7525    0.0000 C   0  0  0  0  0  0  0  0  0  0  0  0
   18.9563  -18.7622    0.0000 Cl  0  0  0  0  0  0  0  0  0  0  0  0
   16.0941  -17.9225    0.0000 C   0  0  0  0  0  0  0  0  0  0  0  0
   16.8086  -17.5100    0.0000 C   0  0  0  0  0  0  0  0  0  0  0  0
   17.5230  -17.9225    0.0000 C   0  0  0  0  0  0  0  0  0  0  0  0
   18.2375  -17.5100    0.0000 N   0  0  0  0  0  0  0  0  0  0  0  0
   18.9502  -17.9238    0.0000 C   0  0  0  0  0  0  0  0  0  0  0  0
   19.6626  -17.5148    0.0000 C   0  0  0  0  0  0  0  0  0  0  0  0
   19.6668  -16.6895    0.0000 N   0  0  0  0  0  0  0  0  0  0  0  0
   18.9525  -16.2748    0.0000 C   0  0  0  0  0  0  0  0  0  0  0  0
   18.2340  -16.6854    0.0000 C   0  0  0  0  0  0  0  0  0  0  0  0
   20.3829  -16.2797    0.0000 C   0  0  0  0  0  0  0  0  0  0  0  0
   21.0958  -16.6949    0.0000 C   0  0  0  0  0  0  0  0  0  0  0  0
   21.0926  -17.5199    0.0000 O   0  0  0  0  0  0  0  0  0  0  0  0
 10 11  2  0
 11 12  1  0
 12 13  2  0
 13 14  1  0
  1  2  2  0
 13 15  1  0
  5  8  1  0
  8 16  1  0
  6  7  1  0
 16 17  1  0
  7 10  1  0
 17 18  1  0
  9  8  1  0
 18 19  1  0
 19 20  1  0
  9 10  1  0
  5  4  2  0
  4  1  1  0
  5  6  1  0
 19 24  1  0
 20 21  1  0
 21 22  1  0
 22 23  1  0
 23 24  1  0
  2  3  1  0
 22 25  1  0
  3  6  2  0
 25 26  1  0
  9 14  2  0
 26 27  1  0
M  END
>  <Classification>  (63) 
0

>  <pchembl>  (63) 
4.46

>  <InChI_steorem>  (63) 
InChI=1S/C21H26ClN3OS/c22-17-6-7-21-19(16-17)25(18-4-1-2-5-20(18)27-21)9-3-8-23-10-12-24(13-11-23)14-15-26/h1-2,4-7,16,26H,3,8-15H2

>  <source>  (63) 
ChEMBL25

>  <source_id>  (63) 
25

>  <optional_reference>  (63) 
10.1124/dmd.112.047068

>  <optional_origin>  (63) 
None

>  <target>  (63) 
BSEP

$$$$

     RDKit          2D

 28 31  0  0  0  0  0  0  0  0999 V2000
    3.8407  -11.3832    0.0000 N   0  0  0  0  0  0  0  0  0  0  0  0
    3.1243  -10.9740    0.0000 C   0  0  0  0  0  0  0  0  0  0  0  0
    3.1191  -10.1514    0.0000 C   0  0  0  0  0  0  0  0  0  0  0  0
    3.8323   -9.7344    0.0000 N   0  0  0  0  0  0  0  0  0  0  0  0
    4.5487  -10.1436    0.0000 C   0  0  0  0  0  0  0  0  0  0  0  0
    4.5519  -10.9698    0.0000 C   0  0  0  0  0  0  0  0  0  0  0  0
    3.8292   -8.9082    0.0000 C   0  0  0  0  0  0  0  0  0  0  0  0
    4.5424   -8.4911    0.0000 C   0  0  0  0  0  0  0  0  0  0  0  0
    4.5372   -7.6686    0.0000 C   0  0  0  0  0  0  0  0  0  0  0  0
    5.2504   -7.2515    0.0000 C   0  0  0  0  0  0  0  0  0  0  0  0
    5.2452   -6.4289    0.0000 C   0  0  0  0  0  0  0  0  0  0  0  0
    5.9584   -6.0119    0.0000 C   0  0  0  0  0  0  0  0  0  0  0  0
    6.6748   -6.4211    0.0000 C   0  0  0  0  0  0  0  0  0  0  0  0
    6.6780   -7.2473    0.0000 C   0  0  0  0  0  0  0  0  0  0  0  0
    5.9668   -7.6607    0.0000 C   0  0  0  0  0  0  0  0  0  0  0  0
    3.8439  -12.2094    0.0000 C   0  0  0  0  0  0  0  0  0  0  0  0
    4.5603  -12.6185    0.0000 C   0  0  0  0  0  0  0  0  0  0  0  0
    5.2735  -12.2015    0.0000 C   0  0  0  0  0  0  0  0  0  0  0  0
    5.9899  -12.6107    0.0000 C   0  0  0  0  0  0  0  0  0  0  0  0
    5.9930  -13.4369    0.0000 C   0  0  0  0  0  0  0  0  0  0  0  0
    5.2798  -13.8539    0.0000 C   0  0  0  0  0  0  0  0  0  0  0  0
    4.5634  -13.4447    0.0000 C   0  0  0  0  0  0  0  0  0  0  0  0
    3.1307  -12.6264    0.0000 C   0  0  0  0  0  0  0  0  0  0  0  0
    3.1359  -13.4490    0.0000 C   0  0  0  0  0  0  0  0  0  0  0  0
    2.4226  -13.8660    0.0000 C   0  0  0  0  0  0  0  0  0  0  0  0
    1.7063  -13.4569    0.0000 C   0  0  0  0  0  0  0  0  0  0  0  0
    1.7031  -12.6307    0.0000 C   0  0  0  0  0  0  0  0  0  0  0  0
    2.4143  -12.2173    0.0000 C   0  0  0  0  0  0  0  0  0  0  0  0
  1  2  1  0
  2  3  1  0
  3  4  1  0
  4  5  1  0
  5  6  1  0
  1  6  1  0
  7  8  1  0
  8  9  2  3
  9 10  1  0
 10 11  2  0
 11 12  1  0
 12 13  2  0
 13 14  1  0
 14 15  2  0
 10 15  1  0
  4  7  1  0
 16 17  1  0
 17 18  2  0
 18 19  1  0
 19 20  2  0
 20 21  1  0
 21 22  2  0
 17 22  1  0
 16 23  1  0
 23 24  2  0
 24 25  1  0
 25 26  2  0
 26 27  1  0
 27 28  2  0
 23 28  1  0
  1 16  1  0
M  END
>  <Classification>  (64) 
0

>  <pchembl>  (64) 
4.8

>  <InChI_steorem>  (64) 
InChI=1S/C26H28N2/c1-4-11-23(12-5-1)13-10-18-27-19-21-28(22-20-27)26(24-14-6-2-7-15-24)25-16-8-3-9-17-25/h1-17,26H,18-22H2

>  <source>  (64) 
ChEMBL25

>  <source_id>  (64) 
25

>  <optional_reference>  (64) 
10.1093/toxsci/kfq269

>  <optional_origin>  (64) 
None

>  <target>  (64) 
BSEP

$$$$

     RDKit          2D

 31 32  0  0  0  0  0  0  0  0999 V2000
   -3.8893    0.7607    0.0000 C   0  0  0  0  0  0  0  0  0  0  0  0
   -4.5567    0.2758    0.0000 C   0  0  0  0  0  0  0  0  0  0  0  0
   -4.3018   -0.5088    0.0000 C   0  0  0  0  0  0  0  0  0  0  0  0
   -3.4768   -0.5088    0.0000 C   0  0  0  0  0  0  0  0  0  0  0  0
   -3.2219    0.2758    0.0000 C   0  0  0  0  0  0  0  0  0  0  0  0
   -2.9919   -1.1762    0.0000 C   0  0  0  0  0  0  0  0  0  0  0  0
   -2.4372    0.5307    0.0000 C   0  0  0  0  0  0  0  0  0  0  0  0
   -3.8893    1.5857    0.0000 O   0  0  0  0  0  0  0  0  0  0  0  0
   -4.7867   -1.1762    0.0000 O   0  0  0  0  0  0  0  0  0  0  0  0
   -1.7228    0.1182    0.0000 C   0  0  0  0  0  0  0  0  0  0  0  0
   -1.0083    0.5307    0.0000 C   0  0  0  0  0  0  0  0  0  0  0  0
   -1.0083    1.3557    0.0000 C   0  0  0  0  0  0  0  0  0  0  0  0
   -0.2938    1.7682    0.0000 C   0  0  0  0  0  0  0  0  0  0  0  0
   -0.2938    2.5932    0.0000 C   0  0  0  0  0  0  0  0  0  0  0  0
    0.4207    3.0057    0.0000 C   0  0  0  0  0  0  0  0  0  0  0  0
    0.4207    3.8307    0.0000 O   0  0  0  0  0  0  0  0  0  0  0  0
    1.1351    2.5932    0.0000 O   0  0  0  0  0  0  0  0  0  0  0  0
    1.8496    3.0057    0.0000 C   0  0  0  0  0  0  0  0  0  0  0  0
    2.5641    2.5932    0.0000 C   0  0  0  0  0  0  0  0  0  0  0  0
    1.8496    3.8307    0.0000 C   0  0  0  0  0  0  0  0  0  0  0  0
   -2.1714   -1.0900    0.0000 C   0  0  0  0  0  0  0  0  0  0  0  0
   -1.6865   -1.7574    0.0000 C   0  0  0  0  0  0  0  0  0  0  0  0
   -0.8660   -1.6712    0.0000 C   0  0  0  0  0  0  0  0  0  0  0  0
   -0.3811   -2.3387    0.0000 C   0  0  0  0  0  0  0  0  0  0  0  0
    0.4394   -2.2524    0.0000 C   0  0  0  0  0  0  0  0  0  0  0  0
   -2.0220   -2.5111    0.0000 O   0  0  0  0  0  0  0  0  0  0  0  0
    0.9244   -2.9199    0.0000 C   0  0  0  0  0  0  0  0  0  0  0  0
    1.7448   -2.8337    0.0000 C   0  0  0  0  0  0  0  0  0  0  0  0
    2.0804   -2.0799    0.0000 C   0  0  0  0  0  0  0  0  0  0  0  0
    1.5955   -1.4125    0.0000 C   0  0  0  0  0  0  0  0  0  0  0  0
    0.7750   -1.4987    0.0000 C   0  0  0  0  0  0  0  0  0  0  0  0
  1  2  1  0
  2  3  1  0
  3  4  1  0
  4  5  1  0
  1  5  1  0
  4  6  1  0
  5  7  1  0
  1  8  1  0
  3  9  1  0
  7 10  1  0
 10 11  2  3
 11 12  1  0
 12 13  1  0
 13 14  1  0
 14 15  1  0
 15 16  2  0
 15 17  1  0
 17 18  1  0
 18 19  1  0
 18 20  1  0
  6 21  1  0
 21 22  1  0
 22 23  1  0
 23 24  1  0
 24 25  1  0
 22 26  1  0
 25 27  2  0
 25 31  1  0
 27 28  1  0
 28 29  2  0
 29 30  1  0
 30 31  2  0
M  END
>  <Classification>  (65) 
0

>  <pchembl>  (65) 
4.89

>  <InChI_steorem>  (65) 
InChI=1S/C26H40O5/c1-19(2)31-26(30)13-9-4-3-8-12-22-23(25(29)18-24(22)28)17-16-21(27)15-14-20-10-6-5-7-11-20/h3,5-8,10-11,19,21-25,27-29H,4,9,12-18H2,1-2H3

>  <source>  (65) 
ChEMBL25

>  <source_id>  (65) 
25

>  <optional_reference>  (65) 
10.1093/toxsci/kft176

>  <optional_origin>  (65) 
None

>  <target>  (65) 
BSEP

$$$$

     RDKit          2D

 20 21  0  0  0  0  0  0  0  0999 V2000
   -3.9806   -2.0606    0.0000 C   0  0  0  0  0  0  0  0  0  0  0  0
   -3.9819   -2.8893    0.0000 C   0  0  0  0  0  0  0  0  0  0  0  0
   -3.2679   -3.3027    0.0000 C   0  0  0  0  0  0  0  0  0  0  0  0
   -2.5523   -2.8888    0.0000 C   0  0  0  0  0  0  0  0  0  0  0  0
   -2.5554   -2.0566    0.0000 C   0  0  0  0  0  0  0  0  0  0  0  0
   -3.2699   -1.6472    0.0000 C   0  0  0  0  0  0  0  0  0  0  0  0
   -1.8390   -1.6406    0.0000 C   0  0  0  0  0  0  0  0  0  0  0  0
   -1.1238   -2.0507    0.0000 C   0  0  0  0  0  0  0  0  0  0  0  0
   -1.8424   -0.8145    0.0000 O   0  0  0  0  0  0  0  0  0  0  0  0
   -4.6988   -1.6478    0.0000 O   0  0  0  0  0  0  0  0  0  0  0  0
   -4.7004   -3.3017    0.0000 O   0  0  0  0  0  0  0  0  0  0  0  0
   -3.2673   -4.1321    0.0000 N   0  0  0  0  0  0  0  0  0  0  0  0
   -3.9809   -4.5449    0.0000 O   0  0  0  0  0  0  0  0  0  0  0  0
   -2.5538   -4.5453    0.0000 O   0  0  0  0  0  0  0  0  0  0  0  0
   -1.1240   -2.8741    0.0000 C   0  0  0  0  0  0  0  0  0  0  0  0
   -0.4051   -3.2842    0.0000 C   0  0  0  0  0  0  0  0  0  0  0  0
    0.3077   -2.8681    0.0000 C   0  0  0  0  0  0  0  0  0  0  0  0
    0.3014   -2.0374    0.0000 C   0  0  0  0  0  0  0  0  0  0  0  0
   -0.4136   -1.6315    0.0000 C   0  0  0  0  0  0  0  0  0  0  0  0
    1.0236   -3.2772    0.0000 C   0  0  0  0  0  0  0  0  0  0  0  0
  1 10  1  0
  2  3  2  0
  2 11  1  0
  5  6  1  0
  6  1  2  0
  1  2  1  0
 12 13  1  0
 12 14  2  0
  3 12  1  0
  5  7  1  0
  8 15  2  0
  3  4  1  0
 15 16  1  0
  7  8  1  0
 16 17  2  0
 17 18  1  0
  7  9  2  0
 18 19  2  0
 19  8  1  0
  4  5  2  0
 17 20  1  0
M  CHG  2  12   1  13  -1
M  END
>  <Classification>  (66) 
0

>  <pchembl>  (66) 
4.46

>  <InChI_steorem>  (66) 
InChI=1S/C14H11NO5/c1-8-2-4-9(5-3-8)13(17)10-6-11(15(19)20)14(18)12(16)7-10/h2-7,16,18H,1H3

>  <source>  (66) 
ChEMBL25

>  <source_id>  (66) 
25

>  <optional_reference>  (66) 
10.1093/toxsci/kfq269

>  <optional_origin>  (66) 
None

>  <target>  (66) 
BSEP

$$$$

     RDKit          2D

 21 22  0  0  0  0  0  0  0  0999 V2000
   -2.6845    2.0497    0.0000 C   0  0  0  0  0  0  0  0  0  0  0  0
   -2.6856    1.2225    0.0000 C   0  0  0  0  0  0  0  0  0  0  0  0
   -1.9709    0.8097    0.0000 C   0  0  0  0  0  0  0  0  0  0  0  0
   -1.2545    1.2229    0.0000 N   0  0  0  0  0  0  0  0  0  0  0  0
   -1.2573    2.0534    0.0000 C   0  0  0  0  0  0  0  0  0  0  0  0
   -1.9727    2.4625    0.0000 N   0  0  0  0  0  0  0  0  0  0  0  0
   -0.5445    2.4686    0.0000 S   0  0  0  0  0  0  0  0  0  0  0  0
    0.1714    2.0588    0.0000 C   0  0  0  0  0  0  0  0  0  0  0  0
    0.8842    2.4739    0.0000 C   0  0  0  0  0  0  0  0  0  0  0  0
    1.6007    2.0642    0.0000 O   0  0  0  0  0  0  0  0  0  0  0  0
    0.8817    3.2989    0.0000 O   0  0  0  0  0  0  0  0  0  0  0  0
   -3.3989    2.4621    0.0000 N   0  0  0  0  0  0  0  0  0  0  0  0
   -1.9711   -0.0152    0.0000 Cl  0  0  0  0  0  0  0  0  0  0  0  0
   -4.1132    2.0494    0.0000 C   0  0  0  0  0  0  0  0  0  0  0  0
   -4.8276    2.4635    0.0000 C   0  0  0  0  0  0  0  0  0  0  0  0
   -5.5413    2.0515    0.0000 C   0  0  0  0  0  0  0  0  0  0  0  0
   -5.5416    1.2257    0.0000 C   0  0  0  0  0  0  0  0  0  0  0  0
   -4.8221    0.8136    0.0000 C   0  0  0  0  0  0  0  0  0  0  0  0
   -4.1113    1.2279    0.0000 C   0  0  0  0  0  0  0  0  0  0  0  0
   -4.8268    3.2884    0.0000 C   0  0  0  0  0  0  0  0  0  0  0  0
   -6.2595    2.4642    0.0000 C   0  0  0  0  0  0  0  0  0  0  0  0
  9 10  1  0
  9 11  2  0
  5  6  2  0
  1 12  1  0
  6  1  1  0
  3 13  1  0
  1  2  2  0
 12 14  1  0
  5  7  1  0
 14 15  2  0
  3  4  2  0
 15 16  1  0
  7  8  1  0
 16 17  2  0
 17 18  1  0
  8  9  1  0
 18 19  2  0
 19 14  1  0
  4  5  1  0
 15 20  1  0
  2  3  1  0
 16 21  1  0
M  END
>  <Classification>  (67) 
0

>  <pchembl>  (67) 
4.12

>  <InChI_steorem>  (67) 
InChI=1S/C14H14ClN3O2S/c1-8-4-3-5-10(9(8)2)16-12-6-11(15)17-14(18-12)21-7-13(19)20/h3-6H,7H2,1-2H3,(H,19,20)(H,16,17,18)

>  <source>  (67) 
ChEMBL25

>  <source_id>  (67) 
25

>  <optional_reference>  (67) 
10.1093/toxsci/kfq269

>  <optional_origin>  (67) 
None

>  <target>  (67) 
BSEP

$$$$

     RDKit          2D

 24 24  0  0  0  0  0  0  0  0999 V2000
   -3.9353    1.7646    0.0000 C   0  0  0  0  0  0  0  0  0  0  0  0
   -3.9365    0.9363    0.0000 C   0  0  0  0  0  0  0  0  0  0  0  0
   -3.2207    0.5229    0.0000 C   0  0  0  0  0  0  0  0  0  0  0  0
   -2.5035    0.9367    0.0000 C   0  0  0  0  0  0  0  0  0  0  0  0
   -2.5064    1.7683    0.0000 C   0  0  0  0  0  0  0  0  0  0  0  0
   -3.2225    2.1779    0.0000 C   0  0  0  0  0  0  0  0  0  0  0  0
   -4.6507    2.1775    0.0000 C   0  0  0  0  0  0  0  0  0  0  0  0
   -3.2250    3.0039    0.0000 C   0  0  0  0  0  0  0  0  0  0  0  0
   -1.7875    0.5249    0.0000 C   0  0  0  0  0  0  0  0  0  0  0  0
   -1.7938    2.1818    0.0000 C   0  0  0  0  0  0  0  0  0  0  0  0
   -1.0805    1.7729    0.0000 C   0  0  0  0  0  0  0  0  0  0  0  0
   -0.3671    2.1859    0.0000 C   0  0  0  0  0  0  0  0  0  0  0  0
    0.3462    1.7771    0.0000 C   0  0  0  0  0  0  0  0  0  0  0  0
    1.0596    2.1901    0.0000 C   0  0  0  0  0  0  0  0  0  0  0  0
    1.7729    1.7813    0.0000 C   0  0  0  0  0  0  0  0  0  0  0  0
    2.4862    2.1943    0.0000 C   0  0  0  0  0  0  0  0  0  0  0  0
    3.1996    1.7854    0.0000 C   0  0  0  0  0  0  0  0  0  0  0  0
    3.9129    2.1984    0.0000 C   0  0  0  0  0  0  0  0  0  0  0  0
    4.6263    1.7896    0.0000 O   0  0  0  0  0  0  0  0  0  0  0  0
   -0.3689    3.0119    0.0000 C   0  0  0  0  0  0  0  0  0  0  0  0
    2.4844    3.0203    0.0000 C   0  0  0  0  0  0  0  0  0  0  0  0
    3.9111    3.0244    0.0000 O   0  0  0  0  0  0  0  0  0  0  0  0
   -4.6521    0.5238    0.0000 O   0  0  0  0  0  0  0  0  0  0  0  0
   -5.3670    0.9374    0.0000 C   0  0  0  0  0  0  0  0  0  0  0  0
 11 12  1  0
  6  1  2  0
 12 13  2  3
  1  2  1  0
 13 14  1  0
  1  7  1  0
 14 15  2  3
  3  4  1  0
 15 16  1  0
  6  8  1  0
 16 17  2  3
 17 18  1  0
  4  9  1  0
 18 19  1  0
  4  5  2  0
 12 20  1  0
  5 10  1  0
 16 21  1  0
  2  3  2  0
 18 22  2  0
 10 11  2  3
  2 23  1  0
  5  6  1  0
 23 24  1  0
M  END
>  <Classification>  (68) 
0

>  <pchembl>  (68) 
4.74

>  <InChI_steorem>  (68) 
InChI=1S/C21H26O3/c1-14(8-7-9-15(2)12-21(22)23)10-11-19-16(3)13-20(24-6)18(5)17(19)4/h7-13H,1-6H3,(H,22,23)

>  <source>  (68) 
ChEMBL25

>  <source_id>  (68) 
25

>  <optional_reference>  (68) 
10.1124/dmd.111.040758

>  <optional_origin>  (68) 
None

>  <target>  (68) 
BSEP

$$$$

     RDKit          2D

 30 31  0  0  0  0  0  0  0  0999 V2000
    4.3208    0.3458    0.0000 C   0  0  0  0  0  0  0  0  0  0  0  0
    4.3208   -0.4792    0.0000 C   0  0  0  0  0  0  0  0  0  0  0  0
    5.0329   -0.8875    0.0000 N   0  0  0  0  0  0  0  0  0  0  0  0
    5.7449   -0.4792    0.0000 C   0  0  0  0  0  0  0  0  0  0  0  0
    5.7449    0.3458    0.0000 C   0  0  0  0  0  0  0  0  0  0  0  0
    5.0329    0.7625    0.0000 C   0  0  0  0  0  0  0  0  0  0  0  0
    5.0333    1.5867    0.0000 C   0  0  0  0  0  0  0  0  0  0  0  0
    5.7494    1.9985    0.0000 C   0  0  0  0  0  0  0  0  0  0  0  0
    5.7498    2.8228    0.0000 C   0  0  0  0  0  0  0  0  0  0  0  0
    5.0347    3.2361    0.0000 C   0  0  0  0  0  0  0  0  0  0  0  0
    4.3179    2.8192    0.0000 C   0  0  0  0  0  0  0  0  0  0  0  0
    4.3211    1.9963    0.0000 C   0  0  0  0  0  0  0  0  0  0  0  0
    3.6052    0.7562    0.0000 C   0  0  0  0  0  0  0  0  0  0  0  0
    3.6027    1.5812    0.0000 O   0  0  0  0  0  0  0  0  0  0  0  0
    2.8919    0.3416    0.0000 O   0  0  0  0  0  0  0  0  0  0  0  0
    2.1762    0.7521    0.0000 C   0  0  0  0  0  0  0  0  0  0  0  0
    3.6070   -0.8927    0.0000 C   0  0  0  0  0  0  0  0  0  0  0  0
    6.4587   -0.8927    0.0000 C   0  0  0  0  0  0  0  0  0  0  0  0
    6.4605    0.7562    0.0000 C   0  0  0  0  0  0  0  0  0  0  0  0
    7.1738    0.3416    0.0000 O   0  0  0  0  0  0  0  0  0  0  0  0
    6.4630    1.5812    0.0000 O   0  0  0  0  0  0  0  0  0  0  0  0
    7.8895    0.7521    0.0000 C   0  0  0  0  0  0  0  0  0  0  0  0
    6.4672    3.2371    0.0000 N   0  0  0  0  0  0  0  0  0  0  0  0
    6.4676    4.0629    0.0000 O   0  0  0  0  0  0  0  0  0  0  0  0
    7.1815    2.8242    0.0000 O   0  0  0  0  0  0  0  0  0  0  0  0
    2.1738    1.5770    0.0000 C   0  0  0  0  0  0  0  0  0  0  0  0
    1.4630    0.3375    0.0000 C   0  0  0  0  0  0  0  0  0  0  0  0
    8.6027    0.3375    0.0000 C   0  0  0  0  0  0  0  0  0  0  0  0
    9.3184    0.7479    0.0000 O   0  0  0  0  0  0  0  0  0  0  0  0
   10.0317    0.3333    0.0000 C   0  0  0  0  0  0  0  0  0  0  0  0
  1  2  2  0
 13 15  1  0
  7  8  2  0
 15 16  1  0
  1  6  1  0
  2 17  1  0
  8  9  1  0
  4 18  1  0
  2  3  1  0
  5 19  1  0
  9 10  2  0
 19 20  1  0
  3  4  1  0
 19 21  2  0
 10 11  1  0
 20 22  1  0
  4  5  2  0
 11 12  2  0
 12  7  1  0
 23 24  2  0
 23 25  1  0
  9 23  1  0
  6  7  1  0
 16 26  1  0
  5  6  1  0
 16 27  1  0
  1 13  1  0
 22 28  1  0
 28 29  1  0
 13 14  2  0
 29 30  1  0
M  CHG  2  23   1  25  -1
M  END
>  <Classification>  (69) 
1

>  <pchembl>  (69) 
5.0

>  <InChI_steorem>  (69) 
InChI=1S/C21H26N2O7/c1-12(2)30-21(25)18-14(4)22-13(3)17(20(24)29-10-9-28-5)19(18)15-7-6-8-16(11-15)23(26)27/h6-8,11-12,19,22H,9-10H2,1-5H3

>  <source>  (69) 
ChEMBL25

>  <source_id>  (69) 
25

>  <optional_reference>  (69) 
10.1002/hep.27206

>  <optional_origin>  (69) 
None

>  <target>  (69) 
BSEP

$$$$

     RDKit          2D

 30 33  0  0  0  0  0  0  0  0999 V2000
    4.5670   -2.6223    0.0000 C   0  0  0  0  0  0  0  0  0  0  0  0
    3.8525   -3.0348    0.0000 C   0  0  0  0  0  0  0  0  0  0  0  0
    3.8525   -3.8598    0.0000 C   0  0  0  0  0  0  0  0  0  0  0  0
    4.5670   -4.2723    0.0000 C   0  0  0  0  0  0  0  0  0  0  0  0
    5.2815   -3.8598    0.0000 C   0  0  0  0  0  0  0  0  0  0  0  0
    5.2815   -3.0348    0.0000 C   0  0  0  0  0  0  0  0  0  0  0  0
    3.1380   -4.2723    0.0000 F   0  0  0  0  0  0  0  0  0  0  0  0
    5.9959   -2.6223    0.0000 C   0  0  0  0  0  0  0  0  0  0  0  0
    6.7104   -3.0348    0.0000 C   0  0  0  0  0  0  0  0  0  0  0  0
    7.4249   -2.6223    0.0000 C   0  0  0  0  0  0  0  0  0  0  0  0
    8.1393   -3.0348    0.0000 C   0  0  0  0  0  0  0  0  0  0  0  0
    8.3529   -3.8317    0.0000 C   0  0  0  0  0  0  0  0  0  0  0  0
    9.1498   -3.6182    0.0000 N   0  0  0  0  0  0  0  0  0  0  0  0
    8.9362   -2.8213    0.0000 C   0  0  0  0  0  0  0  0  0  0  0  0
    9.3487   -2.1068    0.0000 C   0  0  0  0  0  0  0  0  0  0  0  0
    9.8642   -4.0306    0.0000 C   0  0  0  0  0  0  0  0  0  0  0  0
    7.9404   -4.5462    0.0000 O   0  0  0  0  0  0  0  0  0  0  0  0
    9.8642   -4.8557    0.0000 C   0  0  0  0  0  0  0  0  0  0  0  0
   10.5787   -5.2682    0.0000 C   0  0  0  0  0  0  0  0  0  0  0  0
   11.2932   -4.8556    0.0000 C   0  0  0  0  0  0  0  0  0  0  0  0
   11.2932   -4.0306    0.0000 C   0  0  0  0  0  0  0  0  0  0  0  0
   10.5787   -3.6181    0.0000 C   0  0  0  0  0  0  0  0  0  0  0  0
   10.1738   -2.1068    0.0000 C   0  0  0  0  0  0  0  0  0  0  0  0
   10.5862   -1.3923    0.0000 C   0  0  0  0  0  0  0  0  0  0  0  0
   10.1737   -0.6778    0.0000 C   0  0  0  0  0  0  0  0  0  0  0  0
    9.3487   -0.6778    0.0000 C   0  0  0  0  0  0  0  0  0  0  0  0
    8.9362   -1.3923    0.0000 C   0  0  0  0  0  0  0  0  0  0  0  0
   10.5862    0.0366    0.0000 O   0  0  0  0  0  0  0  0  0  0  0  0
   12.0077   -5.2681    0.0000 F   0  0  0  0  0  0  0  0  0  0  0  0
    5.9959   -1.7973    0.0000 O   0  0  0  0  0  0  0  0  0  0  0  0
  1  2  2  0
  1  6  1  0
  2  3  1  0
  3  4  2  0
  4  5  1  0
  5  6  2  0
  3  7  1  0
  6  8  1  0
  8  9  1  0
  9 10  1  0
 11 10  1  0
 11 12  1  0
 14 11  1  0
 12 13  1  0
 13 14  1  0
 14 15  1  0
 13 16  1  0
 12 17  2  0
 16 18  2  0
 16 22  1  0
 18 19  1  0
 19 20  2  0
 20 21  1  0
 21 22  2  0
 15 23  2  0
 15 27  1  0
 23 24  1  0
 24 25  2  0
 25 26  1  0
 26 27  2  0
 25 28  1  0
 20 29  1  0
  8 30  1  0
M  END
>  <Classification>  (70) 
0

>  <pchembl>  (70) 
4.25

>  <InChI_steorem>  (70) 
InChI=1S/C24H21F2NO3/c25-17-5-1-15(2-6-17)22(29)14-13-21-23(16-3-11-20(28)12-4-16)27(24(21)30)19-9-7-18(26)8-10-19/h1-12,21-23,28-29H,13-14H2

>  <source>  (70) 
ChEMBL25

>  <source_id>  (70) 
25

>  <optional_reference>  (70) 
10.1093/toxsci/kft176

>  <optional_origin>  (70) 
None

>  <target>  (70) 
BSEP

$$$$

     RDKit          2D

 39 40  0  0  0  0  0  0  0  0999 V2000
   12.9167   -4.4958    0.0000 C   0  0  0  0  0  0  0  0  0  0  0  0
   12.9167   -3.6667    0.0000 C   0  0  0  0  0  0  0  0  0  0  0  0
   10.0625   -4.4958    0.0000 C   0  0  0  0  0  0  0  0  0  0  0  0
   14.3417   -4.4958    0.0000 C   0  0  0  0  0  0  0  0  0  0  0  0
   15.0625   -4.9042    0.0000 C   0  0  0  0  0  0  0  0  0  0  0  0
   10.0625   -3.6667    0.0000 C   0  0  0  0  0  0  0  0  0  0  0  0
   13.6375   -4.9042    0.0000 N   0  0  0  0  0  0  0  0  0  0  0  0
   10.7792   -4.9042    0.0000 O   0  0  0  0  0  0  0  0  0  0  0  0
   12.2042   -3.2583    0.0000 O   0  0  0  0  0  0  0  0  0  0  0  0
   10.7792   -3.2583    0.0000 C   0  0  0  0  0  0  0  0  0  0  0  0
   15.7667   -4.4958    0.0000 C   0  0  0  0  0  0  0  0  0  0  0  0
   12.2042   -4.9042    0.0000 C   0  0  0  0  0  0  0  0  0  0  0  0
   11.4917   -3.6667    0.0000 C   0  0  0  0  0  0  0  0  0  0  0  0
   10.0625   -2.0125    0.0000 C   0  0  0  0  0  0  0  0  0  0  0  0
   10.7792   -2.4333    0.0000 O   0  0  0  0  0  0  0  0  0  0  0  0
   13.6375   -3.2583    0.0000 O   0  0  0  0  0  0  0  0  0  0  0  0
    9.3500   -4.9042    0.0000 O   0  0  0  0  0  0  0  0  0  0  0  0
   14.3417   -3.6667    0.0000 O   0  0  0  0  0  0  0  0  0  0  0  0
   16.4875   -4.8958    0.0000 C   0  0  0  0  0  0  0  0  0  0  0  0
   17.9125   -4.8958    0.0000 C   0  0  0  0  0  0  0  0  0  0  0  0
   10.0625   -1.1958    0.0000 O   0  0  0  0  0  0  0  0  0  0  0  0
   18.6292   -4.4833    0.0000 O   0  0  0  0  0  0  0  0  0  0  0  0
   17.1917   -4.4833    0.0000 N   0  0  0  0  0  0  0  0  0  0  0  0
    9.3500   -2.4333    0.0000 C   0  0  0  0  0  0  0  0  0  0  0  0
   15.7667   -3.6667    0.0000 O   0  0  0  0  0  0  0  0  0  0  0  0
   15.0542   -5.7333    0.0000 C   0  0  0  0  0  0  0  0  0  0  0  0
    9.3500   -3.2583    0.0000 C   0  0  0  0  0  0  0  0  0  0  0  0
   12.2042   -5.7292    0.0000 C   0  0  0  0  0  0  0  0  0  0  0  0
   11.4917   -4.4958    0.0000 C   0  0  0  0  0  0  0  0  0  0  0  0
   15.7750   -6.1417    0.0000 C   0  0  0  0  0  0  0  0  0  0  0  0
   16.4875   -5.7333    0.0000 C   0  0  0  0  0  0  0  0  0  0  0  0
    8.6292   -2.0125    0.0000 C   0  0  0  0  0  0  0  0  0  0  0  0
    8.6292   -3.6667    0.0000 C   0  0  0  0  0  0  0  0  0  0  0  0
    6.4917   -3.2583    0.0000 C   0  0  0  0  0  0  0  0  0  0  0  0
    7.2042   -3.6667    0.0000 C   0  0  0  0  0  0  0  0  0  0  0  0
    7.9167   -3.2583    0.0000 C   0  0  0  0  0  0  0  0  0  0  0  0
    7.9167   -2.4333    0.0000 C   0  0  0  0  0  0  0  0  0  0  0  0
    8.6292   -1.1958    0.0000 C   0  0  0  0  0  0  0  0  0  0  0  0
    5.7750   -3.6667    0.0000 C   0  0  0  0  0  0  0  0  0  0  0  0
  2  1  1  0
  3  8  1  0
  4  7  1  0
  5  4  1  0
  6  3  1  0
  1  7  1  0
  8 12  1  0
  9  2  1  0
 10 13  1  0
 11  5  2  0
 12  1  1  0
 13  9  1  0
 14 15  1  0
 10 15  1  0
 16  2  2  0
 17  3  2  0
 18  4  2  0
 19 11  1  0
 20 23  1  0
 21 14  2  0
 22 20  2  0
 23 19  1  0
 24 14  1  0
 25 11  1  0
 26  5  1  0
  6 27  1  0
 12 28  1  0
 13 29  1  0
 30 26  2  0
 31 30  1  0
 32 24  1  0
 33 27  1  0
 34 35  1  0
 35 36  1  0
 36 33  1  0
 37 32  1  0
 38 32  1  0
 39 34  1  0
 10  6  1  0
 19 31  2  0
M  END
>  <Classification>  (71) 
0

>  <pchembl>  (71) 
4.35

>  <InChI_steorem>  (71) 
InChI=1S/C28H40N2O9/c1-6-7-8-9-11-20-25(39-22(32)14-16(2)3)18(5)38-28(36)23(17(4)37-27(20)35)30-26(34)19-12-10-13-21(24(19)33)29-15-31/h10,12-13,15-18,20,23,25,33H,6-9,11,14H2,1-5H3,(H,29,31)(H,30,34)

>  <source>  (71) 
ChEMBL25

>  <source_id>  (71) 
25

>  <optional_reference>  (71) 
10.1093/toxsci/kfq269

>  <optional_origin>  (71) 
None

>  <target>  (71) 
BSEP

$$$$

     RDKit          2D

 44 49  0  0  0  0  0  0  0  0999 V2000
   -1.7429   -4.6672    0.0000 C   0  0  0  0  0  0  0  0  0  0  0  0
   -1.7440   -5.4967    0.0000 C   0  0  0  0  0  0  0  0  0  0  0  0
   -1.0268   -5.9127    0.0000 C   0  0  0  0  0  0  0  0  0  0  0  0
   -1.0286   -4.2556    0.0000 C   0  0  0  0  0  0  0  0  0  0  0  0
   -0.3109   -4.6637    0.0000 C   0  0  0  0  0  0  0  0  0  0  0  0
   -0.3113   -5.4930    0.0000 C   0  0  0  0  0  0  0  0  0  0  0  0
    0.4783   -5.7513    0.0000 N   0  0  0  0  0  0  0  0  0  0  0  0
    0.4780   -4.4103    0.0000 C   0  0  0  0  0  0  0  0  0  0  0  0
    0.9581   -5.0759    0.0000 C   0  0  0  0  0  0  0  0  0  0  0  0
    1.6252   -3.5765    0.0000 C   0  0  0  0  0  0  0  0  0  0  0  0
    0.8064   -3.6601    0.0000 C   0  0  0  0  0  0  0  0  0  0  0  0
    2.1094   -4.2422    0.0000 N   0  0  0  0  0  0  0  0  0  0  0  0
    1.7723   -4.9873    0.0000 C   0  0  0  0  0  0  0  0  0  0  0  0
    2.2491   -5.6468    0.0000 C   0  0  0  0  0  0  0  0  0  0  0  0
    2.9192   -4.1564    0.0000 C   0  0  0  0  0  0  0  0  0  0  0  0
    3.3941   -4.8218    0.0000 C   0  0  0  0  0  0  0  0  0  0  0  0
    3.0597   -5.5600    0.0000 C   0  0  0  0  0  0  0  0  0  0  0  0
    3.5333   -6.2191    0.0000 C   0  0  0  0  0  0  0  0  0  0  0  0
    4.3438   -6.1417    0.0000 C   0  0  0  0  0  0  0  0  0  0  0  0
    4.6779   -5.3996    0.0000 C   0  0  0  0  0  0  0  0  0  0  0  0
    4.2020   -4.7343    0.0000 C   0  0  0  0  0  0  0  0  0  0  0  0
    5.5050   -5.3899    0.0000 O   0  0  0  0  0  0  0  0  0  0  0  0
    5.9123   -4.6683    0.0000 C   0  0  0  0  0  0  0  0  0  0  0  0
    6.7393   -4.6588    0.0000 C   0  0  0  0  0  0  0  0  0  0  0  0
    5.4884   -3.9605    0.0000 O   0  0  0  0  0  0  0  0  0  0  0  0
    7.1544   -5.3731    0.0000 C   0  0  0  0  0  0  0  0  0  0  0  0
    7.9807   -5.3638    0.0000 C   0  0  0  0  0  0  0  0  0  0  0  0
    8.3888   -4.6417    0.0000 C   0  0  0  0  0  0  0  0  0  0  0  0
    7.9605   -3.9274    0.0000 C   0  0  0  0  0  0  0  0  0  0  0  0
    7.1356   -3.9402    0.0000 C   0  0  0  0  0  0  0  0  0  0  0  0
    8.3610   -3.2115    0.0000 O   0  0  0  0  0  0  0  0  0  0  0  0
    7.9387   -2.5010    0.0000 C   0  0  0  0  0  0  0  0  0  0  0  0
    9.2107   -4.6317    0.0000 O   0  0  0  0  0  0  0  0  0  0  0  0
    9.6128   -3.9096    0.0000 C   0  0  0  0  0  0  0  0  0  0  0  0
    8.4009   -6.0717    0.0000 O   0  0  0  0  0  0  0  0  0  0  0  0
    9.2279   -6.0625    0.0000 C   0  0  0  0  0  0  0  0  0  0  0  0
    4.8223   -6.8154    0.0000 O   0  0  0  0  0  0  0  0  0  0  0  0
    5.6455   -6.7356    0.0000 C   0  0  0  0  0  0  0  0  0  0  0  0
    3.1093   -6.9311    0.0000 C   0  0  0  0  0  0  0  0  0  0  0  0
    2.2823   -6.9214    0.0000 O   0  0  0  0  0  0  0  0  0  0  0  0
    3.5166   -7.6527    0.0000 O   0  0  0  0  0  0  0  0  0  0  0  0
    1.8625   -7.6333    0.0000 C   0  0  0  0  0  0  0  0  0  0  0  0
   -2.4592   -5.9080    0.0000 O   0  0  0  0  0  0  0  0  0  0  0  0
   -2.4599   -6.7350    0.0000 C   0  0  0  0  0  0  0  0  0  0  0  0
  5  6  1  0
 20 22  1  0
  8 11  1  0
 22 23  1  0
  9 13  1  0
 23 24  1  0
 12 10  1  0
 23 25  2  0
 10 11  1  0
 24 26  2  0
 12 13  1  0
 26 27  1  0
 27 28  2  0
  2  3  1  0
 28 29  1  0
  3  6  2  0
 29 30  2  0
 30 24  1  0
  8  5  1  0
 12 15  1  0
 31 32  1  0
 29 31  1  0
 13 14  1  0
 14 17  1  0
 33 34  1  0
 28 33  1  0
 16 15  1  0
 16 17  1  0
 35 36  1  0
 27 35  1  0
  6  7  1  0
  7  9  1  0
 19 37  1  0
  8  9  2  0
 37 38  1  0
  1  2  2  0
 18 39  1  0
  5  4  2  0
 39 40  1  0
  4  1  1  0
 39 41  2  0
 16 21  1  0
 40 42  1  0
 17 18  1  0
 18 19  1  0
 19 20  1  0
 20 21  1  0
 43 44  1  0
  2 43  1  0
M  END
>  <Classification>  (72) 
0

>  <pchembl>  (72) 
4.99

>  <InChI_steorem>  (72) 
InChI=1S/C33H40N2O9/c1-38-19-7-8-20-21-9-10-35-16-18-13-27(44-32(36)17-11-25(39-2)30(41-4)26(12-17)40-3)31(42-5)28(33(37)43-6)22(18)15-24(35)29(21)34-23(20)14-19/h7-8,11-12,14,18,22,24,27-28,31,34H,9-10,13,15-16H2,1-6H3

>  <source>  (72) 
ChEMBL25

>  <source_id>  (72) 
25

>  <optional_reference>  (72) 
10.1023/a:1023278211849

>  <optional_origin>  (72) 
None

>  <target>  (72) 
BSEP

$$$$

     RDKit          2D

 40 44  0  0  0  0  0  0  0  0999 V2000
    8.6476   -5.8073    0.0000 C   0  0  0  0  0  0  0  0  0  0  0  0
    8.6463   -6.6349    0.0000 C   0  0  0  0  0  0  0  0  0  0  0  0
    9.3593   -7.0479    0.0000 C   0  0  0  0  0  0  0  0  0  0  0  0
    9.3573   -5.3945    0.0000 C   0  0  0  0  0  0  0  0  0  0  0  0
   10.0754   -5.8033    0.0000 C   0  0  0  0  0  0  0  0  0  0  0  0
   10.0746   -6.6324    0.0000 C   0  0  0  0  0  0  0  0  0  0  0  0
   10.7882   -7.0454    0.0000 N   0  0  0  0  0  0  0  0  0  0  0  0
   11.5073   -6.6339    0.0000 C   0  0  0  0  0  0  0  0  0  0  0  0
   11.5081   -5.8048    0.0000 N   0  0  0  0  0  0  0  0  0  0  0  0
   10.7899   -5.3873    0.0000 C   0  0  0  0  0  0  0  0  0  0  0  0
   10.7897   -4.5622    0.0000 N   0  0  0  0  0  0  0  0  0  0  0  0
   11.5041   -4.1495    0.0000 C   0  0  0  0  0  0  0  0  0  0  0  0
   12.2175   -4.5637    0.0000 C   0  0  0  0  0  0  0  0  0  0  0  0
   12.9314   -4.1516    0.0000 C   0  0  0  0  0  0  0  0  0  0  0  0
   12.9315   -3.3257    0.0000 C   0  0  0  0  0  0  0  0  0  0  0  0
   12.2118   -2.9135    0.0000 C   0  0  0  0  0  0  0  0  0  0  0  0
   11.5009   -3.3280    0.0000 C   0  0  0  0  0  0  0  0  0  0  0  0
   13.6458   -4.5642    0.0000 Cl  0  0  0  0  0  0  0  0  0  0  0  0
   13.6453   -2.9119    0.0000 O   0  0  0  0  0  0  0  0  0  0  0  0
   14.3606   -3.3232    0.0000 C   0  0  0  0  0  0  0  0  0  0  0  0
   15.0744   -2.9096    0.0000 C   0  0  0  0  0  0  0  0  0  0  0  0
   15.7867   -3.3215    0.0000 C   0  0  0  0  0  0  0  0  0  0  0  0
   16.4999   -2.9085    0.0000 C   0  0  0  0  0  0  0  0  0  0  0  0
   16.4991   -2.0826    0.0000 C   0  0  0  0  0  0  0  0  0  0  0  0
   15.7789   -1.6714    0.0000 C   0  0  0  0  0  0  0  0  0  0  0  0
   15.0685   -2.0868    0.0000 C   0  0  0  0  0  0  0  0  0  0  0  0
   17.2150   -3.3202    0.0000 F   0  0  0  0  0  0  0  0  0  0  0  0
    7.9328   -5.3945    0.0000 C   0  0  0  0  0  0  0  0  0  0  0  0
    7.6454   -4.6246    0.0000 C   0  0  0  0  0  0  0  0  0  0  0  0
    6.8212   -4.6595    0.0000 C   0  0  0  0  0  0  0  0  0  0  0  0
    6.5996   -5.4543    0.0000 C   0  0  0  0  0  0  0  0  0  0  0  0
    7.2869   -5.9104    0.0000 O   0  0  0  0  0  0  0  0  0  0  0  0
    5.8272   -5.7419    0.0000 C   0  0  0  0  0  0  0  0  0  0  0  0
    5.0965   -5.3586    0.0000 N   0  0  0  0  0  0  0  0  0  0  0  0
    4.3993   -5.7996    0.0000 C   0  0  0  0  0  0  0  0  0  0  0  0
    3.6688   -5.4163    0.0000 C   0  0  0  0  0  0  0  0  0  0  0  0
    2.9714   -5.8573    0.0000 S   0  0  0  0  0  0  0  0  0  0  0  0
    2.2409   -5.4739    0.0000 C   0  0  0  0  0  0  0  0  0  0  0  0
    2.5158   -6.5478    0.0000 O   0  0  0  0  0  0  0  0  0  0  0  0
    3.5155   -6.4685    0.0000 O   0  0  0  0  0  0  0  0  0  0  0  0
 15 19  1  0
  7  8  2  0
 19 20  1  0
  8  9  1  0
 20 21  1  0
  9 10  2  0
 21 22  2  0
  5  6  2  0
 22 23  1  0
 10 11  1  0
 23 24  2  0
 24 25  1  0
 11 12  1  0
 25 26  2  0
 26 21  1  0
  2  3  2  0
 23 27  1  0
 12 13  2  0
  1 28  1  0
 28 29  2  0
  3  6  1  0
 13 14  1  0
  1  2  1  0
 14 15  2  0
 29 30  1  0
 30 31  2  0
 31 32  1  0
 32 28  1  0
  5  4  1  0
 31 33  1  0
 15 16  1  0
 33 34  1  0
  4  1  2  0
 34 35  1  0
 16 17  2  0
 35 36  1  0
 17 12  1  0
 36 37  1  0
  5 10  1  0
 37 38  1  0
 14 18  1  0
 37 39  2  0
  6  7  1  0
 37 40  2  0
M  END
>  <Classification>  (73) 
1

>  <pchembl>  (73) 
5.19

>  <InChI_steorem>  (73) 
InChI=1S/C29H26ClFN4O4S/c1-40(36,37)12-11-32-16-23-7-10-27(39-23)20-5-8-26-24(14-20)29(34-18-33-26)35-22-6-9-28(25(30)15-22)38-17-19-3-2-4-21(31)13-19/h2-10,13-15,18,32H,11-12,16-17H2,1H3,(H,33,34,35)

>  <source>  (73) 
ChEMBL25

>  <source_id>  (73) 
25

>  <optional_reference>  (73) 
10.1093/toxsci/kft176

>  <optional_origin>  (73) 
None

>  <target>  (73) 
BSEP

$$$$

     RDKit          2D

 26 27  0  0  0  0  0  0  0  0999 V2000
   -3.8542   -5.5875    0.0000 C   0  0  0  0  0  0  0  0  0  0  0  0
   -3.8542   -6.4125    0.0000 C   0  0  0  0  0  0  0  0  0  0  0  0
   -3.1421   -6.8208    0.0000 N   0  0  0  0  0  0  0  0  0  0  0  0
   -2.4301   -6.4125    0.0000 C   0  0  0  0  0  0  0  0  0  0  0  0
   -2.4301   -5.5875    0.0000 C   0  0  0  0  0  0  0  0  0  0  0  0
   -3.1421   -5.1708    0.0000 C   0  0  0  0  0  0  0  0  0  0  0  0
   -3.1417   -4.3467    0.0000 C   0  0  0  0  0  0  0  0  0  0  0  0
   -2.4256   -3.9348    0.0000 C   0  0  0  0  0  0  0  0  0  0  0  0
   -2.4252   -3.1106    0.0000 C   0  0  0  0  0  0  0  0  0  0  0  0
   -3.1403   -2.6972    0.0000 C   0  0  0  0  0  0  0  0  0  0  0  0
   -3.8571   -3.1142    0.0000 C   0  0  0  0  0  0  0  0  0  0  0  0
   -3.8539   -3.9370    0.0000 C   0  0  0  0  0  0  0  0  0  0  0  0
   -4.5698   -5.1771    0.0000 C   0  0  0  0  0  0  0  0  0  0  0  0
   -4.5723   -4.3521    0.0000 O   0  0  0  0  0  0  0  0  0  0  0  0
   -5.2831   -5.5917    0.0000 O   0  0  0  0  0  0  0  0  0  0  0  0
   -4.5680   -6.8260    0.0000 C   0  0  0  0  0  0  0  0  0  0  0  0
   -1.7163   -6.8260    0.0000 C   0  0  0  0  0  0  0  0  0  0  0  0
   -1.7145   -5.1771    0.0000 C   0  0  0  0  0  0  0  0  0  0  0  0
   -1.0012   -5.5917    0.0000 O   0  0  0  0  0  0  0  0  0  0  0  0
   -1.7120   -4.3521    0.0000 O   0  0  0  0  0  0  0  0  0  0  0  0
   -0.2855   -5.1813    0.0000 C   0  0  0  0  0  0  0  0  0  0  0  0
   -1.7078   -2.6963    0.0000 N   0  0  0  0  0  0  0  0  0  0  0  0
   -1.7074   -1.8713    0.0000 O   0  0  0  0  0  0  0  0  0  0  0  0
   -0.9935   -3.1091    0.0000 O   0  0  0  0  0  0  0  0  0  0  0  0
    0.4277   -5.5959    0.0000 C   0  0  0  0  0  0  0  0  0  0  0  0
   -5.9988   -5.1813    0.0000 C   0  0  0  0  0  0  0  0  0  0  0  0
  5  6  1  0
  1 13  1  0
 13 14  2  0
  1  2  2  0
 13 15  1  0
  7  8  2  0
  2 16  1  0
  1  6  1  0
  4 17  1  0
  8  9  1  0
  5 18  1  0
  2  3  1  0
 18 19  1  0
  9 10  2  0
 18 20  2  0
  3  4  1  0
 19 21  1  0
 10 11  1  0
  4  5  2  0
 11 12  2  0
 22 23  2  0
 22 24  1  0
  9 22  1  0
 12  7  1  0
 21 25  1  0
  6  7  1  0
 15 26  1  0
M  CHG  2  22   1  24  -1
M  END
>  <Classification>  (74) 
0

>  <pchembl>  (74) 
4.6

>  <InChI_steorem>  (74) 
InChI=1S/C18H20N2O6/c1-5-26-18(22)15-11(3)19-10(2)14(17(21)25-4)16(15)12-7-6-8-13(9-12)20(23)24/h6-9,16,19H,5H2,1-4H3

>  <source>  (74) 
ChEMBL25

>  <source_id>  (74) 
25

>  <optional_reference>  (74) 
10.1093/toxsci/kfq269

>  <optional_origin>  (74) 
None

>  <target>  (74) 
BSEP

$$$$

     RDKit          2D

 58 62  0  0  0  0  0  0  0  0999 V2000
   12.3501  -25.4666    0.0000 C   0  0  0  0  0  0  0  0  0  0  0  0
   12.7607  -24.7549    0.0000 C   0  0  0  0  0  0  0  0  0  0  0  0
   11.4513  -24.4811    0.0000 C   0  0  0  0  0  0  0  0  0  0  0  0
   11.5471  -25.2932    0.0000 O   0  0  0  0  0  0  0  0  0  0  0  0
   12.2040  -24.1436    0.0000 N   0  0  0  0  0  0  0  0  0  0  0  0
   16.6112  -26.2787    0.0000 C   0  0  0  0  0  0  0  0  0  0  0  0
   13.3674  -24.5405    0.0000 C   0  0  0  0  0  0  0  0  0  0  0  0
   13.0526  -27.5333    0.0000 C   0  0  0  0  0  0  0  0  0  0  0  0
   14.4761  -27.5242    0.0000 C   0  0  0  0  0  0  0  0  0  0  0  0
   13.7643  -27.9485    0.0000 C   0  0  0  0  0  0  0  0  0  0  0  0
   17.3229  -26.6847    0.0000 C   0  0  0  0  0  0  0  0  0  0  0  0
   15.1878  -26.2878    0.0000 C   0  0  0  0  0  0  0  0  0  0  0  0
   14.4761  -26.7030    0.0000 C   0  0  0  0  0  0  0  0  0  0  0  0
    8.5360  -24.3853    0.0000 N   0  0  0  0  0  0  0  0  0  0  0  0
   13.7872  -23.8288    0.0000 C   0  0  0  0  0  0  0  0  0  0  0  0
   13.0526  -26.7030    0.0000 O   0  0  0  0  0  0  0  0  0  0  0  0
    8.0524  -23.7056    0.0000 C   0  0  0  0  0  0  0  0  0  0  0  0
   15.9087  -26.6893    0.0000 O   0  0  0  0  0  0  0  0  0  0  0  0
   18.0346  -26.2650    0.0000 C   0  0  0  0  0  0  0  0  0  0  0  0
   15.1833  -25.4575    0.0000 C   0  0  0  0  0  0  0  0  0  0  0  0
   12.3409  -26.2924    0.0000 C   0  0  0  0  0  0  0  0  0  0  0  0
   16.5975  -25.4575    0.0000 O   0  0  0  0  0  0  0  0  0  0  0  0
    8.5360  -23.0440    0.0000 C   0  0  0  0  0  0  0  0  0  0  0  0
    9.3298  -23.3041    0.0000 N   0  0  0  0  0  0  0  0  0  0  0  0
    9.3298  -24.1299    0.0000 C   0  0  0  0  0  0  0  0  0  0  0  0
   14.4624  -24.2257    0.0000 C   0  0  0  0  0  0  0  0  0  0  0  0
   14.4624  -25.0469    0.0000 C   0  0  0  0  0  0  0  0  0  0  0  0
   18.0301  -25.4438    0.0000 C   0  0  0  0  0  0  0  0  0  0  0  0
    7.2220  -23.7056    0.0000 C   0  0  0  0  0  0  0  0  0  0  0  0
   10.7351  -24.0751    0.0000 O   0  0  0  0  0  0  0  0  0  0  0  0
   18.7463  -26.6756    0.0000 N   0  0  0  0  0  0  0  0  0  0  0  0
   12.3364  -27.9439    0.0000 O   0  0  0  0  0  0  0  0  0  0  0  0
   15.1970  -27.9348    0.0000 O   0  0  0  0  0  0  0  0  0  0  0  0
   17.3092  -25.0423    0.0000 C   0  0  0  0  0  0  0  0  0  0  0  0
   13.7917  -23.0029    0.0000 O   0  0  0  0  0  0  0  0  0  0  0  0
    5.9902  -24.4173    0.0000 N   0  0  0  0  0  0  0  0  0  0  0  0
   17.3321  -27.5105    0.0000 O   0  0  0  0  0  0  0  0  0  0  0  0
   11.7616  -26.0460    0.0000 C   0  0  0  0  0  0  0  0  0  0  0  0
   15.5939  -24.7458    0.0000 O   0  0  0  0  0  0  0  0  0  0  0  0
   12.1996  -23.3177    0.0000 C   0  0  0  0  0  0  0  0  0  0  0  0
   13.7780  -25.2522    0.0000 C   0  0  0  0  0  0  0  0  0  0  0  0
   13.7643  -28.7697    0.0000 C   0  0  0  0  0  0  0  0  0  0  0  0
   13.7599  -26.2924    0.0000 C   0  0  0  0  0  0  0  0  0  0  0  0
    6.8114  -24.4173    0.0000 C   0  0  0  0  0  0  0  0  0  0  0  0
   16.0090  -25.4575    0.0000 C   0  0  0  0  0  0  0  0  0  0  0  0
   10.0507  -22.8980    0.0000 C   0  0  0  0  0  0  0  0  0  0  0  0
   11.6292  -26.7030    0.0000 C   0  0  0  0  0  0  0  0  0  0  0  0
   15.1741  -23.8105    0.0000 C   0  0  0  0  0  0  0  0  0  0  0  0
    6.8206  -22.9939    0.0000 C   0  0  0  0  0  0  0  0  0  0  0  0
    5.5796  -23.7010    0.0000 C   0  0  0  0  0  0  0  0  0  0  0  0
   18.7555  -27.5059    0.0000 C   0  0  0  0  0  0  0  0  0  0  0  0
   19.4673  -26.2604    0.0000 C   0  0  0  0  0  0  0  0  0  0  0  0
   17.3092  -24.2120    0.0000 C   0  0  0  0  0  0  0  0  0  0  0  0
   16.4196  -24.7458    0.0000 C   0  0  0  0  0  0  0  0  0  0  0  0
   11.4786  -22.9071    0.0000 C   0  0  0  0  0  0  0  0  0  0  0  0
   10.7669  -23.3087    0.0000 C   0  0  0  0  0  0  0  0  0  0  0  0
    5.9994  -22.9893    0.0000 C   0  0  0  0  0  0  0  0  0  0  0  0
   10.9130  -26.2924    0.0000 C   0  0  0  0  0  0  0  0  0  0  0  0
  2  1  1  0
  3  4  1  0
  4  1  1  0
  5  2  1  0
  6 18  1  0
  7  2  1  0
  8 16  1  0
  9 10  1  0
 10  8  1  0
 11  6  1  0
 12 13  1  0
 13  9  1  0
 14 25  2  0
 15  7  1  0
 16 21  1  0
 17 23  2  0
 12 18  1  0
 19 11  1  0
 20 27  1  0
 21  1  1  0
 22  6  1  0
 23 24  1  0
 24 46  1  0
 25 24  1  0
 26 15  1  0
 27 26  1  0
 28 34  1  0
 29 17  1  0
 30  3  2  0
 19 31  1  0
 32  8  2  0
 33  9  2  0
 34 22  1  0
 35 15  2  0
 36 44  2  0
 11 37  1  0
  1 38  1  0
 20 39  1  0
 40  5  1  0
  7 41  1  0
 10 42  1  0
 13 43  1  0
 44 29  1  0
 45 20  1  0
 46 56  1  0
 21 47  1  0
 26 48  1  0
 49 29  2  0
 50 57  2  0
 51 31  1  0
 52 31  1  0
 34 53  1  0
 54 39  1  0
 55 40  1  0
 56 55  1  0
 57 49  1  0
 58 47  1  0
  5  3  1  0
 12 20  1  0
 17 14  1  0
 19 28  1  0
 36 50  1  0
M  END
>  <Classification>  (75) 
1

>  <pchembl>  (75) 
5.4

>  <InChI_steorem>  (75) 
InChI=1S/C43H65N5O10/c1-12-33-43(8)37(48(41(53)58-43)19-14-13-18-47-23-31(45-24-47)30-16-15-17-44-22-30)27(4)34(49)25(2)21-42(7,54-11)38(28(5)35(50)29(6)39(52)56-33)57-40-36(51)32(46(9)10)20-26(3)55-40/h15-17,22-29,32-33,36-38,40,51H,12-14,18-21H2,1-11H3

>  <source>  (75) 
ChEMBL25

>  <source_id>  (75) 
25

>  <optional_reference>  (75) 
10.1093/toxsci/kfq269

>  <optional_origin>  (75) 
None

>  <target>  (75) 
BSEP

$$$$

     RDKit          2D

 24 27  0  0  0  0  0  0  0  0999 V2000
   -7.5382    5.2194    0.0000 C   0  0  0  0  0  0  0  0  0  0  0  0
   -7.5281    3.7194    0.0000 C   0  0  0  0  0  0  0  0  0  0  0  0
   -6.2240    2.9782    0.0000 C   0  0  0  0  0  0  0  0  0  0  0  0
   -4.9300    3.7369    0.0000 C   0  0  0  0  0  0  0  0  0  0  0  0
   -4.9402    5.2369    0.0000 C   0  0  0  0  0  0  0  0  0  0  0  0
   -6.2443    5.9781    0.0000 N   0  0  0  0  0  0  0  0  0  0  0  0
   -6.2139    1.4775    0.0000 C   0  0  0  0  0  0  0  0  0  0  0  0
   -4.9110    0.7341    0.0000 C   0  0  0  0  0  0  0  0  0  0  0  0
   -4.9033   -0.7659    0.0000 C   0  0  0  0  0  0  0  0  0  0  0  0
   -6.1984   -1.5226    0.0000 C   0  0  0  0  0  0  0  0  0  0  0  0
   -7.5013   -0.7793    0.0000 C   0  0  0  0  0  0  0  0  0  0  0  0
   -7.5091    0.7207    0.0000 C   0  0  0  0  0  0  0  0  0  0  0  0
   -6.1922   -2.7226    0.0000 F   0  0  0  0  0  0  0  0  0  0  0  0
   -3.6267    2.9927    0.0000 C   0  0  0  0  0  0  0  0  0  0  0  0
   -3.6187    1.4919    0.0000 O   0  0  0  0  0  0  0  0  0  0  0  0
   -2.3155    0.7475    0.0000 C   0  0  0  0  0  0  0  0  0  0  0  0
   -2.3155   -0.7475    0.0000 C   0  0  0  0  0  0  0  0  0  0  0  0
   -1.0028   -1.5132    0.0000 C   0  0  0  0  0  0  0  0  0  0  0  0
   -1.0028    1.5132    0.0000 C   0  0  0  0  0  0  0  0  0  0  0  0
    0.2917    0.7475    0.0000 C   0  0  0  0  0  0  0  0  0  0  0  0
    0.2917   -0.7475    0.0000 C   0  0  0  0  0  0  0  0  0  0  0  0
    1.7138   -1.2033    0.0000 O   0  0  0  0  0  0  0  0  0  0  0  0
    2.5889    0.0182    0.0000 C   0  0  0  0  0  0  0  0  0  0  0  0
    1.7138    1.2033    0.0000 O   0  0  0  0  0  0  0  0  0  0  0  0
  1  2  1  0
  2  3  1  0
  3  4  1  0
  4  5  1  0
  1  6  1  0
  5  6  1  0
  3  7  1  0
  7  8  2  0
  8  9  1  0
  9 10  2  0
 10 11  1  0
  7 12  1  0
 11 12  2  0
 10 13  1  0
  4 14  1  0
 14 15  1  0
 15 16  1  0
 16 17  2  0
 17 18  1  0
 16 19  1  0
 19 20  2  0
 18 21  2  0
 20 21  1  0
 21 22  1  0
 22 23  1  0
 20 24  1  0
 23 24  1  0
M  END
>  <Classification>  (76) 
0

>  <pchembl>  (76) 
4.16

>  <InChI_steorem>  (76) 
InChI=1S/C19H20FNO3/c20-15-3-1-13(2-4-15)17-7-8-21-10-14(17)11-22-16-5-6-18-19(9-16)24-12-23-18/h1-6,9,14,17,21H,7-8,10-12H2

>  <source>  (76) 
ChEMBL25

>  <source_id>  (76) 
25

>  <optional_reference>  (76) 
10.1124/dmd.112.047068

>  <optional_origin>  (76) 
None

>  <target>  (76) 
BSEP

$$$$

     RDKit          2D

 38 40  0  0  0  0  0  0  0  0999 V2000
    7.9958  -11.4208    0.0000 S   0  0  0  0  0  0  0  0  0  0  0  0
    8.0027  -13.0708    0.0000 C   0  0  0  0  0  0  0  0  0  0  0  0
    8.0016  -13.8982    0.0000 C   0  0  0  0  0  0  0  0  0  0  0  0
    8.7164  -14.3110    0.0000 C   0  0  0  0  0  0  0  0  0  0  0  0
    9.4328  -13.8977    0.0000 C   0  0  0  0  0  0  0  0  0  0  0  0
    9.4300  -13.0672    0.0000 C   0  0  0  0  0  0  0  0  0  0  0  0
    8.7146  -12.6580    0.0000 C   0  0  0  0  0  0  0  0  0  0  0  0
    8.7121  -11.8330    0.0000 N   0  0  0  0  0  0  0  0  0  0  0  0
    7.2868  -14.3101    0.0000 C   0  0  0  0  0  0  0  0  0  0  0  0
    6.5726  -13.8970    0.0000 N   0  0  0  0  0  0  0  0  0  0  0  0
    7.2861  -15.1351    0.0000 O   0  0  0  0  0  0  0  0  0  0  0  0
    5.8578  -14.3090    0.0000 C   0  0  0  0  0  0  0  0  0  0  0  0
    5.1437  -13.8959    0.0000 C   0  0  0  0  0  0  0  0  0  0  0  0
   10.1429  -12.6520    0.0000 O   0  0  0  0  0  0  0  0  0  0  0  0
   10.8589  -13.0618    0.0000 C   0  0  0  0  0  0  0  0  0  0  0  0
   10.8587  -13.8844    0.0000 C   0  0  0  0  0  0  0  0  0  0  0  0
   11.5738  -14.2942    0.0000 C   0  0  0  0  0  0  0  0  0  0  0  0
   12.2877  -13.8789    0.0000 C   0  0  0  0  0  0  0  0  0  0  0  0
   12.2820  -13.0497    0.0000 C   0  0  0  0  0  0  0  0  0  0  0  0
   11.5662  -12.6437    0.0000 C   0  0  0  0  0  0  0  0  0  0  0  0
    7.9940  -10.5977    0.0000 C   0  0  0  0  0  0  0  0  0  0  0  0
    8.7091  -10.1878    0.0000 C   0  0  0  0  0  0  0  0  0  0  0  0
    8.7070   -9.3636    0.0000 C   0  0  0  0  0  0  0  0  0  0  0  0
    7.9907   -8.9524    0.0000 C   0  0  0  0  0  0  0  0  0  0  0  0
    7.2751   -9.3714    0.0000 C   0  0  0  0  0  0  0  0  0  0  0  0
    7.2808  -10.1943    0.0000 C   0  0  0  0  0  0  0  0  0  0  0  0
    9.4234  -10.6005    0.0000 Cl  0  0  0  0  0  0  0  0  0  0  0  0
    7.9872   -8.1274    0.0000 Cl  0  0  0  0  0  0  0  0  0  0  0  0
   13.0043  -14.2878    0.0000 C   0  0  0  0  0  0  0  0  0  0  0  0
   13.7167  -13.8716    0.0000 C   0  0  0  0  0  0  0  0  0  0  0  0
   14.4338  -14.2779    0.0000 O   0  0  0  0  0  0  0  0  0  0  0  0
   13.7131  -13.0441    0.0000 O   0  0  0  0  0  0  0  0  0  0  0  0
   11.5588  -11.8187    0.0000 O   0  0  0  0  0  0  0  0  0  0  0  0
   12.2696  -11.3998    0.0000 C   0  0  0  0  0  0  0  0  0  0  0  0
    7.5792  -12.1333    0.0000 O   0  0  0  0  0  0  0  0  0  0  0  0
    7.2792  -11.0083    0.0000 O   0  0  0  0  0  0  0  0  0  0  0  0
    4.4289  -14.3078    0.0000 C   0  0  0  0  0  0  0  0  0  0  0  0
    3.7148  -13.8948    0.0000 C   0  0  0  0  0  0  0  0  0  0  0  0
  9 10  1  0
 19 20  2  0
 20 15  1  0
  8  1  1  0
  5  6  2  0
  1 21  1  0
  9 11  2  0
 21 22  2  0
  3  4  2  0
 22 23  1  0
 10 12  1  0
 23 24  2  0
  6  7  1  0
 24 25  1  0
 12 13  1  0
 25 26  2  0
 26 21  1  0
  7  2  2  0
 22 27  1  0
  6 14  1  0
 24 28  1  0
  2  3  1  0
 18 29  1  0
 14 15  1  0
 29 30  1  0
  7  8  1  0
 15 16  2  0
 30 31  1  0
 30 32  2  0
  4  5  1  0
 20 33  1  0
 16 17  1  0
 33 34  1  0
  3  9  1  0
  1 35  2  0
 17 18  2  0
  1 36  2  0
 13 37  1  0
 18 19  1  0
 37 38  1  0
M  END
>  <Classification>  (77) 
0

>  <pchembl>  (77) 
4.94

>  <InChI_steorem>  (77) 
InChI=1S/C26H26Cl2N2O7S/c1-3-4-11-29-26(33)17-6-9-21(37-22-8-5-16(13-25(31)32)12-23(22)36-2)20(14-17)30-38(34,35)24-10-7-18(27)15-19(24)28/h5-10,12,14-15,30H,3-4,11,13H2,1-2H3,(H,29,33)(H,31,32)

>  <source>  (77) 
ChEMBL25

>  <source_id>  (77) 
25

>  <optional_reference>  (77) 
10.1093/toxsci/kft176

>  <optional_origin>  (77) 
None

>  <target>  (77) 
BSEP

$$$$

     RDKit          2D

 63 68  0  0  0  0  0  0  0  0999 V2000
   -5.9223    7.0419    0.0000 O   0  0  0  0  0  0  0  0  0  0  0  0
   -5.2079    7.4545    0.0000 O   0  0  0  0  0  0  0  0  0  0  0  0
   -5.2079    8.2795    0.0000 C   0  0  0  0  0  0  0  0  0  0  0  0
   -5.9223    8.6920    0.0000 C   0  0  0  0  0  0  0  0  0  0  0  0
   -6.6368    8.2795    0.0000 C   0  0  0  0  0  0  0  0  0  0  0  0
   -6.6368    7.4545    0.0000 C   0  0  0  0  0  0  0  0  0  0  0  0
   -4.4934    8.6920    0.0000 C   0  0  0  0  0  0  0  0  0  0  0  0
   -3.7789    8.2795    0.0000 C   0  0  0  0  0  0  0  0  0  0  0  0
   -3.7789    7.4545    0.0000 O   0  0  0  0  0  0  0  0  0  0  0  0
   -4.4934    7.0420    0.0000 O   0  0  0  0  0  0  0  0  0  0  0  0
   -3.0644    8.6920    0.0000 C   0  0  0  0  0  0  0  0  0  0  0  0
   -2.3499    8.2795    0.0000 C   0  0  0  0  0  0  0  0  0  0  0  0
   -2.3499    7.4545    0.0000 C   0  0  0  0  0  0  0  0  0  0  0  0
   -3.0644    7.0420    0.0000 C   0  0  0  0  0  0  0  0  0  0  0  0
   -4.4934    6.2170    0.0000 C   0  0  0  0  0  0  0  0  0  0  0  0
   -3.7789    5.8045    0.0000 C   0  0  0  0  0  0  0  0  0  0  0  0
   -3.0644    6.2170    0.0000 N   0  0  0  0  0  0  0  0  0  0  0  0
   -5.2078    5.8045    0.0000 C   0  0  0  0  0  0  0  0  0  0  0  0
   -5.9223    6.2169    0.0000 C   0  0  0  0  0  0  0  0  0  0  0  0
   -7.3513    7.0420    0.0000 C   0  0  0  0  0  0  0  0  0  0  0  0
   -7.3513    6.2170    0.0000 C   0  0  0  0  0  0  0  0  0  0  0  0
   -6.6369    5.8045    0.0000 C   0  0  0  0  0  0  0  0  0  0  0  0
   -8.0658    5.8045    0.0000 C   0  0  0  0  0  0  0  0  0  0  0  0
   -8.0658    4.9795    0.0000 C   0  0  0  0  0  0  0  0  0  0  0  0
   -7.3514    4.5670    0.0000 O   0  0  0  0  0  0  0  0  0  0  0  0
   -6.6369    4.9795    0.0000 C   0  0  0  0  0  0  0  0  0  0  0  0
   -5.9224    4.5669    0.0000 C   0  0  0  0  0  0  0  0  0  0  0  0
   -5.2080    4.9794    0.0000 C   0  0  0  0  0  0  0  0  0  0  0  0
   -3.7788    4.9795    0.0000 C   0  0  0  0  0  0  0  0  0  0  0  0
   -4.4933    4.5670    0.0000 C   0  0  0  0  0  0  0  0  0  0  0  0
   -8.7803    4.5670    0.0000 C   0  0  0  0  0  0  0  0  0  0  0  0
   -7.3514    3.7420    0.0000 C   0  0  0  0  0  0  0  0  0  0  0  0
   -8.7803    3.7420    0.0000 O   0  0  0  0  0  0  0  0  0  0  0  0
   -5.9224    3.7419    0.0000 C   0  0  0  0  0  0  0  0  0  0  0  0
   -5.3391    3.1585    0.0000 O   0  0  0  0  0  0  0  0  0  0  0  0
   -1.6355    7.0420    0.0000 C   0  0  0  0  0  0  0  0  0  0  0  0
   -4.4934    9.5170    0.0000 C   0  0  0  0  0  0  0  0  0  0  0  0
   -5.9223    9.5170    0.0000 C   0  0  0  0  0  0  0  0  0  0  0  0
   -7.3513    8.6920    0.0000 O   0  0  0  0  0  0  0  0  0  0  0  0
   -7.3513    7.8670    0.0000 C   0  0  0  0  0  0  0  0  0  0  0  0
   -8.0658    6.6295    0.0000 O   0  0  0  0  0  0  0  0  0  0  0  0
   -8.7802    7.0420    0.0000 C   0  0  0  0  0  0  0  0  0  0  0  0
   -9.4947    6.6295    0.0000 C   0  0  0  0  0  0  0  0  0  0  0  0
   -8.7802    7.8670    0.0000 O   0  0  0  0  0  0  0  0  0  0  0  0
   -8.7803    6.2170    0.0000 O   0  0  0  0  0  0  0  0  0  0  0  0
   -9.4948    5.8045    0.0000 C   0  0  0  0  0  0  0  0  0  0  0  0
   -7.3514    2.9170    0.0000 C   0  0  0  0  0  0  0  0  0  0  0  0
   -4.4932    3.7420    0.0000 O   0  0  0  0  0  0  0  0  0  0  0  0
   -6.6369    6.6295    0.0000 C   0  0  0  0  0  0  0  0  0  0  0  0
   -3.0644    4.5670    0.0000 C   0  0  0  0  0  0  0  0  0  0  0  0
   -2.3499    4.9795    0.0000 N   0  0  0  0  0  0  0  0  0  0  0  0
   -1.6354    4.5671    0.0000 N   0  0  0  0  0  0  0  0  0  0  0  0
   -1.6354    3.7421    0.0000 C   0  0  0  0  0  0  0  0  0  0  0  0
   -0.9209    3.3296    0.0000 C   0  0  0  0  0  0  0  0  0  0  0  0
   -0.2064    3.7421    0.0000 N   0  0  0  0  0  0  0  0  0  0  0  0
   -0.2065    4.5671    0.0000 C   0  0  0  0  0  0  0  0  0  0  0  0
   -0.9210    4.9796    0.0000 C   0  0  0  0  0  0  0  0  0  0  0  0
    0.5081    3.3296    0.0000 C   0  0  0  0  0  0  0  0  0  0  0  0
   -7.3513    5.3920    0.0000 C   0  0  0  0  0  0  0  0  0  0  0  0
    0.5944    2.5091    0.0000 C   0  0  0  0  0  0  0  0  0  0  0  0
    1.4013    2.3377    0.0000 C   0  0  0  0  0  0  0  0  0  0  0  0
    1.8138    3.0521    0.0000 C   0  0  0  0  0  0  0  0  0  0  0  0
    1.2617    3.6652    0.0000 C   0  0  0  0  0  0  0  0  0  0  0  0
  3  4  1  0
  4  5  1  0
  5  6  1  0
  3  2  1  0
  3  7  1  0
  7  8  1  0
  8 11  2  0
 11 12  1  0
 12 13  2  0
 13 14  1  0
 17 14  1  0
 14  9  2  0
 16 17  1  0
 10 15  1  0
  6 20  1  0
 19  1  1  0
 20 21  1  0
 21 23  1  0
 23 24  1  0
 25 26  1  0
 22 26  2  0
 26 27  1  0
 19 22  1  0
 18 19  2  0
 27 28  2  0
 15 16  2  0
 16 29  1  0
 18 15  1  0
 28 18  1  0
 30 28  1  0
 29 30  2  0
 24 31  2  0
 25 32  1  0
 31 33  1  0
 33 32  1  0
 27 34  1  0
 34 32  1  0
 34 35  2  0
 13 36  1  0
  7 37  1  0
  4 38  1  0
  5 39  1  0
  6 40  1  0
 20 41  1  0
 41 42  1  0
 42 43  1  0
 42 44  2  0
 23 45  1  0
 45 46  1  0
 32 47  1  0
 30 48  1  0
 22 49  1  0
 29 50  1  0
 50 51  2  3
 51 52  1  0
 52 53  1  0
 57 52  1  0
 53 54  1  0
 54 55  1  0
 55 56  1  0
 56 57  1  0
 55 58  1  0
 21 59  1  0
 58 60  1  0
 58 63  1  0
 60 61  1  0
 61 62  1  0
 62 63  1  0
M  END
>  <Classification>  (78) 
1

>  <pchembl>  (78) 
5.0

>  <InChI_steorem>  (78) 
InChI=1S/C47H64N4O12/c1-24-13-12-14-25(2)46(59)49-37-32(23-48-51-20-18-50(19-21-51)31-15-10-11-16-31)41(56)34-35(42(37)57)40(55)29(6)44-36(34)45(58)47(8,63-44)61-22-17-33(60-9)26(3)43(62-30(7)52)28(5)39(54)27(4)38(24)53/h12-14,17,22-24,26-28,31,33,38-39,43,53-57H,10-11,15-16,18-21H2,1-9H3,(H,49,59)

>  <source>  (78) 
ChEMBL25

>  <source_id>  (78) 
25

>  <optional_reference>  (78) 
10.1093/toxsci/kft176

>  <optional_origin>  (78) 
None

>  <target>  (78) 
BSEP

$$$$

     RDKit          2D

 21 23  0  0  0  0  0  0  0  0999 V2000
   19.8716  -11.2356    0.0000 C   0  0  0  0  0  0  0  0  0  0  0  0
   19.8716  -12.0606    0.0000 C   0  0  0  0  0  0  0  0  0  0  0  0
   20.5833  -10.8231    0.0000 O   0  0  0  0  0  0  0  0  0  0  0  0
   19.1557  -10.8231    0.0000 O   0  0  0  0  0  0  0  0  0  0  0  0
   21.2991  -12.0606    0.0000 C   0  0  0  0  0  0  0  0  0  0  0  0
   22.0150  -12.4731    0.0000 C   0  0  0  0  0  0  0  0  0  0  0  0
   22.0150  -13.2981    0.0000 C   0  0  0  0  0  0  0  0  0  0  0  0
   21.2991  -13.7106    0.0000 C   0  0  0  0  0  0  0  0  0  0  0  0
   20.5833  -13.2981    0.0000 C   0  0  0  0  0  0  0  0  0  0  0  0
   20.5833  -12.4731    0.0000 N   0  0  0  0  0  0  0  0  0  0  0  0
   22.7996  -12.2202    0.0000 C   0  0  0  0  0  0  0  0  0  0  0  0
   23.2844  -12.8856    0.0000 C   0  0  0  0  0  0  0  0  0  0  0  0
   22.7996  -13.5552    0.0000 S   0  0  0  0  0  0  0  0  0  0  0  0
   19.1557  -12.4731    0.0000 C   0  0  0  0  0  0  0  0  0  0  0  0
   19.1557  -13.2981    0.0000 C   0  0  0  0  0  0  0  0  0  0  0  0
   18.4398  -13.7106    0.0000 C   0  0  0  0  0  0  0  0  0  0  0  0
   17.7281  -13.2981    0.0000 C   0  0  0  0  0  0  0  0  0  0  0  0
   17.7281  -12.4731    0.0000 C   0  0  0  0  0  0  0  0  0  0  0  0
   18.4398  -12.0606    0.0000 C   0  0  0  0  0  0  0  0  0  0  0  0
   19.8716  -13.7106    0.0000 Cl  0  0  0  0  0  0  0  0  0  0  0  0
   18.4398  -11.2356    0.0000 C   0  0  0  0  0  0  0  0  0  0  0  0
  1  2  1  0
  1  3  2  0
  1  4  1  0
  5  6  1  0
  6  7  2  0
  7  8  1  0
  8  9  1  0
  9 10  1  0
  5 10  1  0
 11 12  2  0
 12 13  1  0
  6 11  1  0
  7 13  1  0
  2 10  1  0
 14 15  2  0
 15 16  1  0
 16 17  2  0
 17 18  1  0
 18 19  2  0
 14 19  1  0
 15 20  1  0
  2 14  1  0
  4 21  1  0
M  END
>  <Classification>  (79) 
0

>  <pchembl>  (79) 
4.14

>  <InChI_steorem>  (79) 
InChI=1S/C16H16ClNO2S/c1-20-16(19)15(12-4-2-3-5-13(12)17)18-8-6-14-11(10-18)7-9-21-14/h2-5,7,9,15H,6,8,10H2,1H3

>  <source>  (79) 
ChEMBL25

>  <source_id>  (79) 
25

>  <optional_reference>  (79) 
10.1093/toxsci/kft176

>  <optional_origin>  (79) 
None

>  <target>  (79) 
BSEP

$$$$

     RDKit          2D

 26 28  0  0  0  0  0  0  0  0999 V2000
    1.5750   -4.5875    0.0000 S   0  0  0  0  0  0  0  0  0  0  0  0
    0.9500   -4.9500    0.0000 C   0  0  0  0  0  0  0  0  0  0  0  0
    2.1958   -4.9500    0.0000 N   0  0  0  0  0  0  0  0  0  0  0  0
   -0.9250   -4.5917    0.0000 S   0  0  0  0  0  0  0  0  0  0  0  0
   -0.3125   -4.9500    0.0000 C   0  0  0  0  0  0  0  0  0  0  0  0
    0.9500   -5.6542    0.0000 C   0  0  0  0  0  0  0  0  0  0  0  0
    1.5750   -6.0125    0.0000 N   0  0  0  0  0  0  0  0  0  0  0  0
    2.1958   -5.6542    0.0000 C   0  0  0  0  0  0  0  0  0  0  0  0
    0.3125   -4.5875    0.0000 C   0  0  0  0  0  0  0  0  0  0  0  0
   -0.3125   -5.6542    0.0000 C   0  0  0  0  0  0  0  0  0  0  0  0
    0.3125   -6.0125    0.0000 C   0  0  0  0  0  0  0  0  0  0  0  0
    1.9250   -3.9667    0.0000 O   0  0  0  0  0  0  0  0  0  0  0  0
    1.2167   -3.9667    0.0000 O   0  0  0  0  0  0  0  0  0  0  0  0
   -0.5750   -3.9792    0.0000 O   0  0  0  0  0  0  0  0  0  0  0  0
   -1.2833   -3.9792    0.0000 O   0  0  0  0  0  0  0  0  0  0  0  0
   -1.5417   -4.9458    0.0000 N   0  0  0  0  0  0  0  0  0  0  0  0
    3.4250   -5.6542    0.0000 S   0  0  0  0  0  0  0  0  0  0  0  0
   -0.9250   -6.0042    0.0000 Cl  0  0  0  0  0  0  0  0  0  0  0  0
    2.8125   -6.0042    0.0000 C   0  0  0  0  0  0  0  0  0  0  0  0
    4.6417   -5.6750    0.0000 C   0  0  0  0  0  0  0  0  0  0  0  0
    4.0250   -6.0125    0.0000 C   0  0  0  0  0  0  0  0  0  0  0  0
    4.6417   -4.9750    0.0000 C   0  0  0  0  0  0  0  0  0  0  0  0
    5.2542   -6.0292    0.0000 C   0  0  0  0  0  0  0  0  0  0  0  0
    5.2417   -4.6125    0.0000 C   0  0  0  0  0  0  0  0  0  0  0  0
    5.8750   -5.6667    0.0000 C   0  0  0  0  0  0  0  0  0  0  0  0
    5.8625   -4.9750    0.0000 C   0  0  0  0  0  0  0  0  0  0  0  0
  2  1  1  0
  3  1  1  0
  4  5  1  0
  5  9  2  0
  6  2  2  0
  7  8  2  0
  8  3  1  0
  9  2  1  0
 10  5  1  0
 11  6  1  0
 12  1  2  0
 13  1  2  0
 14  4  2  0
 15  4  2  0
 16  4  1  0
 17 19  1  0
 18 10  1  0
 19  8  1  0
 20 21  1  0
 21 17  1  0
 22 20  2  0
 23 20  1  0
 24 22  1  0
 25 23  2  0
 26 24  2  0
  6  7  1  0
 11 10  2  0
 25 26  1  0
M  END
>  <Classification>  (80) 
0

>  <pchembl>  (80) 
4.24

>  <InChI_steorem>  (80) 
InChI=1S/C15H14ClN3O4S3/c16-11-6-12-14(7-13(11)25(17,20)21)26(22,23)19-15(18-12)9-24-8-10-4-2-1-3-5-10/h1-7H,8-9H2,(H,18,19)(H2,17,20,21)

>  <source>  (80) 
ChEMBL25

>  <source_id>  (80) 
25

>  <optional_reference>  (80) 
10.1124/dmd.112.047068

>  <optional_origin>  (80) 
None

>  <target>  (80) 
BSEP

$$$$

     RDKit          2D

 26 28  0  0  0  0  0  0  0  0999 V2000
    5.2792   -9.3917    0.0000 C   0  0  0  0  0  0  0  0  0  0  0  0
    5.8917   -9.7500    0.0000 C   0  0  0  0  0  0  0  0  0  0  0  0
    5.8917  -10.4542    0.0000 C   0  0  0  0  0  0  0  0  0  0  0  0
    5.8917   -8.3292    0.0000 N   0  0  0  0  0  0  0  0  0  0  0  0
    6.8250   -7.6542    0.0000 N   0  0  0  0  0  0  0  0  0  0  0  0
    2.2167   -9.7500    0.0000 C   0  0  0  0  0  0  0  0  0  0  0  0
    6.1167   -7.6542    0.0000 C   0  0  0  0  0  0  0  0  0  0  0  0
    5.2792   -8.6792    0.0000 C   0  0  0  0  0  0  0  0  0  0  0  0
    4.6667   -9.7417    0.0000 N   0  0  0  0  0  0  0  0  0  0  0  0
    6.5042  -10.8125    0.0000 C   0  0  0  0  0  0  0  0  0  0  0  0
    6.5042   -9.3917    0.0000 C   0  0  0  0  0  0  0  0  0  0  0  0
    2.8292   -9.3917    0.0000 C   0  0  0  0  0  0  0  0  0  0  0  0
    1.6042   -9.4000    0.0000 C   0  0  0  0  0  0  0  0  0  0  0  0
    7.0417   -8.3292    0.0000 C   0  0  0  0  0  0  0  0  0  0  0  0
    6.4667   -8.7500    0.0000 C   0  0  0  0  0  0  0  0  0  0  0  0
    2.8292   -8.6875    0.0000 C   0  0  0  0  0  0  0  0  0  0  0  0
    7.1167  -10.4542    0.0000 C   0  0  0  0  0  0  0  0  0  0  0  0
    4.0542   -9.3917    0.0000 O   0  0  0  0  0  0  0  0  0  0  0  0
    1.6042   -8.6875    0.0000 C   0  0  0  0  0  0  0  0  0  0  0  0
    5.2792  -10.8125    0.0000 Cl  0  0  0  0  0  0  0  0  0  0  0  0
    2.2250  -10.4542    0.0000 Cl  0  0  0  0  0  0  0  0  0  0  0  0
    7.1167   -9.7417    0.0000 C   0  0  0  0  0  0  0  0  0  0  0  0
    2.2167   -8.3292    0.0000 C   0  0  0  0  0  0  0  0  0  0  0  0
    0.9917   -8.3292    0.0000 Cl  0  0  0  0  0  0  0  0  0  0  0  0
    7.7375  -10.8125    0.0000 Cl  0  0  0  0  0  0  0  0  0  0  0  0
    3.4417   -9.7417    0.0000 C   0  0  0  0  0  0  0  0  0  0  0  0
  2  1  1  0
  3  2  2  0
  4  8  1  0
  5  7  2  0
  6 12  2  0
  7  4  1  0
  8  1  1  0
  9  1  2  3
 10  3  1  0
 11  2  1  0
 12 26  1  0
 13  6  1  0
 14 15  2  0
 15  4  1  0
 16 12  1  0
 17 22  1  0
 18  9  1  0
 19 23  1  0
 20  3  1  0
 21  6  1  0
 22 11  2  0
 23 16  2  0
 24 19  1  0
 25 17  1  0
 26 18  1  0
 14  5  1  0
 17 10  2  0
 19 13  2  0
M  END
>  <Classification>  (81) 
0

>  <pchembl>  (81) 
4.31

>  <InChI_steorem>  (81) 
InChI=1S/C18H13Cl4N3O/c19-13-2-1-12(16(21)7-13)10-26-24-18(9-25-6-5-23-11-25)15-4-3-14(20)8-17(15)22/h1-8,11H,9-10H2

>  <source>  (81) 
ChEMBL25

>  <source_id>  (81) 
25

>  <optional_reference>  (81) 
10.1093/toxsci/kft176

>  <optional_origin>  (81) 
None

>  <target>  (81) 
BSEP

$$$$

     RDKit          2D

 28 31  0  0  0  0  0  0  0  0999 V2000
    4.5042   -1.2792    0.0000 C   0  0  0  0  0  0  0  0  0  0  0  0
    3.2917   -1.9917    0.0000 C   0  0  0  0  0  0  0  0  0  0  0  0
    2.6667   -2.3042    0.0000 C   0  0  0  0  0  0  0  0  0  0  0  0
    4.5042   -1.9667    0.0000 C   0  0  0  0  0  0  0  0  0  0  0  0
    3.8917   -2.3417    0.0000 C   0  0  0  0  0  0  0  0  0  0  0  0
    5.1792   -1.0667    0.0000 C   0  0  0  0  0  0  0  0  0  0  0  0
    2.6667   -3.0417    0.0000 C   0  0  0  0  0  0  0  0  0  0  0  0
    3.2917   -1.2667    0.0000 C   0  0  0  0  0  0  0  0  0  0  0  0
    3.8917   -0.9167    0.0000 C   0  0  0  0  0  0  0  0  0  0  0  0
    5.5542   -1.6417    0.0000 C   0  0  0  0  0  0  0  0  0  0  0  0
    2.0292   -1.9542    0.0000 C   0  0  0  0  0  0  0  0  0  0  0  0
    5.1792   -2.1792    0.0000 C   0  0  0  0  0  0  0  0  0  0  0  0
    2.0292   -3.3792    0.0000 C   0  0  0  0  0  0  0  0  0  0  0  0
    5.1792   -0.3542    0.0000 C   0  0  0  0  0  0  0  0  0  0  0  0
    3.8917   -3.0417    0.0000 C   0  0  0  0  0  0  0  0  0  0  0  0
    1.4167   -2.3042    0.0000 C   0  0  0  0  0  0  0  0  0  0  0  0
    1.4167   -3.0042    0.0000 C   0  0  0  0  0  0  0  0  0  0  0  0
    3.2792   -3.4042    0.0000 C   0  0  0  0  0  0  0  0  0  0  0  0
    3.2917   -2.7042    0.0000 Cl  0  0  0  0  0  0  0  0  0  0  0  0
    4.5542   -0.0042    0.0000 O   0  0  0  0  0  0  0  0  0  0  0  0
    0.7917   -3.3667    0.0000 O   0  0  0  0  0  0  0  0  0  0  0  0
    5.7917   -0.7042    0.0000 O   0  0  0  0  0  0  0  0  0  0  0  0
    4.5042   -0.5667    0.0000 C   0  0  0  0  0  0  0  0  0  0  0  0
    2.6792   -0.9292    0.0000 O   0  0  0  0  0  0  0  0  0  0  0  0
    2.6667   -1.5917    0.0000 C   0  0  0  0  0  0  0  0  0  0  0  0
    5.7917    0.0083    0.0000 C   0  0  0  0  0  0  0  0  0  0  0  0
    5.7792    0.7208    0.0000 Cl  0  0  0  0  0  0  0  0  0  0  0  0
    6.2667   -1.6417    0.0000 C   0  0  0  0  0  0  0  0  0  0  0  0
  2  8  1  0
  3  2  1  0
  4  1  1  0
  5  4  1  0
  6  1  1  0
  7  3  1  0
  8  9  1  0
  9  1  1  0
 10  6  1  0
 11  3  1  0
 12  4  1  0
 13  7  2  0
 14  6  1  0
 15  5  1  0
 16 11  2  0
 17 16  1  0
 18 15  1  0
  2 19  1  0
 20 14  2  0
 21 17  2  0
  6 22  1  0
  1 23  1  0
  8 24  1  0
  3 25  1  0
 26 14  1  0
 27 26  1  0
 10 28  1  0
 10 12  1  0
  5  2  1  0
 18  7  1  0
 13 17  1  0
M  END
>  <Classification>  (82) 
1

>  <pchembl>  (82) 
5.03

>  <InChI_steorem>  (82) 
InChI=1S/C22H28Cl2O4/c1-12-8-16-15-5-4-13-9-14(25)6-7-19(13,2)21(15,24)17(26)10-20(16,3)22(12,28)18(27)11-23/h6-7,9,12,15-17,26,28H,4-5,8,10-11H2,1-3H3

>  <source>  (82) 
ChEMBL25

>  <source_id>  (82) 
25

>  <optional_reference>  (82) 
10.1002/hep.27206

>  <optional_origin>  (82) 
None

>  <target>  (82) 
BSEP

$$$$

     RDKit          2D

 23 26  0  0  0  0  0  0  0  0999 V2000
    3.0375   -5.3042    0.0000 C   0  0  0  0  0  0  0  0  0  0  0  0
    2.3042   -5.3042    0.0000 N   0  0  0  0  0  0  0  0  0  0  0  0
    3.4667   -5.8667    0.0000 C   0  0  0  0  0  0  0  0  0  0  0  0
    3.3750   -4.6875    0.0000 N   0  0  0  0  0  0  0  0  0  0  0  0
    3.2917   -6.5542    0.0000 C   0  0  0  0  0  0  0  0  0  0  0  0
    2.6417   -6.8542    0.0000 O   0  0  0  0  0  0  0  0  0  0  0  0
    1.8667   -5.8542    0.0000 C   0  0  0  0  0  0  0  0  0  0  0  0
    2.0167   -6.5250    0.0000 C   0  0  0  0  0  0  0  0  0  0  0  0
    4.0750   -3.4542    0.0000 N   0  0  0  0  0  0  0  0  0  0  0  0
    4.1625   -5.6792    0.0000 C   0  0  0  0  0  0  0  0  0  0  0  0
    4.0875   -4.6875    0.0000 C   0  0  0  0  0  0  0  0  0  0  0  0
    3.0292   -4.0667    0.0000 C   0  0  0  0  0  0  0  0  0  0  0  0
    3.8167   -7.0542    0.0000 C   0  0  0  0  0  0  0  0  0  0  0  0
    4.4292   -4.0708    0.0000 C   0  0  0  0  0  0  0  0  0  0  0  0
    3.3667   -3.4625    0.0000 C   0  0  0  0  0  0  0  0  0  0  0  0
    4.6667   -6.1667    0.0000 C   0  0  0  0  0  0  0  0  0  0  0  0
    4.4875   -6.8500    0.0000 C   0  0  0  0  0  0  0  0  0  0  0  0
    5.3750   -5.9917    0.0000 Cl  0  0  0  0  0  0  0  0  0  0  0  0
    4.4167   -2.8125    0.0000 C   0  0  0  0  0  0  0  0  0  0  0  0
    1.1875   -5.6417    0.0000 C   0  0  0  0  0  0  0  0  0  0  0  0
    1.4917   -7.0167    0.0000 C   0  0  0  0  0  0  0  0  0  0  0  0
    0.6750   -6.1250    0.0000 C   0  0  0  0  0  0  0  0  0  0  0  0
    0.8167   -6.8042    0.0000 C   0  0  0  0  0  0  0  0  0  0  0  0
  2  1  2  0
  3  1  1  0
  4  1  1  0
  5  3  2  0
  6  5  1  0
  7  2  1  0
  8  7  2  0
  9 15  1  0
 10  3  1  0
 11  4  1  0
 12  4  1  0
 13  5  1  0
 14 11  1  0
 15 12  1  0
 16 10  2  0
 17 16  1  0
 18 16  1  0
 19  9  1  0
 20  7  1  0
 21  8  1  0
 22 20  2  0
 23 21  2  0
  9 14  1  0
  8  6  1  0
 17 13  2  0
 22 23  1  0
M  END
>  <Classification>  (83) 
0

>  <pchembl>  (83) 
4.11

>  <InChI_steorem>  (83) 
InChI=1S/C18H18ClN3O/c1-21-8-10-22(11-9-21)18-14-12-13(19)6-7-16(14)23-17-5-3-2-4-15(17)20-18/h2-7,12H,8-11H2,1H3

>  <source>  (83) 
ChEMBL25

>  <source_id>  (83) 
25

>  <optional_reference>  (83) 
10.1093/toxsci/kft176

>  <optional_origin>  (83) 
None

>  <target>  (83) 
BSEP

$$$$

     RDKit          2D

 28 31  0  0  0  0  0  0  0  0999 V2000
    2.7917   -6.9542    0.0000 C   0  0  0  0  0  0  0  0  0  0  0  0
    3.4417   -6.7417    0.0000 C   0  0  0  0  0  0  0  0  0  0  0  0
    2.7917   -7.6750    0.0000 C   0  0  0  0  0  0  0  0  0  0  0  0
    0.9542   -8.7375    0.0000 C   0  0  0  0  0  0  0  0  0  0  0  0
    2.1667   -8.0167    0.0000 C   0  0  0  0  0  0  0  0  0  0  0  0
    1.5542   -7.6750    0.0000 C   0  0  0  0  0  0  0  0  0  0  0  0
    0.9542   -8.0167    0.0000 C   0  0  0  0  0  0  0  0  0  0  0  0
    4.0542   -6.3875    0.0000 C   0  0  0  0  0  0  0  0  0  0  0  0
    0.3417   -9.0917    0.0000 C   0  0  0  0  0  0  0  0  0  0  0  0
    2.1667   -6.5917    0.0000 C   0  0  0  0  0  0  0  0  0  0  0  0
    3.4375   -6.0417    0.0000 O   0  0  0  0  0  0  0  0  0  0  0  0
    1.5542   -6.9542    0.0000 C   0  0  0  0  0  0  0  0  0  0  0  0
    3.4667   -7.8792    0.0000 C   0  0  0  0  0  0  0  0  0  0  0  0
    2.1667   -8.7375    0.0000 C   0  0  0  0  0  0  0  0  0  0  0  0
    4.6667   -6.0292    0.0000 C   0  0  0  0  0  0  0  0  0  0  0  0
    0.3417   -7.6750    0.0000 C   0  0  0  0  0  0  0  0  0  0  0  0
    3.7958   -5.4333    0.0000 C   0  0  0  0  0  0  0  0  0  0  0  0
    3.8750   -7.2875    0.0000 C   0  0  0  0  0  0  0  0  0  0  0  0
    1.5542   -9.0917    0.0000 C   0  0  0  0  0  0  0  0  0  0  0  0
   -1.5250   -8.7208    0.0000 C   0  0  0  0  0  0  0  0  0  0  0  0
   -0.2833   -8.7375    0.0000 C   0  0  0  0  0  0  0  0  0  0  0  0
   -0.9083   -9.0917    0.0000 O   0  0  0  0  0  0  0  0  0  0  0  0
    3.4500   -4.8167    0.0000 O   0  0  0  0  0  0  0  0  0  0  0  0
   -1.4958   -8.0167    0.0000 O   0  0  0  0  0  0  0  0  0  0  0  0
   -0.2833   -8.0167    0.0000 C   0  0  0  0  0  0  0  0  0  0  0  0
    2.7917   -6.2250    0.0000 C   0  0  0  0  0  0  0  0  0  0  0  0
    4.5042   -5.4417    0.0000 C   0  0  0  0  0  0  0  0  0  0  0  0
   -2.1333   -9.0500    0.0000 C   0  0  0  0  0  0  0  0  0  0  0  0
  2  1  1  0
  3  1  1  0
  4  7  1  0
  5  3  1  0
  6  5  1  0
  7  6  1  0
  8  2  1  0
  9  4  2  0
 10  1  1  0
  2 11  1  0
 12 10  1  0
 13  3  1  0
 14  5  1  0
 15  8  3  0
 16  7  1  0
 17 11  1  0
 18  2  1  0
 19 14  1  0
 20 22  1  0
 21  9  1  0
 21 22  1  0
 23 17  2  0
 24 20  2  0
 25 16  1  0
  1 26  1  0
 27 17  1  0
 28 20  1  0
 18 13  1  0
 12  6  1  0
 19  4  1  0
 25 21  1  0
M  END
>  <Classification>  (84) 
0

>  <pchembl>  (84) 
4.21

>  <InChI_steorem>  (84) 
InChI=1S/C24H32O4/c1-5-24(28-16(3)26)13-11-22-21-8-6-17-14-18(27-15(2)25)7-9-19(17)20(21)10-12-23(22,24)4/h1,14,18-22H,6-13H2,2-4H3

>  <source>  (84) 
ChEMBL25

>  <source_id>  (84) 
25

>  <optional_reference>  (84) 
10.1002/hep.27206

>  <optional_origin>  (84) 
None

>  <target>  (84) 
BSEP

$$$$

     RDKit          2D

 35 36  0  0  0  0  0  0  0  0999 V2000
    4.4167   -4.0292    0.0000 C   0  0  0  0  0  0  0  0  0  0  0  0
    0.0375   -1.4917    0.0000 C   0  0  0  0  0  0  0  0  0  0  0  0
    0.7500   -1.9042    0.0000 C   0  0  0  0  0  0  0  0  0  0  0  0
   -1.0458   -1.0917    0.0000 C   0  0  0  0  0  0  0  0  0  0  0  0
    0.0375   -0.7500    0.0000 C   0  0  0  0  0  0  0  0  0  0  0  0
   -0.6125   -1.6917    0.0000 C   0  0  0  0  0  0  0  0  0  0  0  0
   -0.6125   -0.5542    0.0000 C   0  0  0  0  0  0  0  0  0  0  0  0
    3.8042   -3.6750    0.0000 C   0  0  0  0  0  0  0  0  0  0  0  0
    1.3667   -1.5792    0.0000 C   0  0  0  0  0  0  0  0  0  0  0  0
    4.5000   -0.6917    0.0000 C   0  0  0  0  0  0  0  0  0  0  0  0
    3.8042   -2.9417    0.0000 C   0  0  0  0  0  0  0  0  0  0  0  0
    4.5000   -1.4042    0.0000 O   0  0  0  0  0  0  0  0  0  0  0  0
    5.1250   -0.3500    0.0000 O   0  0  0  0  0  0  0  0  0  0  0  0
    5.0375   -3.6875    0.0000 F   0  0  0  0  0  0  0  0  0  0  0  0
    4.0625   -4.6417    0.0000 F   0  0  0  0  0  0  0  0  0  0  0  0
    4.7667   -4.6417    0.0000 F   0  0  0  0  0  0  0  0  0  0  0  0
    1.3667   -0.6792    0.0000 C   0  0  0  0  0  0  0  0  0  0  0  0
    2.0875   -0.6792    0.0000 C   0  0  0  0  0  0  0  0  0  0  0  0
    3.1875   -1.9042    0.0000 O   0  0  0  0  0  0  0  0  0  0  0  0
    3.1875   -2.5917    0.0000 C   0  0  0  0  0  0  0  0  0  0  0  0
   -0.8208   -2.3750    0.0000 O   0  0  0  0  0  0  0  0  0  0  0  0
   -0.8208    0.1208    0.0000 O   0  0  0  0  0  0  0  0  0  0  0  0
    0.7500   -0.3500    0.0000 C   0  0  0  0  0  0  0  0  0  0  0  0
    1.9792   -1.9042    0.0000 C   0  0  0  0  0  0  0  0  0  0  0  0
    2.6000   -1.5792    0.0000 C   0  0  0  0  0  0  0  0  0  0  0  0
    1.9792   -2.6167    0.0000 O   0  0  0  0  0  0  0  0  0  0  0  0
    3.1875   -4.0083    0.0000 C   0  0  0  0  0  0  0  0  0  0  0  0
    2.5750   -3.6750    0.0000 C   0  0  0  0  0  0  0  0  0  0  0  0
    5.7375   -0.7125    0.0000 C   0  0  0  0  0  0  0  0  0  0  0  0
    3.9125   -0.3500    0.0000 C   0  0  0  0  0  0  0  0  0  0  0  0
    2.6875   -0.3500    0.0000 C   0  0  0  0  0  0  0  0  0  0  0  0
    2.5750   -2.9417    0.0000 C   0  0  0  0  0  0  0  0  0  0  0  0
    3.2917   -0.6792    0.0000 C   0  0  0  0  0  0  0  0  0  0  0  0
    5.7250   -1.4250    0.0000 C   0  0  0  0  0  0  0  0  0  0  0  0
    6.3542   -0.3625    0.0000 C   0  0  0  0  0  0  0  0  0  0  0  0
  2  3  1  0
  3  9  2  3
  4  6  1  0
  5  2  1  0
  6  2  1  0
  7  5  1  0
  8  1  1  0
  9 24  1  0
 10 30  1  0
 11  8  2  0
 12 10  2  0
 13 10  1  0
 14  1  1  0
 15  1  1  0
 16  1  1  0
 17 23  1  0
 18 17  2  3
 19 20  1  0
 20 11  1  0
  6 21  1  0
  7 22  1  0
  5 23  1  0
 24 25  1  0
 25 19  1  0
 24 26  1  0
 27  8  1  0
 28 27  2  0
 29 13  1  0
 30 33  1  0
 31 18  1  0
 32 28  1  0
 33 31  1  0
 34 29  1  0
 35 29  1  0
 20 32  2  0
  7  4  1  0
M  END
>  <Classification>  (85) 
0

>  <pchembl>  (85) 
4.36

>  <InChI_steorem>  (85) 
InChI=1S/C26H35F3O6/c1-17(2)35-25(33)11-6-4-3-5-10-21-22(24(32)15-23(21)31)13-12-19(30)16-34-20-9-7-8-18(14-20)26(27,28)29/h3,5,7-9,12-14,17,19,21-24,30-32H,4,6,10-11,15-16H2,1-2H3

>  <source>  (85) 
ChEMBL25

>  <source_id>  (85) 
25

>  <optional_reference>  (85) 
10.1093/toxsci/kft176

>  <optional_origin>  (85) 
None

>  <target>  (85) 
BSEP

$$$$

     RDKit          2D

 32 35  0  0  0  0  0  0  0  0999 V2000
    4.6375   -4.4750    0.0000 C   0  0  0  0  0  0  0  0  0  0  0  0
    5.2792   -4.2542    0.0000 C   0  0  0  0  0  0  0  0  0  0  0  0
    2.7792   -5.5125    0.0000 C   0  0  0  0  0  0  0  0  0  0  0  0
    4.0375   -5.5167    0.0000 C   0  0  0  0  0  0  0  0  0  0  0  0
    4.6375   -5.1625    0.0000 C   0  0  0  0  0  0  0  0  0  0  0  0
    3.4167   -5.1792    0.0000 C   0  0  0  0  0  0  0  0  0  0  0  0
    2.7792   -6.2250    0.0000 C   0  0  0  0  0  0  0  0  0  0  0  0
    4.0375   -4.1167    0.0000 C   0  0  0  0  0  0  0  0  0  0  0  0
    3.4167   -4.4750    0.0000 C   0  0  0  0  0  0  0  0  0  0  0  0
    2.1667   -5.1417    0.0000 C   0  0  0  0  0  0  0  0  0  0  0  0
    5.2792   -3.4542    0.0000 C   0  0  0  0  0  0  0  0  0  0  0  0
    2.1542   -6.5667    0.0000 C   0  0  0  0  0  0  0  0  0  0  0  0
    5.9375   -3.9542    0.0000 O   0  0  0  0  0  0  0  0  0  0  0  0
    6.5417   -4.3167    0.0000 C   0  0  0  0  0  0  0  0  0  0  0  0
    5.6750   -4.8292    0.0000 C   0  0  0  0  0  0  0  0  0  0  0  0
    5.3042   -5.3667    0.0000 C   0  0  0  0  0  0  0  0  0  0  0  0
    4.0375   -6.2292    0.0000 C   0  0  0  0  0  0  0  0  0  0  0  0
    1.5292   -5.5125    0.0000 C   0  0  0  0  0  0  0  0  0  0  0  0
    1.5292   -6.1875    0.0000 C   0  0  0  0  0  0  0  0  0  0  0  0
    3.4042   -6.5917    0.0000 C   0  0  0  0  0  0  0  0  0  0  0  0
    5.8917   -3.0917    0.0000 O   0  0  0  0  0  0  0  0  0  0  0  0
    6.5417   -5.0167    0.0000 O   0  0  0  0  0  0  0  0  0  0  0  0
    4.6792   -3.0917    0.0000 O   0  0  0  0  0  0  0  0  0  0  0  0
    0.9125   -6.5167    0.0000 O   0  0  0  0  0  0  0  0  0  0  0  0
    4.6375   -3.7667    0.0000 C   0  0  0  0  0  0  0  0  0  0  0  0
    6.5042   -3.4542    0.0000 C   0  0  0  0  0  0  0  0  0  0  0  0
    2.8000   -4.1167    0.0000 O   0  0  0  0  0  0  0  0  0  0  0  0
    7.1417   -3.9542    0.0000 O   0  0  0  0  0  0  0  0  0  0  0  0
    2.7792   -4.8375    0.0000 C   0  0  0  0  0  0  0  0  0  0  0  0
    7.0792   -3.0917    0.0000 Cl  0  0  0  0  0  0  0  0  0  0  0  0
    7.7875   -4.3167    0.0000 C   0  0  0  0  0  0  0  0  0  0  0  0
    8.3875   -3.9542    0.0000 C   0  0  0  0  0  0  0  0  0  0  0  0
  2  1  1  0
  3  6  1  0
  4  5  1  0
  5  1  1  0
  6  9  1  0
  7  3  1  0
  8  1  1  0
  9  8  1  0
 10  3  1  0
 11  2  1  0
 12  7  2  0
  2 13  1  0
 14 13  1  0
 15  2  1  0
 16  5  1  0
 17  4  1  0
 18 10  2  0
 19 18  1  0
 20 17  1  0
 21 11  1  0
 22 14  2  0
 23 11  2  0
 24 19  2  0
  1 25  1  0
 26 21  1  0
  9 27  1  0
 28 14  1  0
  3 29  1  0
 30 26  1  0
 31 28  1  0
 32 31  1  0
 16 15  1  0
  6  4  1  0
  7 20  1  0
 19 12  1  0
M  END
>  <Classification>  (86) 
0

>  <pchembl>  (86) 
4.39

>  <InChI_steorem>  (86) 
InChI=1S/C24H31ClO7/c1-4-30-21(29)32-24(20(28)31-13-25)10-8-17-16-6-5-14-11-15(26)7-9-22(14,2)19(16)18(27)12-23(17,24)3/h7,9,11,16-19,27H,4-6,8,10,12-13H2,1-3H3

>  <source>  (86) 
ChEMBL25

>  <source_id>  (86) 
25

>  <optional_reference>  (86) 
10.1093/toxsci/kft176

>  <optional_origin>  (86) 
None

>  <target>  (86) 
BSEP

$$$$

     RDKit          2D

 41 45  0  0  0  0  0  0  0  0999 V2000
    3.1917   -2.8667    0.0000 C   0  0  0  0  0  0  0  0  0  0  0  0
    3.4042   -2.1917    0.0000 C   0  0  0  0  0  0  0  0  0  0  0  0
    3.7667   -3.2792    0.0000 N   0  0  0  0  0  0  0  0  0  0  0  0
    4.1167   -2.1917    0.0000 N   0  0  0  0  0  0  0  0  0  0  0  0
    4.3542   -2.8667    0.0000 C   0  0  0  0  0  0  0  0  0  0  0  0
    6.9417   -4.4042    0.0000 C   0  0  0  0  0  0  0  0  0  0  0  0
    6.5917   -3.2917    0.0000 N   0  0  0  0  0  0  0  0  0  0  0  0
    0.8042   -2.8667    0.0000 C   0  0  0  0  0  0  0  0  0  0  0  0
    6.3542   -4.0167    0.0000 N   0  0  0  0  0  0  0  0  0  0  0  0
    7.3417   -3.2917    0.0000 N   0  0  0  0  0  0  0  0  0  0  0  0
   -0.3208   -2.9125    0.0000 C   0  0  0  0  0  0  0  0  0  0  0  0
    0.2417   -3.3167    0.0000 O   0  0  0  0  0  0  0  0  0  0  0  0
    2.5917   -3.2167    0.0000 C   0  0  0  0  0  0  0  0  0  0  0  0
   -0.1208   -2.2667    0.0000 O   0  0  0  0  0  0  0  0  0  0  0  0
    7.5417   -4.0417    0.0000 N   0  0  0  0  0  0  0  0  0  0  0  0
    0.5917   -2.2667    0.0000 C   0  0  0  0  0  0  0  0  0  0  0  0
    6.9417   -5.0542    0.0000 C   0  0  0  0  0  0  0  0  0  0  0  0
    2.7875   -1.8417    0.0000 C   0  0  0  0  0  0  0  0  0  0  0  0
    6.3042   -5.4167    0.0000 C   0  0  0  0  0  0  0  0  0  0  0  0
    3.7792   -3.9792    0.0000 C   0  0  0  0  0  0  0  0  0  0  0  0
    2.0042   -2.8667    0.0000 O   0  0  0  0  0  0  0  0  0  0  0  0
    1.4042   -3.2167    0.0000 C   0  0  0  0  0  0  0  0  0  0  0  0
    5.6667   -5.0667    0.0000 C   0  0  0  0  0  0  0  0  0  0  0  0
   -0.9958   -3.1333    0.0000 O   0  0  0  0  0  0  0  0  0  0  0  0
    2.5917   -3.9167    0.0000 O   0  0  0  0  0  0  0  0  0  0  0  0
    5.0292   -5.4417    0.0000 C   0  0  0  0  0  0  0  0  0  0  0  0
    5.6667   -4.3417    0.0000 C   0  0  0  0  0  0  0  0  0  0  0  0
    4.4042   -4.3417    0.0000 C   0  0  0  0  0  0  0  0  0  0  0  0
    2.1708   -2.1958    0.0000 O   0  0  0  0  0  0  0  0  0  0  0  0
    4.9667   -3.2292    0.0000 C   0  0  0  0  0  0  0  0  0  0  0  0
    5.0292   -3.9667    0.0000 C   0  0  0  0  0  0  0  0  0  0  0  0
    4.4042   -5.0667    0.0000 C   0  0  0  0  0  0  0  0  0  0  0  0
    1.0417   -1.7292    0.0000 C   0  0  0  0  0  0  0  0  0  0  0  0
    7.5542   -5.4167    0.0000 C   0  0  0  0  0  0  0  0  0  0  0  0
    6.3042   -6.1292    0.0000 C   0  0  0  0  0  0  0  0  0  0  0  0
    2.4292   -1.2250    0.0000 C   0  0  0  0  0  0  0  0  0  0  0  0
    3.1375   -1.2250    0.0000 C   0  0  0  0  0  0  0  0  0  0  0  0
    5.5417   -2.8667    0.0000 C   0  0  0  0  0  0  0  0  0  0  0  0
    7.5542   -6.1292    0.0000 C   0  0  0  0  0  0  0  0  0  0  0  0
    6.9417   -6.4917    0.0000 C   0  0  0  0  0  0  0  0  0  0  0  0
    5.5417   -2.1917    0.0000 C   0  0  0  0  0  0  0  0  0  0  0  0
  2  1  2  0
  3  1  1  0
  4  2  1  0
  5  3  1  0
  6 17  1  0
  7  9  1  0
  8 22  1  0
  9  6  2  0
 10 15  1  0
 11 12  1  0
 12  8  1  0
 13  1  1  0
 14 16  1  0
 15  6  1  0
 16  8  2  0
 17 19  1  0
 18  2  1  0
 19 23  1  0
 20  3  1  0
 21 13  1  0
 22 21  1  0
 23 27  2  0
 24 11  2  0
 25 13  2  0
 26 32  2  0
 27 31  1  0
 28 20  1  0
 29 18  1  0
 30  5  1  0
 31 28  2  0
 32 28  1  0
 33 16  1  0
 34 17  2  0
 35 19  2  0
 36 18  1  0
 37 18  1  0
 38 30  1  0
 39 40  2  0
 40 35  1  0
 41 38  1  0
  4  5  2  0
 23 26  1  0
 11 14  1  0
 39 34  1  0
  7 10  2  0
M  END
>  <Classification>  (87) 
1

>  <pchembl>  (87) 
5.33

>  <InChI_steorem>  (87) 
InChI=1S/C29H30N6O6/c1-5-8-23-30-25(29(3,4)38)24(27(36)39-16-22-17(2)40-28(37)41-22)35(23)15-18-11-13-19(14-12-18)20-9-6-7-10-21(20)26-31-33-34-32-26/h6-7,9-14,38H,5,8,15-16H2,1-4H3,(H,31,32,33,34)

>  <source>  (87) 
ChEMBL25

>  <source_id>  (87) 
25

>  <optional_reference>  (87) 
10.1093/toxsci/kft176

>  <optional_origin>  (87) 
None

>  <target>  (87) 
BSEP

$$$$

     RDKit          2D

 37 41  0  0  0  0  0  0  0  0999 V2000
    5.2167  -19.4458    0.0000 C   0  0  0  0  0  0  0  0  0  0  0  0
    3.3708  -20.4917    0.0000 C   0  0  0  0  0  0  0  0  0  0  0  0
    7.7167  -18.1542    0.0000 C   0  0  0  0  0  0  0  0  0  0  0  0
    5.2083  -20.1500    0.0000 C   0  0  0  0  0  0  0  0  0  0  0  0
    3.9833  -20.1417    0.0000 C   0  0  0  0  0  0  0  0  0  0  0  0
    7.1125  -18.5125    0.0000 C   0  0  0  0  0  0  0  0  0  0  0  0
    5.8875  -18.5250    0.0000 C   0  0  0  0  0  0  0  0  0  0  0  0
    7.7083  -17.4458    0.0000 C   0  0  0  0  0  0  0  0  0  0  0  0
    4.5958  -20.5000    0.0000 C   0  0  0  0  0  0  0  0  0  0  0  0
    5.8917  -19.2333    0.0000 C   0  0  0  0  0  0  0  0  0  0  0  0
    7.7333  -20.2792    0.0000 C   0  0  0  0  0  0  0  0  0  0  0  0
    2.7583  -21.5542    0.0000 N   0  0  0  0  0  0  0  0  0  0  0  0
    6.4958  -18.1625    0.0000 N   0  0  0  0  0  0  0  0  0  0  0  0
    2.7583  -20.1417    0.0000 C   0  0  0  0  0  0  0  0  0  0  0  0
    3.3708  -21.2042    0.0000 C   0  0  0  0  0  0  0  0  0  0  0  0
    2.1500  -21.2042    0.0000 C   0  0  0  0  0  0  0  0  0  0  0  0
    7.7292  -19.5708    0.0000 C   0  0  0  0  0  0  0  0  0  0  0  0
    4.6042  -19.0833    0.0000 C   0  0  0  0  0  0  0  0  0  0  0  0
    7.1125  -19.2208    0.0000 C   0  0  0  0  0  0  0  0  0  0  0  0
    3.9875  -19.4333    0.0000 C   0  0  0  0  0  0  0  0  0  0  0  0
    5.8792  -20.3792    0.0000 C   0  0  0  0  0  0  0  0  0  0  0  0
    2.1500  -20.4917    0.0000 C   0  0  0  0  0  0  0  0  0  0  0  0
    8.3333  -18.5000    0.0000 C   0  0  0  0  0  0  0  0  0  0  0  0
    6.3000  -19.8083    0.0000 C   0  0  0  0  0  0  0  0  0  0  0  0
    4.5917  -21.2083    0.0000 C   0  0  0  0  0  0  0  0  0  0  0  0
    5.2708  -18.1750    0.0000 O   0  0  0  0  0  0  0  0  0  0  0  0
    3.9792  -21.5583    0.0000 C   0  0  0  0  0  0  0  0  0  0  0  0
    8.3417  -19.2125    0.0000 C   0  0  0  0  0  0  0  0  0  0  0  0
    1.5333  -21.5542    0.0000 O   0  0  0  0  0  0  0  0  0  0  0  0
    7.3500  -16.8292    0.0000 F   0  0  0  0  0  0  0  0  0  0  0  0
    7.0000  -17.4417    0.0000 F   0  0  0  0  0  0  0  0  0  0  0  0
    8.3167  -17.0833    0.0000 F   0  0  0  0  0  0  0  0  0  0  0  0
    8.3500  -20.6292    0.0000 F   0  0  0  0  0  0  0  0  0  0  0  0
    7.3750  -20.8917    0.0000 F   0  0  0  0  0  0  0  0  0  0  0  0
    7.0250  -20.2750    0.0000 F   0  0  0  0  0  0  0  0  0  0  0  0
    5.2125  -18.7375    0.0000 C   0  0  0  0  0  0  0  0  0  0  0  0
    3.3667  -19.7875    0.0000 C   0  0  0  0  0  0  0  0  0  0  0  0
  2  5  1  0
  3  6  2  0
  4  1  1  0
  5  9  1  0
  6 13  1  0
 10  7  1  0
  8  3  1  0
  9  4  1  0
 10  1  1  0
 11 17  1  0
 12 15  1  0
 13  7  1  0
 14  2  1  0
 15 27  1  0
 16 12  1  0
 17 19  2  0
 18  1  1  0
 19  6  1  0
 20 18  1  0
 21  4  1  0
 22 14  2  0
 23  3  1  0
 24 10  1  0
 25  9  1  0
 26  7  2  0
 27 25  1  0
 28 23  2  0
 29 16  2  0
 30  8  1  0
 31  8  1  0
 32  8  1  0
 33 11  1  0
 34 11  1  0
 35 11  1  0
  1 36  1  0
  2 37  1  0
 24 21  1  0
 20  5  1  0
 15  2  1  0
 16 22  1  0
 28 17  1  0
M  END
>  <Classification>  (88) 
0

>  <pchembl>  (88) 
4.53

>  <InChI_steorem>  (88) 
InChI=1S/C27H30F6N2O2/c1-24-11-9-17-15(4-8-21-25(17,2)12-10-22(36)35-21)16(24)6-7-19(24)23(37)34-20-13-14(26(28,29)30)3-5-18(20)27(31,32)33/h3,5,10,12-13,15-17,19,21H,4,6-9,11H2,1-2H3,(H,34,37)(H,35,36)

>  <source>  (88) 
ChEMBL25

>  <source_id>  (88) 
25

>  <optional_reference>  (88) 
10.1093/toxsci/kft176

>  <optional_origin>  (88) 
None

>  <target>  (88) 
BSEP

$$$$

     RDKit          2D

 71 75  0  0  0  0  0  0  0  0999 V2000
    3.6042   -3.9417    0.0000 N   0  0  0  0  0  0  0  0  0  0  0  0
    3.6042   -4.6542    0.0000 C   0  0  0  0  0  0  0  0  0  0  0  0
    2.9917   -5.0250    0.0000 C   0  0  0  0  0  0  0  0  0  0  0  0
    3.0042   -5.7292    0.0000 N   0  0  0  0  0  0  0  0  0  0  0  0
   -0.0875   -4.6667    0.0000 N   0  0  0  0  0  0  0  0  0  0  0  0
    0.4792   -2.8875    0.0000 N   0  0  0  0  0  0  0  0  0  0  0  0
   -0.7083   -5.0292    0.0000 C   0  0  0  0  0  0  0  0  0  0  0  0
    2.3750   -2.5292    0.0000 N   0  0  0  0  0  0  0  0  0  0  0  0
    2.9875   -3.5917    0.0000 C   0  0  0  0  0  0  0  0  0  0  0  0
    1.7500   -2.8917    0.0000 C   0  0  0  0  0  0  0  0  0  0  0  0
    0.4917   -3.5917    0.0000 C   0  0  0  0  0  0  0  0  0  0  0  0
    1.8000   -1.4917    0.0000 C   0  0  0  0  0  0  0  0  0  0  0  0
    2.3917   -6.1042    0.0000 C   0  0  0  0  0  0  0  0  0  0  0  0
   -0.7083   -5.7542    0.0000 C   0  0  0  0  0  0  0  0  0  0  0  0
    2.4000   -6.8125    0.0000 C   0  0  0  0  0  0  0  0  0  0  0  0
    1.1292   -2.5292    0.0000 C   0  0  0  0  0  0  0  0  0  0  0  0
   -1.2625   -6.1125    0.0000 N   0  0  0  0  0  0  0  0  0  0  0  0
   -0.0875   -3.9417    0.0000 C   0  0  0  0  0  0  0  0  0  0  0  0
   -1.9208   -5.8042    0.0000 C   0  0  0  0  0  0  0  0  0  0  0  0
    2.9542   -1.4750    0.0000 N   0  0  0  0  0  0  0  0  0  0  0  0
    1.7792   -7.1667    0.0000 N   0  0  0  0  0  0  0  0  0  0  0  0
    2.3792   -1.9042    0.0000 C   0  0  0  0  0  0  0  0  0  0  0  0
    2.9875   -2.8875    0.0000 C   0  0  0  0  0  0  0  0  0  0  0  0
    1.1292   -1.8167    0.0000 C   0  0  0  0  0  0  0  0  0  0  0  0
    2.0083   -0.8167    0.0000 C   0  0  0  0  0  0  0  0  0  0  0  0
    1.7750   -7.8875    0.0000 C   0  0  0  0  0  0  0  0  0  0  0  0
    0.4417   -5.7542    0.0000 S   0  0  0  0  0  0  0  0  0  0  0  0
    1.2167   -6.1042    0.0000 S   0  0  0  0  0  0  0  0  0  0  0  0
    2.7292   -0.8167    0.0000 C   0  0  0  0  0  0  0  0  0  0  0  0
   -2.5333   -6.1792    0.0000 C   0  0  0  0  0  0  0  0  0  0  0  0
    2.3667   -4.6750    0.0000 O   0  0  0  0  0  0  0  0  0  0  0  0
   -1.3333   -4.6875    0.0000 O   0  0  0  0  0  0  0  0  0  0  0  0
    2.3667   -3.9417    0.0000 O   0  0  0  0  0  0  0  0  0  0  0  0
    1.7500   -3.6000    0.0000 O   0  0  0  0  0  0  0  0  0  0  0  0
    1.1292   -3.9417    0.0000 O   0  0  0  0  0  0  0  0  0  0  0  0
    2.9875   -7.1417    0.0000 O   0  0  0  0  0  0  0  0  0  0  0  0
   -0.7083   -3.6000    0.0000 C   0  0  0  0  0  0  0  0  0  0  0  0
   -1.9208   -5.0917    0.0000 O   0  0  0  0  0  0  0  0  0  0  0  0
    1.7917   -5.7542    0.0000 C   0  0  0  0  0  0  0  0  0  0  0  0
   -0.1333   -6.0750    0.0000 C   0  0  0  0  0  0  0  0  0  0  0  0
    4.2292   -5.0042    0.0000 C   0  0  0  0  0  0  0  0  0  0  0  0
   -2.5250   -6.9000    0.0000 C   0  0  0  0  0  0  0  0  0  0  0  0
    2.4125   -8.2375    0.0000 C   0  0  0  0  0  0  0  0  0  0  0  0
   -3.1583   -5.8500    0.0000 N   0  0  0  0  0  0  0  0  0  0  0  0
   -0.7000   -2.8917    0.0000 C   0  0  0  0  0  0  0  0  0  0  0  0
   -1.9083   -7.2417    0.0000 C   0  0  0  0  0  0  0  0  0  0  0  0
    6.0792   -2.5250    0.0000 N   0  0  0  0  0  0  0  0  0  0  0  0
    4.2375   -5.7167    0.0000 O   0  0  0  0  0  0  0  0  0  0  0  0
    2.4167   -8.9542    0.0000 O   0  0  0  0  0  0  0  0  0  0  0  0
    1.1750   -8.2542    0.0000 C   0  0  0  0  0  0  0  0  0  0  0  0
    0.5500   -7.9042    0.0000 O   0  0  0  0  0  0  0  0  0  0  0  0
    1.6500   -0.1917    0.0000 C   0  0  0  0  0  0  0  0  0  0  0  0
    3.6042   -2.5250    0.0000 C   0  0  0  0  0  0  0  0  0  0  0  0
    3.0917   -0.1917    0.0000 C   0  0  0  0  0  0  0  0  0  0  0  0
    5.4625   -2.8792    0.0000 C   0  0  0  0  0  0  0  0  0  0  0  0
    4.8417   -4.6417    0.0000 C   0  0  0  0  0  0  0  0  0  0  0  0
    3.0292   -7.8667    0.0000 C   0  0  0  0  0  0  0  0  0  0  0  0
   -1.2875   -6.8917    0.0000 C   0  0  0  0  0  0  0  0  0  0  0  0
   -1.9083   -7.9542    0.0000 C   0  0  0  0  0  0  0  0  0  0  0  0
   -1.3250   -2.5167    0.0000 C   0  0  0  0  0  0  0  0  0  0  0  0
   -0.0708   -2.5542    0.0000 C   0  0  0  0  0  0  0  0  0  0  0  0
    4.2250   -2.8792    0.0000 C   0  0  0  0  0  0  0  0  0  0  0  0
    4.8417   -2.5250    0.0000 C   0  0  0  0  0  0  0  0  0  0  0  0
    2.0042    0.4333    0.0000 C   0  0  0  0  0  0  0  0  0  0  0  0
    2.7292    0.4333    0.0000 C   0  0  0  0  0  0  0  0  0  0  0  0
   -0.0583   -1.8292    0.0000 C   0  0  0  0  0  0  0  0  0  0  0  0
   -0.6958   -7.2417    0.0000 C   0  0  0  0  0  0  0  0  0  0  0  0
   -1.3083   -8.2917    0.0000 C   0  0  0  0  0  0  0  0  0  0  0  0
   -1.3208   -1.8042    0.0000 C   0  0  0  0  0  0  0  0  0  0  0  0
   -0.7000   -7.9542    0.0000 C   0  0  0  0  0  0  0  0  0  0  0  0
   -0.6708   -1.4667    0.0000 C   0  0  0  0  0  0  0  0  0  0  0  0
  2  1  1  0
  3  2  1  0
  4  3  1  0
  5 18  1  0
  6 16  1  0
  7 14  1  0
  8 23  1  0
  9  1  1  0
 10  8  1  0
 11  6  1  0
 12 24  1  0
 13  4  1  0
 14 40  1  0
 13 15  1  0
 16 10  1  0
 14 17  1  0
 18 11  1  0
 19 17  1  0
 20 22  1  0
 21 15  1  0
 22 12  2  0
 23  9  1  0
 16 24  1  0
 25 12  1  0
 26 21  1  0
 27 28  1  0
 28 39  1  0
 29 25  2  0
 30 19  1  0
 31  3  2  0
 32  7  2  0
 33  9  2  0
 34 10  2  0
 35 11  2  0
 36 15  2  0
 18 37  1  0
 38 19  2  0
 39 13  1  0
 40 27  1  0
 41  2  1  0
 30 42  1  0
 43 26  1  0
 44 30  1  0
 45 37  1  0
 46 42  1  0
 47 55  1  0
 41 48  1  0
 43 49  1  0
 26 50  1  0
 51 50  1  0
 52 25  1  0
 23 53  1  0
 54 29  1  0
 55 63  1  0
 56 41  1  0
 57 43  1  0
 58 46  2  0
 59 46  1  0
 60 45  2  0
 61 45  1  0
 62 53  1  0
 63 62  1  0
 64 52  2  0
 65 64  1  0
 66 61  2  0
 67 58  1  0
 68 59  2  0
 69 60  1  0
 70 68  1  0
 71 66  1  0
 29 20  1  0
  5  7  1  0
 54 65  2  0
 69 71  2  0
 67 70  2  0
M  END
>  <Classification>  (89) 
1

>  <pchembl>  (89) 
5.03

>  <InChI_steorem>  (89) 
InChI=1S/C49H66N10O10S2/c1-28(61)39(25-60)56-48(68)41-27-71-70-26-40(57-43(63)34(51)21-30-13-5-3-6-14-30)47(67)54-37(22-31-15-7-4-8-16-31)45(65)55-38(23-32-24-52-35-18-10-9-17-33(32)35)46(66)53-36(19-11-12-20-50)44(64)59-42(29(2)62)49(69)58-41/h3-10,13-18,24,28-29,34,36-42,52,60-62H,11-12,19-23,25-27,50-51H2,1-2H3,(H,53,66)(H,54,67)(H,55,65)(H,56,68)(H,57,63)(H,58,69)(H,59,64)

>  <source>  (89) 
ChEMBL25

>  <source_id>  (89) 
25

>  <optional_reference>  (89) 
10.1093/toxsci/kft176

>  <optional_origin>  (89) 
None

>  <target>  (89) 
BSEP

$$$$

     RDKit          2D

 73 76  0  0  0  0  0  0  0  0999 V2000
    8.8583   -3.5250    0.0000 C   0  0  0  0  0  0  0  0  0  0  0  0
    8.2458   -3.8792    0.0000 C   0  0  0  0  0  0  0  0  0  0  0  0
    9.4708   -5.9875    0.0000 C   0  0  0  0  0  0  0  0  0  0  0  0
    9.4708   -6.6917    0.0000 C   0  0  0  0  0  0  0  0  0  0  0  0
   10.0833   -7.0417    0.0000 C   0  0  0  0  0  0  0  0  0  0  0  0
   10.0833   -7.7458    0.0000 C   0  0  0  0  0  0  0  0  0  0  0  0
   10.6958   -8.0958    0.0000 C   0  0  0  0  0  0  0  0  0  0  0  0
    8.8583   -4.9333    0.0000 O   0  0  0  0  0  0  0  0  0  0  0  0
    8.2458   -4.5833    0.0000 C   0  0  0  0  0  0  0  0  0  0  0  0
    7.6398   -4.9368    0.0000 C   0  0  0  0  0  0  0  0  0  0  0  0
    7.6410   -5.6417    0.0000 C   0  0  0  0  0  0  0  0  0  0  0  0
    8.2535   -5.9917    0.0000 C   0  0  0  0  0  0  0  0  0  0  0  0
    8.8648   -5.6368    0.0000 C   0  0  0  0  0  0  0  0  0  0  0  0
    7.6323   -3.5252    0.0000 O   0  0  0  0  0  0  0  0  0  0  0  0
    9.4719   -3.8790    0.0000 O   0  0  0  0  0  0  0  0  0  0  0  0
   10.0852   -2.8167    0.0000 C   0  0  0  0  0  0  0  0  0  0  0  0
   10.6986   -2.4625    0.0000 O   0  0  0  0  0  0  0  0  0  0  0  0
   10.0852   -3.5250    0.0000 O   0  0  0  0  0  0  0  0  0  0  0  0
    8.8583   -2.8167    0.0000 N   0  0  0  0  0  0  0  0  0  0  0  0
    9.4718   -2.4625    0.0000 C   0  0  0  0  0  0  0  0  0  0  0  0
    9.4718   -1.7581    0.0000 C   0  0  0  0  0  0  0  0  0  0  0  0
    8.8598   -1.4025    0.0000 C   0  0  0  0  0  0  0  0  0  0  0  0
    8.2463   -1.7566    0.0000 C   0  0  0  0  0  0  0  0  0  0  0  0
    8.2449   -2.4664    0.0000 C   0  0  0  0  0  0  0  0  0  0  0  0
   11.3121   -2.8167    0.0000 C   0  0  0  0  0  0  0  0  0  0  0  0
   11.9255   -2.4625    0.0000 C   0  0  0  0  0  0  0  0  0  0  0  0
   11.3121   -3.5250    0.0000 C   0  0  0  0  0  0  0  0  0  0  0  0
   11.9255   -3.8792    0.0000 C   0  0  0  0  0  0  0  0  0  0  0  0
   11.9255   -4.5875    0.0000 C   0  0  0  0  0  0  0  0  0  0  0  0
   12.5389   -3.5250    0.0000 O   0  0  0  0  0  0  0  0  0  0  0  0
   12.5389   -4.9417    0.0000 C   0  0  0  0  0  0  0  0  0  0  0  0
   12.5389   -5.6500    0.0000 C   0  0  0  0  0  0  0  0  0  0  0  0
   13.1524   -6.0042    0.0000 C   0  0  0  0  0  0  0  0  0  0  0  0
   11.9255   -6.0042    0.0000 C   0  0  0  0  0  0  0  0  0  0  0  0
   13.1524   -6.7125    0.0000 C   0  0  0  0  0  0  0  0  0  0  0  0
   13.7658   -7.0667    0.0000 C   0  0  0  0  0  0  0  0  0  0  0  0
   13.7658   -7.7750    0.0000 C   0  0  0  0  0  0  0  0  0  0  0  0
   10.6960   -6.6861    0.0000 C   0  0  0  0  0  0  0  0  0  0  0  0
   10.6990   -8.8042    0.0000 C   0  0  0  0  0  0  0  0  0  0  0  0
   11.3140   -9.1556    0.0000 C   0  0  0  0  0  0  0  0  0  0  0  0
   11.9258   -8.7987    0.0000 C   0  0  0  0  0  0  0  0  0  0  0  0
   12.6333   -8.7958    0.0000 C   0  0  0  0  0  0  0  0  0  0  0  0
   13.0125   -8.1208    0.0000 C   0  0  0  0  0  0  0  0  0  0  0  0
   14.3621   -8.1574    0.0000 C   0  0  0  0  0  0  0  0  0  0  0  0
   12.9923   -9.4064    0.0000 C   0  0  0  0  0  0  0  0  0  0  0  0
   12.5389   -7.0667    0.0000 O   0  0  0  0  0  0  0  0  0  0  0  0
    8.8582   -7.0472    0.0000 O   0  0  0  0  0  0  0  0  0  0  0  0
    7.0253   -4.5845    0.0000 C   0  0  0  0  0  0  0  0  0  0  0  0
    8.8583   -4.2250    0.0000 O   0  0  0  0  0  0  0  0  0  0  0  0
   13.7658   -5.6500    0.0000 O   0  0  0  0  0  0  0  0  0  0  0  0
   14.3792   -6.7125    0.0000 O   0  0  0  0  0  0  0  0  0  0  0  0
   11.9255   -1.7542    0.0000 C   0  0  0  0  0  0  0  0  0  0  0  0
   12.5389   -1.4000    0.0000 C   0  0  0  0  0  0  0  0  0  0  0  0
   13.1482   -1.7553    0.0000 C   0  0  0  0  0  0  0  0  0  0  0  0
   13.7598   -1.4041    0.0000 C   0  0  0  0  0  0  0  0  0  0  0  0
   13.7634   -0.6955    0.0000 C   0  0  0  0  0  0  0  0  0  0  0  0
   13.1501   -0.3394    0.0000 C   0  0  0  0  0  0  0  0  0  0  0  0
   12.5332   -0.6920    0.0000 C   0  0  0  0  0  0  0  0  0  0  0  0
   12.5389   -2.8167    0.0000 C   0  0  0  0  0  0  0  0  0  0  0  0
   14.3782   -0.3436    0.0000 O   0  0  0  0  0  0  0  0  0  0  0  0
   14.3719   -1.7606    0.0000 O   0  0  0  0  0  0  0  0  0  0  0  0
   14.9866   -1.4087    0.0000 C   0  0  0  0  0  0  0  0  0  0  0  0
   11.3121   -4.9417    0.0000 C   0  0  0  0  0  0  0  0  0  0  0  0
   11.9255   -6.7125    0.0000 C   0  0  0  0  0  0  0  0  0  0  0  0
    8.2440   -6.6944    0.0000 C   0  0  0  0  0  0  0  0  0  0  0  0
   14.3809    0.3647    0.0000 C   0  0  0  0  0  0  0  0  0  0  0  0
   14.9956    0.7165    0.0000 C   0  0  0  0  0  0  0  0  0  0  0  0
   13.7688    0.7212    0.0000 O   0  0  0  0  0  0  0  0  0  0  0  0
   15.6077    0.3601    0.0000 C   0  0  0  0  0  0  0  0  0  0  0  0
   14.6333    1.3333    0.0000 C   0  0  0  0  0  0  0  0  0  0  0  0
   13.9250    1.3280    0.0000 O   0  0  0  0  0  0  0  0  0  0  0  0
   15.3417    1.3333    0.0000 C   0  0  0  0  0  0  0  0  0  0  0  0
   16.0499    1.3421    0.0000 O   0  0  0  0  0  0  0  0  0  0  0  0
  5 38  1  0
 19 20  1  0
  7 39  2  0
 39 40  1  0
  3  4  1  0
 40 41  2  0
  1  2  1  0
 41 42  1  0
  4  5  1  0
 42 43  1  0
 43 37  1  0
  2  9  1  0
 37 44  1  0
  8 13  1  0
 42 45  1  0
 19 24  1  0
 35 46  1  0
 20 21  1  0
 21 22  1  0
  4 47  1  0
 22 23  1  0
 10 48  1  0
 23 24  1  0
  9 49  1  0
  9 10  1  0
 17 25  1  0
 33 50  1  0
 10 11  1  0
 36 51  2  0
 25 26  1  0
 26 52  1  0
 11 12  1  0
 52 53  1  0
 53 54  1  0
 25 27  1  0
 12 13  1  0
 27 28  1  0
  5  6  2  0
 28 29  1  0
 53 58  1  0
 54 55  1  0
 55 56  1  0
 56 57  1  0
 57 58  1  0
  2 14  2  0
 26 59  1  0
 28 30  2  0
 19  1  1  0
 29 31  1  0
 56 60  1  0
  1 15  2  0
 55 61  1  0
 31 32  2  0
 61 62  1  0
  6  7  1  0
 29 63  1  0
 32 33  1  0
 46 64  1  0
 20 16  1  0
 47 65  1  0
 32 34  1  0
 60 66  1  0
  8  9  1  0
 66 67  1  0
 33 35  1  0
 66 68  2  0
 16 17  1  0
 67 69  1  0
 35 36  1  0
 67 70  1  0
 13  3  1  0
 70 71  1  0
 36 37  1  0
 67 72  1  0
 16 18  2  0
 72 73  1  0
M  END
>  <Classification>  (90) 
1

>  <pchembl>  (90) 
5.57

>  <InChI_steorem>  (90) 
InChI=1S/C56H87NO16/c1-33-17-13-12-14-18-34(2)45(68-9)29-41-22-20-39(7)56(67,73-41)51(63)52(64)57-24-16-15-19-42(57)53(65)71-46(30-43(60)35(3)26-38(6)49(62)50(70-11)48(61)37(5)25-33)36(4)27-40-21-23-44(47(28-40)69-10)72-54(66)55(8,31-58)32-59/h12-14,17-18,26,33,35-37,39-42,44-47,49-50,58-59,62,67H,15-16,19-25,27-32H2,1-11H3

>  <source>  (90) 
ChEMBL25

>  <source_id>  (90) 
25

>  <optional_reference>  (90) 
10.1093/toxsci/kft176

>  <optional_origin>  (90) 
None

>  <target>  (90) 
BSEP

$$$$

     RDKit          2D

 31 33  0  0  0  0  0  0  0  0999 V2000
    2.5208   -7.0125    0.0000 N   0  0  0  0  0  0  0  0  0  0  0  0
    1.9042   -7.3625    0.0000 C   0  0  0  0  0  0  0  0  0  0  0  0
    3.0958   -7.4292    0.0000 C   0  0  0  0  0  0  0  0  0  0  0  0
    3.4500   -6.3375    0.0000 C   0  0  0  0  0  0  0  0  0  0  0  0
    3.6667   -7.0125    0.0000 C   0  0  0  0  0  0  0  0  0  0  0  0
    2.7375   -6.3417    0.0000 C   0  0  0  0  0  0  0  0  0  0  0  0
    0.6750   -7.3458    0.0000 N   0  0  0  0  0  0  0  0  0  0  0  0
    3.0917   -8.1375    0.0000 C   0  0  0  0  0  0  0  0  0  0  0  0
    1.2917   -7.0000    0.0000 C   0  0  0  0  0  0  0  0  0  0  0  0
    0.0750   -6.2750    0.0000 C   0  0  0  0  0  0  0  0  0  0  0  0
    0.0667   -6.9833    0.0000 C   0  0  0  0  0  0  0  0  0  0  0  0
    4.1583   -6.3375    0.0000 S   0  0  0  0  0  0  0  0  0  0  0  0
    3.2333   -5.6625    0.0000 S   0  0  0  0  0  0  0  0  0  0  0  0
    1.8917   -8.0667    0.0000 O   0  0  0  0  0  0  0  0  0  0  0  0
    2.4750   -8.4875    0.0000 O   0  0  0  0  0  0  0  0  0  0  0  0
    0.6958   -5.9292    0.0000 O   0  0  0  0  0  0  0  0  0  0  0  0
   -0.5500   -7.3292    0.0000 C   0  0  0  0  0  0  0  0  0  0  0  0
    3.7000   -8.4917    0.0000 O   0  0  0  0  0  0  0  0  0  0  0  0
   -0.5333   -5.9125    0.0000 O   0  0  0  0  0  0  0  0  0  0  0  0
   -1.1583   -6.9667    0.0000 C   0  0  0  0  0  0  0  0  0  0  0  0
   -1.7792   -7.3125    0.0000 C   0  0  0  0  0  0  0  0  0  0  0  0
    3.8042   -5.2458    0.0000 C   0  0  0  0  0  0  0  0  0  0  0  0
    4.3792   -5.6625    0.0000 C   0  0  0  0  0  0  0  0  0  0  0  0
    1.3042   -6.2917    0.0000 C   0  0  0  0  0  0  0  0  0  0  0  0
   -1.1500   -6.2583    0.0000 C   0  0  0  0  0  0  0  0  0  0  0  0
   -2.3875   -6.9500    0.0000 C   0  0  0  0  0  0  0  0  0  0  0  0
   -1.7833   -8.0167    0.0000 C   0  0  0  0  0  0  0  0  0  0  0  0
   -1.7583   -5.8958    0.0000 C   0  0  0  0  0  0  0  0  0  0  0  0
   -2.4000   -8.3667    0.0000 C   0  0  0  0  0  0  0  0  0  0  0  0
   -3.0042   -7.2958    0.0000 C   0  0  0  0  0  0  0  0  0  0  0  0
   -3.0125   -8.0042    0.0000 C   0  0  0  0  0  0  0  0  0  0  0  0
  2  1  1  0
  3  1  1  0
  4  6  1  0
  5  3  1  0
  6  1  1  0
  7  9  1  0
  3  8  1  0
  9  2  1  0
 11 10  1  0
 11  7  1  0
 12  4  1  0
 13  4  1  0
 14  2  2  0
 15  8  2  0
 16 10  2  0
 17 11  1  0
 18  8  1  0
 19 10  1  0
 20 17  1  0
 21 20  1  0
 22 13  1  0
 23 12  1  0
  9 24  1  0
 25 19  1  0
 26 21  2  0
 27 21  1  0
 28 25  1  0
 29 27  2  0
 30 26  1  0
 31 29  1  0
  4  5  1  0
 22 23  1  0
 31 30  2  0
M  END
>  <Classification>  (91) 
0

>  <pchembl>  (91) 
4.33

>  <InChI_steorem>  (91) 
InChI=1S/C22H30N2O5S2/c1-3-29-21(28)17(10-9-16-7-5-4-6-8-16)23-15(2)19(25)24-14-22(30-11-12-31-22)13-18(24)20(26)27/h4-8,15,17-18,23H,3,9-14H2,1-2H3,(H,26,27)

>  <source>  (91) 
ChEMBL25

>  <source_id>  (91) 
25

>  <optional_reference>  (91) 
10.1124/dmd.112.047068

>  <optional_origin>  (91) 
None

>  <target>  (91) 
BSEP

$$$$

     RDKit          2D

 51 53  0  0  0  0  0  0  0  0999 V2000
    4.0542   -6.5958    0.0000 C   0  0  0  0  0  0  0  0  0  0  0  0
    1.7917   -5.5000    0.0000 C   0  0  0  0  0  0  0  0  0  0  0  0
    0.5667   -5.5042    0.0000 C   0  0  0  0  0  0  0  0  0  0  0  0
   -0.0458   -3.7417    0.0000 C   0  0  0  0  0  0  0  0  0  0  0  0
    1.1792   -5.8542    0.0000 C   0  0  0  0  0  0  0  0  0  0  0  0
    3.7042   -7.2042    0.0000 C   0  0  0  0  0  0  0  0  0  0  0  0
    2.4042   -4.4417    0.0000 C   0  0  0  0  0  0  0  0  0  0  0  0
    1.7917   -4.7917    0.0000 C   0  0  0  0  0  0  0  0  0  0  0  0
    0.5667   -2.6917    0.0000 C   0  0  0  0  0  0  0  0  0  0  0  0
    0.5667   -4.8000    0.0000 O   0  0  0  0  0  0  0  0  0  0  0  0
    0.5667   -3.3917    0.0000 C   0  0  0  0  0  0  0  0  0  0  0  0
    1.1792   -2.3375    0.0000 C   0  0  0  0  0  0  0  0  0  0  0  0
    4.0500   -5.6542    0.0000 O   0  0  0  0  0  0  0  0  0  0  0  0
    0.4042   -8.5792    0.0000 C   0  0  0  0  0  0  0  0  0  0  0  0
    2.9917   -7.2042    0.0000 C   0  0  0  0  0  0  0  0  0  0  0  0
    2.4042   -3.7417    0.0000 C   0  0  0  0  0  0  0  0  0  0  0  0
    1.4625   -7.9708    0.0000 C   0  0  0  0  0  0  0  0  0  0  0  0
    1.1125   -8.5792    0.0000 C   0  0  0  0  0  0  0  0  0  0  0  0
    3.7042   -5.9833    0.0000 O   0  0  0  0  0  0  0  0  0  0  0  0
    1.1125   -7.3583    0.0000 O   0  0  0  0  0  0  0  0  0  0  0  0
   -0.0458   -4.4458    0.0000 C   0  0  0  0  0  0  0  0  0  0  0  0
    0.0458   -7.9708    0.0000 C   0  0  0  0  0  0  0  0  0  0  0  0
    2.4042   -5.8500    0.0000 O   0  0  0  0  0  0  0  0  0  0  0  0
    0.4042   -7.3583    0.0000 C   0  0  0  0  0  0  0  0  0  0  0  0
    1.7917   -2.6875    0.0000 C   0  0  0  0  0  0  0  0  0  0  0  0
    1.7917   -3.3917    0.0000 C   0  0  0  0  0  0  0  0  0  0  0  0
    2.6375   -6.5958    0.0000 C   0  0  0  0  0  0  0  0  0  0  0  0
    2.6417   -7.8208    0.0000 N   0  0  0  0  0  0  0  0  0  0  0  0
   -0.0458   -5.8583    0.0000 O   0  0  0  0  0  0  0  0  0  0  0  0
    2.9917   -5.9833    0.0000 C   0  0  0  0  0  0  0  0  0  0  0  0
    1.1750   -1.6292    0.0000 O   0  0  0  0  0  0  0  0  0  0  0  0
   -0.4000   -3.1250    0.0000 O   0  0  0  0  0  0  0  0  0  0  0  0
    4.0542   -7.8208    0.0000 O   0  0  0  0  0  0  0  0  0  0  0  0
    2.7542   -3.1250    0.0000 O   0  0  0  0  0  0  0  0  0  0  0  0
    1.1792   -3.7500    0.0000 O   0  0  0  0  0  0  0  0  0  0  0  0
   -0.2125   -8.9292    0.0000 O   0  0  0  0  0  0  0  0  0  0  0  0
   -0.6625   -7.9708    0.0000 O   0  0  0  0  0  0  0  0  0  0  0  0
   -0.7500   -3.7417    0.0000 C   0  0  0  0  0  0  0  0  0  0  0  0
    1.1833   -6.5625    0.0000 C   0  0  0  0  0  0  0  0  0  0  0  0
    1.1750   -4.4375    0.0000 C   0  0  0  0  0  0  0  0  0  0  0  0
   -0.0458   -2.3375    0.0000 C   0  0  0  0  0  0  0  0  0  0  0  0
    0.4000   -9.2917    0.0000 C   0  0  0  0  0  0  0  0  0  0  0  0
    3.1125   -3.7417    0.0000 C   0  0  0  0  0  0  0  0  0  0  0  0
   -0.6583   -4.8042    0.0000 C   0  0  0  0  0  0  0  0  0  0  0  0
    0.0500   -6.7417    0.0000 C   0  0  0  0  0  0  0  0  0  0  0  0
    2.4042   -2.3292    0.0000 C   0  0  0  0  0  0  0  0  0  0  0  0
    2.9958   -8.4333    0.0000 C   0  0  0  0  0  0  0  0  0  0  0  0
    1.9333   -7.8208    0.0000 C   0  0  0  0  0  0  0  0  0  0  0  0
    2.6417   -5.3667    0.0000 C   0  0  0  0  0  0  0  0  0  0  0  0
   -0.8250   -8.5708    0.0000 C   0  0  0  0  0  0  0  0  0  0  0  0
   -1.2708   -4.4500    0.0000 C   0  0  0  0  0  0  0  0  0  0  0  0
  2  8  1  0
  3  5  1  0
  4 11  1  0
  5  2  1  0
  6  1  1  0
  7 13  1  0
  8  7  1  0
  9 12  1  0
 10  3  1  0
 11  9  1  0
 12 25  1  0
 13  1  1  0
 14 18  1  0
 15  6  1  0
 16  7  1  0
 17 23  1  0
 18 17  1  0
 19  1  1  0
 20 17  1  0
 21 10  1  0
 22 24  1  0
  2 23  1  0
 24 20  1  0
 25 26  1  0
 26 16  1  0
 27 30  1  0
 15 28  1  0
 29  3  2  0
 30 19  1  0
 31 12  2  0
  4 32  1  0
  6 33  1  0
 16 34  1  0
 11 35  1  0
 14 36  1  0
 22 37  1  0
 38  4  1  0
  5 39  1  0
  8 40  1  0
  9 41  1  0
 42 14  1  0
 43 16  1  0
 21 44  1  0
 24 45  1  0
 25 46  1  0
 47 28  1  0
 48 28  1  0
 30 49  1  0
 50 36  1  0
 51 44  1  0
 27 15  1  0
 21  4  1  0
 22 14  1  0
M  END
>  <Classification>  (92) 
0

>  <pchembl>  (92) 
4.89

>  <InChI_steorem>  (92) 
InChI=1S/C37H67NO13/c1-14-25-37(10,45)30(41)20(4)27(39)18(2)16-35(8,44)32(51-34-28(40)24(38(11)12)15-19(3)47-34)21(5)29(22(6)33(43)49-25)50-26-17-36(9,46-13)31(42)23(7)48-26/h18-26,28-32,34,40-42,44-45H,14-17H2,1-13H3

>  <source>  (92) 
ChEMBL25

>  <source_id>  (92) 
25

>  <optional_reference>  (92) 
10.1093/toxsci/kft176

>  <optional_origin>  (92) 
None

>  <target>  (92) 
BSEP

$$$$

     RDKit          2D

 37 39  0  0  0  0  0  0  0  0999 V2000
    3.5042   -3.3167    0.0000 N   0  0  0  0  0  0  0  0  0  0  0  0
    2.6750   -3.3167    0.0000 C   0  0  0  0  0  0  0  0  0  0  0  0
    2.6750   -2.6250    0.0000 C   0  0  0  0  0  0  0  0  0  0  0  0
    3.5042   -2.6250    0.0000 C   0  0  0  0  0  0  0  0  0  0  0  0
    4.1292   -3.7042    0.0000 C   0  0  0  0  0  0  0  0  0  0  0  0
    0.1792   -2.6250    0.0000 C   0  0  0  0  0  0  0  0  0  0  0  0
    4.1292   -4.2792    0.0000 C   0  0  0  0  0  0  0  0  0  0  0  0
    0.8167   -2.2417    0.0000 C   0  0  0  0  0  0  0  0  0  0  0  0
   -0.0708   -3.2667    0.0000 N   0  0  0  0  0  0  0  0  0  0  0  0
    2.0292   -2.2417    0.0000 N   0  0  0  0  0  0  0  0  0  0  0  0
    1.4042   -2.6250    0.0000 C   0  0  0  0  0  0  0  0  0  0  0  0
    4.1292   -2.2792    0.0000 S   0  0  0  0  0  0  0  0  0  0  0  0
    4.7417   -3.3167    0.0000 C   0  0  0  0  0  0  0  0  0  0  0  0
   -0.7583   -3.2667    0.0000 C   0  0  0  0  0  0  0  0  0  0  0  0
    5.9417   -5.4292    0.0000 C   0  0  0  0  0  0  0  0  0  0  0  0
   -0.4083   -2.1917    0.0000 C   0  0  0  0  0  0  0  0  0  0  0  0
    4.6917   -4.6667    0.0000 O   0  0  0  0  0  0  0  0  0  0  0  0
   -0.9875   -2.6167    0.0000 S   0  0  0  0  0  0  0  0  0  0  0  0
    5.3167   -5.7542    0.0000 O   0  0  0  0  0  0  0  0  0  0  0  0
    4.7417   -2.6250    0.0000 C   0  0  0  0  0  0  0  0  0  0  0  0
    4.6792   -5.4292    0.0000 C   0  0  0  0  0  0  0  0  0  0  0  0
    0.8167   -1.5792    0.0000 N   0  0  0  0  0  0  0  0  0  0  0  0
    2.2292   -3.7125    0.0000 O   0  0  0  0  0  0  0  0  0  0  0  0
    3.4792   -4.6000    0.0000 O   0  0  0  0  0  0  0  0  0  0  0  0
    1.4042   -3.1792    0.0000 O   0  0  0  0  0  0  0  0  0  0  0  0
    5.9417   -4.7792    0.0000 O   0  0  0  0  0  0  0  0  0  0  0  0
    6.5417   -5.7542    0.0000 O   0  0  0  0  0  0  0  0  0  0  0  0
   -1.3125   -3.7125    0.0000 N   0  0  0  0  0  0  0  0  0  0  0  0
    5.4167   -3.6917    0.0000 C   0  0  0  0  0  0  0  0  0  0  0  0
    1.4375   -1.1792    0.0000 O   0  0  0  0  0  0  0  0  0  0  0  0
    6.0792   -3.3500    0.0000 O   0  0  0  0  0  0  0  0  0  0  0  0
    7.2042   -5.4292    0.0000 C   0  0  0  0  0  0  0  0  0  0  0  0
    4.0417   -5.7542    0.0000 C   0  0  0  0  0  0  0  0  0  0  0  0
    1.4375   -0.4667    0.0000 C   0  0  0  0  0  0  0  0  0  0  0  0
    6.8250   -3.6917    0.0000 C   0  0  0  0  0  0  0  0  0  0  0  0
    7.8375   -5.7542    0.0000 C   0  0  0  0  0  0  0  0  0  0  0  0
    7.2042   -4.7792    0.0000 C   0  0  0  0  0  0  0  0  0  0  0  0
  2  1  1  0
  3  4  1  0
  4  1  1  0
  5  1  1  0
  6  8  1  0
  7  5  1  0
  8 11  1  0
  9  6  1  0
  3 10  1  0
 11 10  1  0
 12  4  1  0
 13  5  2  0
 14  9  2  0
 15 19  1  0
 16  6  2  0
 17  7  1  0
 18 16  1  0
 19 21  1  0
 20 13  1  0
 21 17  1  0
 22  8  2  3
 23  2  2  0
 24  7  2  0
 25 11  2  0
 26 15  2  0
 27 15  1  0
 28 14  1  0
 29 13  1  0
 30 22  1  0
 31 29  1  0
 32 27  1  0
 33 21  1  0
 34 30  1  0
 35 31  1  0
 36 32  1  0
 37 32  1  0
  3  2  1  0
 20 12  1  0
 18 14  1  0
M  END
>  <Classification>  (93) 
0

>  <pchembl>  (93) 
4.09

>  <InChI_steorem>  (93) 
InChI=1S/C21H27N5O9S2/c1-9(2)33-21(30)35-10(3)34-19(29)15-11(6-31-4)7-36-18-14(17(28)26(15)18)24-16(27)13(25-32-5)12-8-37-20(22)23-12/h8-10,14,18H,6-7H2,1-5H3,(H2,22,23)(H,24,27)

>  <source>  (93) 
ChEMBL25

>  <source_id>  (93) 
25

>  <optional_reference>  (93) 
10.1093/toxsci/kft176

>  <optional_origin>  (93) 
None

>  <target>  (93) 
BSEP

$$$$

     RDKit          2D

 29 32  0  0  0  0  0  0  0  0999 V2000
   -1.0234  -12.5923    0.0000 C   0  0  0  0  0  0  0  0  0  0  0  0
   -1.0234  -13.4193    0.0000 C   0  0  0  0  0  0  0  0  0  0  0  0
   -0.3112  -13.8306    0.0000 N   0  0  0  0  0  0  0  0  0  0  0  0
   -0.3112  -12.1766    0.0000 C   0  0  0  0  0  0  0  0  0  0  0  0
    0.4057  -12.5923    0.0000 C   0  0  0  0  0  0  0  0  0  0  0  0
    0.4040  -13.4175    0.0000 C   0  0  0  0  0  0  0  0  0  0  0  0
    1.1166  -13.8297    0.0000 C   0  0  0  0  0  0  0  0  0  0  0  0
    1.8314  -13.4178    0.0000 C   0  0  0  0  0  0  0  0  0  0  0  0
    1.8290  -12.5896    0.0000 C   0  0  0  0  0  0  0  0  0  0  0  0
    1.1158  -12.1811    0.0000 C   0  0  0  0  0  0  0  0  0  0  0  0
   -1.7357  -13.8306    0.0000 O   0  0  0  0  0  0  0  0  0  0  0  0
   -1.7367  -12.1828    0.0000 N   0  0  0  0  0  0  0  0  0  0  0  0
   -2.4480  -12.5958    0.0000 C   0  0  0  0  0  0  0  0  0  0  0  0
   -2.4460  -13.4181    0.0000 O   0  0  0  0  0  0  0  0  0  0  0  0
   -3.1612  -12.1862    0.0000 C   0  0  0  0  0  0  0  0  0  0  0  0
   -3.2455  -11.3643    0.0000 C   0  0  0  0  0  0  0  0  0  0  0  0
   -3.9081  -12.5182    0.0000 N   0  0  0  0  0  0  0  0  0  0  0  0
   -0.3112  -14.6530    0.0000 C   0  0  0  0  0  0  0  0  0  0  0  0
    0.4012  -15.0642    0.0000 C   0  0  0  0  0  0  0  0  0  0  0  0
    0.4012  -15.8866    0.0000 C   0  0  0  0  0  0  0  0  0  0  0  0
   -0.3111  -16.2979    0.0000 O   0  0  0  0  0  0  0  0  0  0  0  0
    1.1134  -14.6529    0.0000 O   0  0  0  0  0  0  0  0  0  0  0  0
   -4.4616  -11.9171    0.0000 C   0  0  0  0  0  0  0  0  0  0  0  0
   -4.0461  -11.1950    0.0000 C   0  0  0  0  0  0  0  0  0  0  0  0
   -4.4635  -10.4764    0.0000 C   0  0  0  0  0  0  0  0  0  0  0  0
   -5.2962  -10.4785    0.0000 C   0  0  0  0  0  0  0  0  0  0  0  0
   -5.7099  -11.2051    0.0000 C   0  0  0  0  0  0  0  0  0  0  0  0
   -5.2901  -11.9209    0.0000 C   0  0  0  0  0  0  0  0  0  0  0  0
   -5.7105   -9.7679    0.0000 Cl  0  0  0  0  0  0  0  0  0  0  0  0
 13 14  2  0
  6  7  2  0
 13 15  1  0
 15 16  2  0
  2  3  1  0
  7  8  1  0
 16 24  1  0
 23 17  1  0
 17 15  1  0
  3  6  1  0
  3 18  1  0
  8  9  2  0
 18 19  1  0
  5  4  1  0
 19 20  1  0
  9 10  1  0
 20 21  1  0
 10  5  2  0
 19 22  1  0
  2 11  2  0
 23 24  2  0
  1  2  1  0
 24 25  1  0
  1 12  1  0
 25 26  2  0
  5  6  1  0
 26 27  1  0
 12 13  1  0
 27 28  2  0
 28 23  1  0
  1  4  1  0
 26 29  1  0
M  END
>  <Classification>  (94) 
0

>  <pchembl>  (94) 
4.72

>  <InChI_steorem>  (94) 
InChI=1S/C21H20ClN3O4/c22-14-5-6-16-13(7-14)9-17(23-16)20(28)24-18-8-12-3-1-2-4-19(12)25(21(18)29)10-15(27)11-26/h1-7,9,15,18,23,26-27H,8,10-11H2,(H,24,28)

>  <source>  (94) 
ChEMBL25

>  <source_id>  (94) 
25

>  <optional_reference>  (94) 
10.1124/dmd.112.047068

>  <optional_origin>  (94) 
None

>  <target>  (94) 
BSEP

$$$$

     RDKit          2D

 32 34  0  0  0  0  0  0  0  0999 V2000
    1.5156  -21.0851    0.0000 C   0  0  0  0  0  0  0  0  0  0  0  0
    0.7808  -19.9703    0.0000 C   0  0  0  0  0  0  0  0  0  0  0  0
    2.0292  -20.4420    0.0000 C   0  0  0  0  0  0  0  0  0  0  0  0
    0.7432  -20.7928    0.0000 N   0  0  0  0  0  0  0  0  0  0  0  0
    1.5699  -19.7573    0.0000 S   0  0  0  0  0  0  0  0  0  0  0  0
    6.0917  -19.8909    0.0000 S   0  0  0  0  0  0  0  0  0  0  0  0
    1.8162  -21.8491    0.0000 C   0  0  0  0  0  0  0  0  0  0  0  0
    2.8476  -20.5673    0.0000 C   0  0  0  0  0  0  0  0  0  0  0  0
    5.3861  -20.3210    0.0000 O   0  0  0  0  0  0  0  0  0  0  0  0
    6.8015  -19.4567    0.0000 O   0  0  0  0  0  0  0  0  0  0  0  0
    0.1295  -19.4525    0.0000 O   0  0  0  0  0  0  0  0  0  0  0  0
    2.6346  -21.9744    0.0000 C   0  0  0  0  0  0  0  0  0  0  0  0
    3.1482  -21.3356    0.0000 C   0  0  0  0  0  0  0  0  0  0  0  0
    5.6659  -19.1811    0.0000 C   0  0  0  0  0  0  0  0  0  0  0  0
    6.5176  -20.5966    0.0000 C   0  0  0  0  0  0  0  0  0  0  0  0
    3.5824  -18.5047    0.0000 N   0  0  0  0  0  0  0  0  0  0  0  0
    1.2944  -22.5005    0.0000 O   0  0  0  0  0  0  0  0  0  0  0  0
    4.8349  -19.1937    0.0000 C   0  0  0  0  0  0  0  0  0  0  0  0
    7.3443  -20.5798    0.0000 C   0  0  0  0  0  0  0  0  0  0  0  0
   10.2753  -22.6633    0.0000 C   0  0  0  0  0  0  0  0  0  0  0  0
    8.5969  -21.2687    0.0000 O   0  0  0  0  0  0  0  0  0  0  0  0
    4.4007  -18.4880    0.0000 C   0  0  0  0  0  0  0  0  0  0  0  0
    3.3694  -19.9202    0.0000 C   0  0  0  0  0  0  0  0  0  0  0  0
    7.7702  -21.2855    0.0000 C   0  0  0  0  0  0  0  0  0  0  0  0
    3.0688  -19.1436    0.0000 C   0  0  0  0  0  0  0  0  0  0  0  0
    9.8578  -21.9576    0.0000 C   0  0  0  0  0  0  0  0  0  0  0  0
    9.0311  -21.9744    0.0000 C   0  0  0  0  0  0  0  0  0  0  0  0
    9.8745  -23.3773    0.0000 C   0  0  0  0  0  0  0  0  0  0  0  0
   11.0978  -22.6466    0.0000 C   0  0  0  0  0  0  0  0  0  0  0  0
   11.5237  -23.3480    0.0000 C   0  0  0  0  0  0  0  0  0  0  0  0
   10.3004  -24.0787    0.0000 C   0  0  0  0  0  0  0  0  0  0  0  0
   11.1271  -24.0662    0.0000 C   0  0  0  0  0  0  0  0  0  0  0  0
  2  4  1  0
  3  1  2  0
  4  1  1  0
  5  3  1  0
  6 14  1  0
  7  1  1  0
  8  3  1  0
  9  6  2  0
 10  6  2  0
 11  2  2  0
 12  7  2  0
 13 12  1  0
 14 18  1  0
 15  6  1  0
 16 25  1  0
 17  7  1  0
 18 22  1  0
 19 15  1  0
 20 26  1  0
 21 24  1  0
 22 16  1  0
 23  8  1  0
 24 19  1  0
 25 23  1  0
 26 27  1  0
 27 21  1  0
 28 20  2  0
 29 20  1  0
 30 29  2  0
 31 28  1  0
 32 30  1  0
  5  2  1  0
 13  8  2  0
 31 32  2  0
M  END
>  <Classification>  (95) 
0

>  <pchembl>  (95) 
4.49

>  <InChI_steorem>  (95) 
InChI=1S/C23H30N2O5S2/c26-20-9-8-19(22-21(20)25-23(27)31-22)10-13-24-12-4-16-32(28,29)17-5-14-30-15-11-18-6-2-1-3-7-18/h1-3,6-9,24,26H,4-5,10-17H2,(H,25,27)

>  <source>  (95) 
ChEMBL25

>  <source_id>  (95) 
25

>  <optional_reference>  (95) 
10.1124/dmd.112.047068

>  <optional_origin>  (95) 
None

>  <target>  (95) 
BSEP

$$$$

     RDKit          2D

 36 39  0  0  0  0  0  0  0  0999 V2000
    2.9361  -14.1083    0.0000 C   0  0  0  0  0  0  0  0  0  0  0  0
    2.9349  -14.9357    0.0000 C   0  0  0  0  0  0  0  0  0  0  0  0
    3.6497  -15.3485    0.0000 C   0  0  0  0  0  0  0  0  0  0  0  0
    3.6479  -13.6955    0.0000 C   0  0  0  0  0  0  0  0  0  0  0  0
    4.3633  -14.1047    0.0000 C   0  0  0  0  0  0  0  0  0  0  0  0
    4.3621  -14.9331    0.0000 C   0  0  0  0  0  0  0  0  0  0  0  0
    5.0751  -15.3461    0.0000 C   0  0  0  0  0  0  0  0  0  0  0  0
    5.7938  -14.9352    0.0000 C   0  0  0  0  0  0  0  0  0  0  0  0
    5.7949  -14.1067    0.0000 C   0  0  0  0  0  0  0  0  0  0  0  0
    5.0774  -13.6891    0.0000 C   0  0  0  0  0  0  0  0  0  0  0  0
    5.0774  -12.8641    0.0000 C   0  0  0  0  0  0  0  0  0  0  0  0
    6.5104  -13.6959    0.0000 C   0  0  0  0  0  0  0  0  0  0  0  0
    6.9167  -14.4083    0.0000 C   0  0  0  0  0  0  0  0  0  0  0  0
    7.7417  -14.4127    0.0000 N   0  0  0  0  0  0  0  0  0  0  0  0
    8.3208  -13.8250    0.0000 C   0  0  0  0  0  0  0  0  0  0  0  0
    9.1193  -14.0327    0.0000 C   0  0  0  0  0  0  0  0  0  0  0  0
    9.6983  -13.4451    0.0000 C   0  0  0  0  0  0  0  0  0  0  0  0
   10.4968  -13.6527    0.0000 C   0  0  0  0  0  0  0  0  0  0  0  0
   10.8005  -14.4186    0.0000 N   0  0  0  0  0  0  0  0  0  0  0  0
   11.1365  -13.1268    0.0000 N   0  0  0  0  0  0  0  0  0  0  0  0
   11.8317  -13.5709    0.0000 C   0  0  0  0  0  0  0  0  0  0  0  0
   11.6226  -14.3686    0.0000 C   0  0  0  0  0  0  0  0  0  0  0  0
   12.2082  -14.9465    0.0000 C   0  0  0  0  0  0  0  0  0  0  0  0
   13.0031  -14.7280    0.0000 C   0  0  0  0  0  0  0  0  0  0  0  0
   13.2091  -13.9262    0.0000 C   0  0  0  0  0  0  0  0  0  0  0  0
   12.6220  -13.3518    0.0000 C   0  0  0  0  0  0  0  0  0  0  0  0
    8.0581  -15.1746    0.0000 C   0  0  0  0  0  0  0  0  0  0  0  0
    5.5837  -13.3092    0.0000 O   0  0  0  0  0  0  0  0  0  0  0  0
    6.2958  -12.8917    0.0000 C   0  0  0  0  0  0  0  0  0  0  0  0
    7.0130  -13.2994    0.0000 O   0  0  0  0  0  0  0  0  0  0  0  0
    6.2903  -12.0667    0.0000 C   0  0  0  0  0  0  0  0  0  0  0  0
    7.0020  -11.6494    0.0000 O   0  0  0  0  0  0  0  0  0  0  0  0
    6.9965  -10.8244    0.0000 C   0  0  0  0  0  0  0  0  0  0  0  0
    5.7919  -12.4517    0.0000 C   0  0  0  0  0  0  0  0  0  0  0  0
    4.3630  -12.4516    0.0000 C   0  0  0  0  0  0  0  0  0  0  0  0
    2.2201  -15.3476    0.0000 F   0  0  0  0  0  0  0  0  0  0  0  0
  5 10  1  0
 17 18  1  0
 18 19  1  0
  6  7  1  0
  7  8  1  0
 19 22  1  0
 21 20  1  0
 20 18  2  0
  8  9  1  0
  9 10  1  0
 21 22  2  0
  5  6  1  0
 22 23  1  0
 10 11  1  0
 23 24  2  0
 24 25  1  0
  9 12  1  0
 25 26  2  0
 26 21  1  0
  2  3  1  0
 14 27  1  0
 12 13  1  0
  9 28  1  0
  3  6  2  0
 28 29  1  0
 13 14  1  0
 29 30  2  0
  1  2  2  0
 29 31  1  0
 14 15  1  0
 31 32  1  0
  5  4  2  0
 32 33  1  0
 15 16  1  0
 11 34  1  0
  4  1  1  0
 11 35  1  0
 16 17  1  0
  2 36  1  0
M  END
>  <Classification>  (96) 
0

>  <pchembl>  (96) 
4.6

>  <InChI_steorem>  (96) 
InChI=1S/C29H38FN3O3/c1-20(2)28-23-12-11-22(30)18-21(23)13-14-29(28,36-27(34)19-35-4)15-17-33(3)16-7-10-26-31-24-8-5-6-9-25(24)32-26/h5-6,8-9,11-12,18,20,28H,7,10,13-17,19H2,1-4H3,(H,31,32)

>  <source>  (96) 
ChEMBL25

>  <source_id>  (96) 
25

>  <optional_reference>  (96) 
10.1093/toxsci/kfq269

>  <optional_origin>  (96) 
None

>  <target>  (96) 
BSEP

$$$$

     RDKit          2D

 95 96  0  1  0  0  0  0  0  0999 V2000
    2.7713   -0.4717    0.0000 O   0  0  0  0  0  0  0  0  0  0  0  0
    2.8677   -2.8787    0.0000 C   0  0  0  0  0  0  0  0  0  0  0  0
    2.1554   -0.8269    0.0000 O   0  0  0  0  0  0  0  0  0  0  0  0
    2.1554   -3.2959    0.0000 C   0  0  0  0  0  0  0  0  0  0  0  0
    0.7251   -3.2959    0.0000 C   0  0  0  0  0  0  0  0  0  0  0  0
    1.4412   -2.8787    0.0000 C   0  0  0  0  0  0  0  0  0  0  0  0
    0.7251   -0.8269    0.0000 C   0  0  0  0  0  0  0  0  0  0  0  0
    0.0172   -2.8787    0.0000 O   0  0  0  0  0  0  0  0  0  0  0  0
   -2.1293   -0.8269    0.0000 C   0  0  0  0  0  0  0  0  0  0  0  0
   -1.4216    0.4179    0.0000 C   0  0  0  0  0  0  0  0  0  0  0  0
   -1.4216   -0.4173    0.0000 C   0  0  0  0  0  0  0  0  0  0  0  0
   -0.7081   -0.8269    0.0000 C   0  0  0  0  0  0  0  0  0  0  0  0
   -2.1293   -1.6453    0.0000 C   0  0  0  0  0  0  0  0  0  0  0  0
   -0.7070   -4.4762    0.0000 O   0  0  0  0  0  0  0  0  0  0  0  0
   -2.0924   -3.6075    0.0000 C   0  0  0  0  0  0  0  0  0  0  0  0
   -3.5075   -3.5718    0.0000 C   0  0  0  0  0  0  0  0  0  0  0  0
   -2.8164   -3.9999    0.0000 C   0  0  0  0  0  0  0  0  0  0  0  0
   -2.8303   -4.8220    0.0000 C   0  0  0  0  0  0  0  0  0  0  0  0
   -2.8415   -6.4881    0.0000 C   0  0  0  0  0  0  0  0  0  0  0  0
   -1.4216   -7.3069    0.0000 O   0  0  0  0  0  0  0  0  0  0  0  0
   -0.7081   -5.2508    0.0000 C   0  0  0  0  0  0  0  0  0  0  0  0
    0.7251   -5.2508    0.0000 O   0  0  0  0  0  0  0  0  0  0  0  0
    1.4412   -7.3069    0.0000 C   0  0  0  0  0  0  0  0  0  0  0  0
    2.8677   -7.3069    0.0000 O   0  0  0  0  0  0  0  0  0  0  0  0
    2.1554   -5.2508    0.0000 C   0  0  0  0  0  0  0  0  0  0  0  0
    2.8677   -4.0145    0.0000 C   0  0  0  0  0  0  0  0  0  0  0  0
    2.8677   -4.8412    0.0000 C   0  0  0  0  0  0  0  0  0  0  0  0
    3.5842   -5.2508    0.0000 C   0  0  0  0  0  0  0  0  0  0  0  0
    4.2932   -7.3069    0.0000 C   0  0  0  0  0  0  0  0  0  0  0  0
    5.0057   -5.2508    0.0000 O   0  0  0  0  0  0  0  0  0  0  0  0
    6.4344   -7.7287    0.0000 C   0  0  0  0  0  0  0  0  0  0  0  0
    5.0057   -7.7287    0.0000 C   0  0  0  0  0  0  0  0  0  0  0  0
    5.7225   -7.3069    0.0000 C   0  0  0  0  0  0  0  0  0  0  0  0
    7.1518   -7.3069    0.0000 O   0  0  0  0  0  0  0  0  0  0  0  0
    8.6912   -4.5873    0.0000 C   0  0  0  0  0  0  0  0  0  0  0  0
    8.5772   -2.8787    0.0000 O   0  0  0  0  0  0  0  0  0  0  0  0
    7.8922   -2.4420    0.0000 C   0  0  0  0  0  0  0  0  0  0  0  0
    7.8602   -1.6453    0.0000 C   0  0  0  0  0  0  0  0  0  0  0  0
    6.4344   -0.8269    0.0000 O   0  0  0  0  0  0  0  0  0  0  0  0
    4.2932   -2.8787    0.0000 O   0  0  0  0  0  0  0  0  0  0  0  0
    4.2932   -2.0594    0.0000 C   0  0  0  0  0  0  0  0  0  0  0  0
    6.4344   -3.2959    0.0000 C   0  0  0  0  0  0  0  0  0  0  0  0
    5.7225   -2.8787    0.0000 C   0  0  0  0  0  0  0  0  0  0  0  0
    5.7225   -2.0594    0.0000 C   0  0  0  0  0  0  0  0  0  0  0  0
    6.4344   -1.6453    0.0000 C   0  0  0  0  0  0  0  0  0  0  0  0
    7.1518   -2.0594    0.0000 N   0  0  0  0  0  0  0  0  0  0  0  0
    7.1518   -2.8787    0.0000 C   0  0  0  0  0  0  0  0  0  0  0  0
    7.8602   -3.2959    0.0000 C   0  0  0  0  0  0  0  0  0  0  0  0
    7.8602   -4.5873    0.0000 N   0  0  0  0  0  0  0  0  0  0  0  0
    8.5762   -7.3445    0.0000 C   0  0  0  0  0  0  0  0  0  0  0  0
    8.5772   -6.4881    0.0000 C   0  0  0  0  0  0  0  0  0  0  0  0
    7.8602   -6.0785    0.0000 C   0  0  0  0  0  0  0  0  0  0  0  0
    7.1518   -6.4881    0.0000 C   0  0  0  0  0  0  0  0  0  0  0  0
    6.4344   -6.0785    0.0000 N   0  0  0  0  0  0  0  0  0  0  0  0
    5.7225   -6.4881    0.0000 C   0  0  0  0  0  0  0  0  0  0  0  0
    5.0057   -6.0785    0.0000 C   0  0  0  0  0  0  0  0  0  0  0  0
    4.2932   -6.4881    0.0000 N   0  0  0  0  0  0  0  0  0  0  0  0
    3.5842   -6.0785    0.0000 C   0  0  0  0  0  0  0  0  0  0  0  0
    2.8677   -6.4881    0.0000 C   0  0  0  0  0  0  0  0  0  0  0  0
    2.1554   -6.0785    0.0000 N   0  0  0  0  0  0  0  0  0  0  0  0
    1.4412   -6.4881    0.0000 C   0  0  0  0  0  0  0  0  0  0  0  0
    0.7251   -6.0785    0.0000 C   0  0  0  0  0  0  0  0  0  0  0  0
    0.0172   -6.4881    0.0000 N   0  0  0  0  0  0  0  0  0  0  0  0
   -0.7081   -6.0785    0.0000 C   0  0  0  0  0  0  0  0  0  0  0  0
   -1.4216   -6.4881    0.0000 C   0  0  0  0  0  0  0  0  0  0  0  0
   -2.1293   -6.0785    0.0000 N   0  0  0  0  0  0  0  0  0  0  0  0
   -2.1293   -5.2508    0.0000 C   0  0  0  0  0  0  0  0  0  0  0  0
   -1.4216   -4.8901    0.0000 C   0  0  0  0  0  0  0  0  0  0  0  0
   -1.4216   -2.0594    0.0000 N   0  0  0  0  0  0  0  0  0  0  0  0
   -0.7081   -1.6453    0.0000 C   0  0  0  0  0  0  0  0  0  0  0  0
    0.0172   -2.0594    0.0000 C   0  0  0  0  0  0  0  0  0  0  0  0
    0.7251   -1.6453    0.0000 N   0  0  0  0  0  0  0  0  0  0  0  0
    1.4412   -2.0594    0.0000 C   0  0  0  0  0  0  0  0  0  0  0  0
    2.1554   -1.6453    0.0000 C   0  0  0  0  0  0  0  0  0  0  0  0
    2.8677   -2.0594    0.0000 N   0  0  0  0  0  0  0  0  0  0  0  0
    3.5842   -1.6453    0.0000 C   0  0  0  0  0  0  0  0  0  0  0  0
    5.0057   -0.8269    0.0000 C   0  0  0  0  0  0  0  0  0  0  0  0
    2.8677    2.0694    0.0000 C   0  0  0  0  0  0  0  0  0  0  0  0
    3.5842    1.6556    0.0000 C   0  0  0  0  0  0  0  0  0  0  0  0
    3.5842    0.8400    0.0000 C   0  0  0  0  0  0  0  0  0  0  0  0
    4.2932    0.4178    0.0000 C   0  0  0  0  0  0  0  0  0  0  0  0
    4.2932   -0.4173    0.0000 C   0  0  0  0  0  0  0  0  0  0  0  0
    3.5842   -0.8269    0.0000 C   0  0  0  0  0  0  0  0  0  0  0  0
    5.0057   -1.6458    0.0000 N   0  0  0  0  0  0  0  0  0  0  0  0
    9.2890   -6.0867    0.0000 C   0  0  0  0  0  0  0  0  0  0  0  0
   10.7730   -6.0798    0.0000 C   0  0  0  0  0  0  0  0  0  0  0  0
   10.0281   -6.5111    0.0000 N   0  0  0  0  0  0  0  0  0  0  0  0
   10.0292   -7.3672    0.0000 C   0  0  0  0  0  0  0  0  0  0  0  0
   10.7735   -7.7984    0.0000 C   0  0  0  0  0  0  0  0  0  0  0  0
   11.5185   -7.3670    0.0000 N   0  0  0  0  0  0  0  0  0  0  0  0
   11.5191   -6.5045    0.0000 C   0  0  0  0  0  0  0  0  0  0  0  0
   12.2616   -7.7959    0.0000 C   0  0  0  0  0  0  0  0  0  0  0  0
   12.2618   -8.6539    0.0000 C   0  0  0  0  0  0  0  0  0  0  0  0
   13.0050   -9.0827    0.0000 O   0  0  0  0  0  0  0  0  0  0  0  0
   13.0052   -9.9407    0.0000 C   0  0  0  0  0  0  0  0  0  0  0  0
 83 82  1  0
 76 83  1  0
 83  1  1  0
 82 81  1  0
 82 77  1  0
 81 80  1  0
 80 79  2  3
 79 78  1  0
 76 75  1  0
 76 41  1  0
 74 75  1  0
 75  2  1  0
 73 74  1  0
 74  3  2  0
 72 73  1  0
 73  6  1  0
 71 72  1  0
 72  7  1  0
 70 71  1  0
 71  8  2  0
 69 70  1  0
 70 12  1  0
 69 68  1  0
 69 13  1  0
 67 68  1  0
 68 14  2  0
 66 67  1  0
 67 18  1  0
 65 66  1  0
 66 19  1  0
 64 65  1  0
 65 20  2  0
 63 64  1  0
 64 21  1  0
 62 63  1  0
 61 62  1  0
 62 22  2  0
 60 61  1  0
 61 23  1  0
 59 60  1  0
 58 59  1  0
 59 24  2  0
 57 58  1  0
 58 28  1  0
 56 57  1  0
 57 29  1  0
 55 56  1  0
 56 30  2  0
 54 55  1  0
 55 33  1  0
 53 54  1  0
 53 52  1  0
 53 34  2  0
 52 51  1  0
 52 49  1  0
 51 85  1  0
 51 50  1  0
 48 49  1  0
 49 35  1  0
 47 48  1  0
 48 36  2  0
 46 47  1  0
 47 37  1  0
 45 46  1  0
 46 38  1  0
 44 45  1  0
 45 39  2  0
 44 43  1  0
 84 44  1  0
 43 42  1  0
 41 40  2  0
 41 84  1  0
 33 32  1  0
 33 31  1  0
 28 27  1  0
 27 26  1  0
 27 25  1  0
 18 17  1  0
 17 16  1  0
 17 15  1  0
 12 11  1  0
 11 10  1  0
 11  9  1  0
  6  5  1  0
  6  4  1  0
 87 85  1  0
 86 87  1  0
 86 91  1  0
 87 88  1  0
 88 89  1  0
 89 90  1  0
 90 91  1  0
 90 92  1  0
 92 93  1  0
 93 94  1  0
 94 95  1  0
M  STY  1   1 SUP
M  SLB  1   1   1
M  SAL   1  1  84
M  SBL   1  2  69  72
M  SMT   1 N
M  END
>  <Classification>  (97) 
1

>  <pchembl>  (97) 
5.8

>  <InChI_steorem>  (97) 
InChI=1S/C69H125N13O13/c1-26-28-29-45(13)58(83)57-62(87)72-50(27-2)65(90)74(18)49(17)64(89)79(23)56(46(14)39-82-32-30-81(31-33-82)34-35-95-25)61(86)73-54(43(9)10)68(93)75(19)51(36-40(3)4)60(85)70-47(15)59(84)71-48(16)63(88)76(20)52(37-41(5)6)66(91)77(21)53(38-42(7)8)67(92)78(22)55(44(11)12)69(94)80(57)24/h26,28,40-58,83H,27,29-39H2,1-25H3,(H,70,85)(H,71,84)(H,72,87)(H,73,86)

>  <source>  (97) 
ChEMBL25

>  <source_id>  (97) 
25

>  <optional_reference>  (97) 
10.1021/jm500862r

>  <optional_origin>  (97) 
None

>  <target>  (97) 
BSEP

$$$$

     RDKit          2D

 32 35  0  0  0  0  0  0  0  0999 V2000
    6.9398    3.1163    0.0000 Cl  0  0  0  0  0  0  0  0  0  0  0  0
   -1.3064    0.8243    0.0000 F   0  0  0  0  0  0  0  0  0  0  0  0
    2.3184    3.6427    0.0000 O   0  0  0  0  0  0  0  0  0  0  0  0
   -1.3258    2.2823    0.0000 O   0  0  0  0  0  0  0  0  0  0  0  0
    4.5928    4.4535    0.0000 O   0  0  0  0  0  0  0  0  0  0  0  0
    3.9240    5.3499    0.0000 O   0  0  0  0  0  0  0  0  0  0  0  0
   -5.2209   -2.4390    0.0000 O   0  0  0  0  0  0  0  0  0  0  0  0
    2.0440    0.3467    0.0000 C   0  0  0  0  0  0  0  0  0  0  0  0
    2.0440    1.7885    0.0000 C   0  0  0  0  0  0  0  0  0  0  0  0
    0.8030   -0.3650    0.0000 C   0  0  0  0  0  0  0  0  0  0  0  0
   -0.4380    0.3285    0.0000 C   0  0  0  0  0  0  0  0  0  0  0  0
    3.3032    2.5367    0.0000 C   0  0  0  0  0  0  0  0  0  0  0  0
   -0.4562    1.7885    0.0000 C   0  0  0  0  0  0  0  0  0  0  0  0
    4.5625    1.8067    0.0000 C   0  0  0  0  0  0  0  0  0  0  0  0
   -1.6790   -0.3832    0.0000 C   0  0  0  0  0  0  0  0  0  0  0  0
    0.8030    2.5185    0.0000 C   0  0  0  0  0  0  0  0  0  0  0  0
    4.5625    0.3285    0.0000 C   0  0  0  0  0  0  0  0  0  0  0  0
    0.8212   -1.8067    0.0000 C   0  0  0  0  0  0  0  0  0  0  0  0
    4.5995    3.2535    0.0000 C   0  0  0  0  0  0  0  0  0  0  0  0
   -1.6790   -1.8250    0.0000 C   0  0  0  0  0  0  0  0  0  0  0  0
    2.0418    2.7885    0.0000 C   0  0  0  0  0  0  0  0  0  0  0  0
   -0.4197   -2.5550    0.0000 C   0  0  0  0  0  0  0  0  0  0  0  0
   -2.9565    0.3102    0.0000 C   0  0  0  0  0  0  0  0  0  0  0  0
    5.4289    2.3060    0.0000 C   0  0  0  0  0  0  0  0  0  0  0  0
   -2.5391   -0.8933    0.0000 C   0  0  0  0  0  0  0  0  0  0  0  0
   -2.9382   -2.5732    0.0000 C   0  0  0  0  0  0  0  0  0  0  0  0
    2.7550    5.0786    0.0000 C   0  0  0  0  0  0  0  0  0  0  0  0
    5.9037    2.5108    0.0000 C   0  0  0  0  0  0  0  0  0  0  0  0
   -4.1792   -0.4015    0.0000 C   0  0  0  0  0  0  0  0  0  0  0  0
   -4.1792   -1.8432    0.0000 C   0  0  0  0  0  0  0  0  0  0  0  0
    1.7305    6.1754    0.0000 C   0  0  0  0  0  0  0  0  0  0  0  0
    2.0215    7.1321    0.0000 C   0  0  0  0  0  0  0  0  0  0  0  0
  1 28  1  0
 11  2  1  0
 12  3  1  0
  3 27  1  0
 13  4  1  0
 19  5  2  0
 27  6  2  0
 30  7  2  0
  9  8  1  0
  8 10  1  0
  8 17  1  0
  9 12  1  0
 16  9  1  0
  9 21  1  0
 11 10  1  0
 10 18  1  0
 11 13  1  0
 15 11  1  0
 12 14  1  0
 19 12  1  0
 13 16  1  0
 14 17  1  0
 14 24  1  0
 15 20  1  0
 23 15  1  0
 15 25  1  0
 18 22  1  0
 28 19  1  0
 22 20  1  0
 20 26  2  0
 29 23  2  0
 26 30  1  0
 27 31  1  0
 30 29  1  0
 31 32  1  0
M  END
>  <Classification>  (98) 
1

>  <pchembl>  (98) 
5.07

>  <InChI_steorem>  (98) 
InChI=1S/C25H32ClFO5/c1-5-21(31)32-25(20(30)13-26)14(2)10-18-17-7-6-15-11-16(28)8-9-22(15,3)24(17,27)19(29)12-23(18,25)4/h8-9,11,14,17-19,29H,5-7,10,12-13H2,1-4H3

>  <source>  (98) 
ChEMBL25

>  <source_id>  (98) 
25

>  <optional_reference>  (98) 
10.1124/dmd.111.040758

>  <optional_origin>  (98) 
None

>  <target>  (98) 
BSEP

$$$$

     RDKit          2D

 32 36  0  0  0  0  0  0  0  0999 V2000
    2.2475    3.1071    0.0000 O   0  0  0  0  0  0  0  0  0  0  0  0
   -5.2209   -2.4390    0.0000 O   0  0  0  0  0  0  0  0  0  0  0  0
   -5.6882    4.7286    0.0000 N   0  0  0  0  0  0  0  0  0  0  0  0
    2.0440    0.3467    0.0000 C   0  0  0  0  0  0  0  0  0  0  0  0
    2.0440    1.7885    0.0000 C   0  0  0  0  0  0  0  0  0  0  0  0
    0.8030   -0.3650    0.0000 C   0  0  0  0  0  0  0  0  0  0  0  0
   -0.4380    0.3285    0.0000 C   0  0  0  0  0  0  0  0  0  0  0  0
   -0.4562    1.7885    0.0000 C   0  0  0  0  0  0  0  0  0  0  0  0
    3.3032    2.5367    0.0000 C   0  0  0  0  0  0  0  0  0  0  0  0
    0.8030    2.5185    0.0000 C   0  0  0  0  0  0  0  0  0  0  0  0
    4.5625    0.3285    0.0000 C   0  0  0  0  0  0  0  0  0  0  0  0
   -1.6790   -0.3832    0.0000 C   0  0  0  0  0  0  0  0  0  0  0  0
    4.5625    1.8067    0.0000 C   0  0  0  0  0  0  0  0  0  0  0  0
    0.8212   -1.8067    0.0000 C   0  0  0  0  0  0  0  0  0  0  0  0
   -1.7613    2.5296    0.0000 C   0  0  0  0  0  0  0  0  0  0  0  0
    1.0061    1.1862    0.0000 C   0  0  0  0  0  0  0  0  0  0  0  0
   -1.6790   -1.8250    0.0000 C   0  0  0  0  0  0  0  0  0  0  0  0
    4.5984    3.2544    0.0000 C   0  0  0  0  0  0  0  0  0  0  0  0
   -0.4197   -2.5550    0.0000 C   0  0  0  0  0  0  0  0  0  0  0  0
   -2.9565    0.3102    0.0000 C   0  0  0  0  0  0  0  0  0  0  0  0
   -1.7799    4.0293    0.0000 C   0  0  0  0  0  0  0  0  0  0  0  0
   -3.0509    1.7633    0.0000 C   0  0  0  0  0  0  0  0  0  0  0  0
   -2.9382   -2.5732    0.0000 C   0  0  0  0  0  0  0  0  0  0  0  0
    5.8934    4.0130    0.0000 C   0  0  0  0  0  0  0  0  0  0  0  0
   -4.1792   -0.4015    0.0000 C   0  0  0  0  0  0  0  0  0  0  0  0
   -4.1792   -1.8432    0.0000 C   0  0  0  0  0  0  0  0  0  0  0  0
   -3.0881    4.7631    0.0000 C   0  0  0  0  0  0  0  0  0  0  0  0
   -4.3592    2.4971    0.0000 C   0  0  0  0  0  0  0  0  0  0  0  0
   -4.3778    3.9970    0.0000 C   0  0  0  0  0  0  0  0  0  0  0  0
    6.9288    4.6196    0.0000 C   0  0  0  0  0  0  0  0  0  0  0  0
   -6.7191    4.1143    0.0000 C   0  0  0  0  0  0  0  0  0  0  0  0
   -5.7052    5.9285    0.0000 C   0  0  0  0  0  0  0  0  0  0  0  0
  9  1  1  0
 26  2  2  0
 29  3  1  0
  3 31  1  0
  3 32  1  0
  5  4  1  0
  4  6  1  0
  4 11  1  0
  5  9  1  0
 10  5  1  0
  5 16  1  0
  7  6  1  0
  6 14  1  0
  7  8  1  0
 12  7  2  0
  8 10  1  0
  8 15  1  0
  9 13  1  0
  9 18  1  0
 13 11  1  0
 12 17  1  0
 20 12  1  0
 14 19  1  0
 21 15  2  0
 15 22  1  0
 19 17  1  0
 17 23  2  0
 18 24  3  0
 25 20  1  0
 27 21  1  0
 22 28  2  0
 23 26  1  0
 24 30  1  0
 26 25  1  0
 29 27  2  0
 28 29  1  0
M  END
>  <Classification>  (99) 
1

>  <pchembl>  (99) 
5.7

>  <InChI_steorem>  (99) 
InChI=1S/C29H35NO2/c1-5-15-29(32)16-14-26-24-12-8-20-17-22(31)11-13-23(20)27(24)25(18-28(26,29)2)19-6-9-21(10-7-19)30(3)4/h6-7,9-10,17,24-26,32H,8,11-14,16,18H2,1-4H3

>  <source>  (99) 
ChEMBL25

>  <source_id>  (99) 
25

>  <optional_reference>  (99) 
10.1093/toxsci/kft176

>  <optional_origin>  (99) 
None

>  <target>  (99) 
BSEP

$$$$

     RDKit          2D

 46 49  0  0  0  0  0  0  0  0999 V2000
    4.1470   -8.1099    0.0000 O   0  0  0  0  0  0  0  0  0  0  0  0
    1.2941   -4.0516    0.0000 O   0  0  0  0  0  0  0  0  0  0  0  0
   -2.6158   -7.1901    0.0000 O   0  0  0  0  0  0  0  0  0  0  0  0
    9.0826   -9.4710    0.0000 O   0  0  0  0  0  0  0  0  0  0  0  0
   11.6854   -8.2771    0.0000 O   0  0  0  0  0  0  0  0  0  0  0  0
   -1.3088   -5.2455    0.0000 N   0  0  0  0  0  0  0  0  0  0  0  0
    2.5894   -6.0047    0.0000 N   0  0  0  0  0  0  0  0  0  0  0  0
    7.7872   -7.5179    0.0000 N   0  0  0  0  0  0  0  0  0  0  0  0
   -3.9068   -5.2348    0.0000 N   0  0  0  0  0  0  0  0  0  0  0  0
    5.1873   -7.5117    0.0000 C   0  0  0  0  0  0  0  0  0  0  0  0
   -0.0105   -5.9986    0.0000 C   0  0  0  0  0  0  0  0  0  0  0  0
    6.4855   -8.2648    0.0000 C   0  0  0  0  0  0  0  0  0  0  0  0
    3.8912   -5.2578    0.0000 C   0  0  0  0  0  0  0  0  0  0  0  0
    1.2912   -5.2516    0.0000 C   0  0  0  0  0  0  0  0  0  0  0  0
    5.1894   -6.0109    0.0000 C   0  0  0  0  0  0  0  0  0  0  0  0
   -0.0172   -7.4994    0.0000 C   0  0  0  0  0  0  0  0  0  0  0  0
    6.4788   -9.7656    0.0000 C   0  0  0  0  0  0  0  0  0  0  0  0
    3.8978   -3.7570    0.0000 C   0  0  0  0  0  0  0  0  0  0  0  0
   -2.6109   -5.9901    0.0000 C   0  0  0  0  0  0  0  0  0  0  0  0
   -1.3026   -3.7455    0.0000 C   0  0  0  0  0  0  0  0  0  0  0  0
    5.1762  -10.5111    0.0000 C   0  0  0  0  0  0  0  0  0  0  0  0
    5.2004   -3.0115    0.0000 C   0  0  0  0  0  0  0  0  0  0  0  0
    9.0854   -8.2710    0.0000 C   0  0  0  0  0  0  0  0  0  0  0  0
   -2.5985   -2.9901    0.0000 C   0  0  0  0  0  0  0  0  0  0  0  0
   -1.0587   -8.0954    0.0000 C   0  0  0  0  0  0  0  0  0  0  0  0
    1.0196   -8.1036    0.0000 C   0  0  0  0  0  0  0  0  0  0  0  0
   -3.9006   -3.7348    0.0000 C   0  0  0  0  0  0  0  0  0  0  0  0
    5.1674  -12.0111    0.0000 C   0  0  0  0  0  0  0  0  0  0  0  0
    3.8815   -9.7536    0.0000 C   0  0  0  0  0  0  0  0  0  0  0  0
   10.3872   -7.5241    0.0000 C   0  0  0  0  0  0  0  0  0  0  0  0
    5.2093   -1.5115    0.0000 C   0  0  0  0  0  0  0  0  0  0  0  0
    6.4952   -3.7691    0.0000 C   0  0  0  0  0  0  0  0  0  0  0  0
   12.9872   -7.5302    0.0000 C   0  0  0  0  0  0  0  0  0  0  0  0
    3.8640  -12.7535    0.0000 C   0  0  0  0  0  0  0  0  0  0  0  0
    2.5781  -10.4960    0.0000 C   0  0  0  0  0  0  0  0  0  0  0  0
    6.5127   -0.7691    0.0000 C   0  0  0  0  0  0  0  0  0  0  0  0
    7.7986   -3.0266    0.0000 C   0  0  0  0  0  0  0  0  0  0  0  0
    2.5694  -11.9959    0.0000 C   0  0  0  0  0  0  0  0  0  0  0  0
   14.2858   -8.2810    0.0000 C   0  0  0  0  0  0  0  0  0  0  0  0
   12.9882   -6.0302    0.0000 C   0  0  0  0  0  0  0  0  0  0  0  0
    7.8073   -1.5267    0.0000 C   0  0  0  0  0  0  0  0  0  0  0  0
   15.5853   -7.5319    0.0000 C   0  0  0  0  0  0  0  0  0  0  0  0
   14.2878   -5.2810    0.0000 C   0  0  0  0  0  0  0  0  0  0  0  0
   15.5863   -6.0319    0.0000 C   0  0  0  0  0  0  0  0  0  0  0  0
   14.2851   -9.4810    0.0000 C   0  0  0  0  0  0  0  0  0  0  0  0
   11.9494   -5.4295    0.0000 C   0  0  0  0  0  0  0  0  0  0  0  0
 10  1  1  0
 14  2  2  0
 19  3  2  0
 23  4  2  0
 30  5  1  0
  5 33  1  0
 11  6  1  0
 19  6  1  0
  6 20  1  0
 13  7  1  0
  7 14  1  0
 12  8  1  0
  8 23  1  0
  9 19  1  0
 27  9  1  0
 10 12  1  0
 10 15  1  0
 14 11  1  0
 11 16  1  0
 12 17  1  0
 15 13  1  0
 13 18  1  0
 16 25  1  0
 16 26  1  0
 17 21  1  0
 18 22  1  0
 20 24  1  0
 28 21  2  0
 21 29  1  0
 31 22  2  0
 22 32  1  0
 23 30  1  0
 24 27  1  0
 34 28  1  0
 29 35  2  0
 36 31  1  0
 32 37  2  0
 39 33  2  0
 33 40  1  0
 38 34  2  0
 35 38  1  0
 41 36  2  0
 37 41  1  0
 42 39  1  0
 39 45  1  0
 40 43  2  0
 40 46  1  0
 44 42  2  0
 43 44  1  0
M  END
>  <Classification>  (100) 
0

>  <pchembl>  (100) 
4.76

>  <InChI_steorem>  (100) 
InChI=1S/C37H48N4O5/c1-25(2)34(41-20-12-19-38-37(41)45)36(44)39-30(21-28-15-7-5-8-16-28)23-32(42)31(22-29-17-9-6-10-18-29)40-33(43)24-46-35-26(3)13-11-14-27(35)4/h5-11,13-18,25,30-32,34,42H,12,19-24H2,1-4H3,(H,38,45)(H,39,44)(H,40,43)

>  <source>  (100) 
ChEMBL25

>  <source_id>  (100) 
25

>  <optional_reference>  (100) 
10.1093/toxsci/kfq269

>  <optional_origin>  (100) 
None

>  <target>  (100) 
BSEP

$$$$

     RDKit          2D

 55 57  0  0  0  0  0  0  0  0999 V2000
    4.7272   -7.6908    0.0000 C   0  0  0  0  0  0  0  0  0  0  0  0
    2.0891   -6.4131    0.0000 C   0  0  0  0  0  0  0  0  0  0  0  0
    0.6608   -6.4180    0.0000 C   0  0  0  0  0  0  0  0  0  0  0  0
   -0.0534   -4.3629    0.0000 C   0  0  0  0  0  0  0  0  0  0  0  0
    1.3750   -6.8261    0.0000 C   0  0  0  0  0  0  0  0  0  0  0  0
    4.3191   -8.4002    0.0000 C   0  0  0  0  0  0  0  0  0  0  0  0
    2.8033   -5.1791    0.0000 C   0  0  0  0  0  0  0  0  0  0  0  0
    2.0891   -5.5872    0.0000 C   0  0  0  0  0  0  0  0  0  0  0  0
    0.6608   -3.1386    0.0000 C   0  0  0  0  0  0  0  0  0  0  0  0
    0.6608   -5.5969    0.0000 O   0  0  0  0  0  0  0  0  0  0  0  0
    0.6608   -3.9548    0.0000 C   0  0  0  0  0  0  0  0  0  0  0  0
    1.3750   -2.7255    0.0000 C   0  0  0  0  0  0  0  0  0  0  0  0
    4.7223   -6.5929    0.0000 O   0  0  0  0  0  0  0  0  0  0  0  0
    0.4713  -10.0034    0.0000 C   0  0  0  0  0  0  0  0  0  0  0  0
    3.4884   -8.4002    0.0000 C   0  0  0  0  0  0  0  0  0  0  0  0
    2.8033   -4.3629    0.0000 C   0  0  0  0  0  0  0  0  0  0  0  0
    1.7053   -9.2940    0.0000 C   0  0  0  0  0  0  0  0  0  0  0  0
    1.2972  -10.0034    0.0000 C   0  0  0  0  0  0  0  0  0  0  0  0
    4.3191   -6.9766    0.0000 O   0  0  0  0  0  0  0  0  0  0  0  0
    1.2972   -8.5799    0.0000 O   0  0  0  0  0  0  0  0  0  0  0  0
   -0.0534   -5.1838    0.0000 C   0  0  0  0  0  0  0  0  0  0  0  0
    0.0534   -9.2940    0.0000 C   0  0  0  0  0  0  0  0  0  0  0  0
    2.8033   -6.8212    0.0000 O   0  0  0  0  0  0  0  0  0  0  0  0
    0.4713   -8.5799    0.0000 C   0  0  0  0  0  0  0  0  0  0  0  0
    2.0891   -3.1337    0.0000 C   0  0  0  0  0  0  0  0  0  0  0  0
    2.0891   -3.9548    0.0000 C   0  0  0  0  0  0  0  0  0  0  0  0
    3.0754   -7.6908    0.0000 C   0  0  0  0  0  0  0  0  0  0  0  0
    3.0803   -9.1191    0.0000 N   0  0  0  0  0  0  0  0  0  0  0  0
   -0.0534   -6.8308    0.0000 O   0  0  0  0  0  0  0  0  0  0  0  0
    3.4884   -6.9766    0.0000 C   0  0  0  0  0  0  0  0  0  0  0  0
    1.3701   -1.8997    0.0000 O   0  0  0  0  0  0  0  0  0  0  0  0
   -0.4664   -3.6438    0.0000 O   0  0  0  0  0  0  0  0  0  0  0  0
    4.7272   -9.1191    0.0000 O   0  0  0  0  0  0  0  0  0  0  0  0
    3.2114   -3.6438    0.0000 O   0  0  0  0  0  0  0  0  0  0  0  0
    1.3750   -4.3725    0.0000 O   0  0  0  0  0  0  0  0  0  0  0  0
   -0.2478  -10.4115    0.0000 O   0  0  0  0  0  0  0  0  0  0  0  0
   -0.7725   -9.2940    0.0000 O   0  0  0  0  0  0  0  0  0  0  0  0
   -0.8745   -4.3629    0.0000 C   0  0  0  0  0  0  0  0  0  0  0  0
    1.3797   -7.6519    0.0000 C   0  0  0  0  0  0  0  0  0  0  0  0
    1.3701   -5.1742    0.0000 C   0  0  0  0  0  0  0  0  0  0  0  0
   -0.0534   -2.7255    0.0000 C   0  0  0  0  0  0  0  0  0  0  0  0
    0.4664  -10.8342    0.0000 C   0  0  0  0  0  0  0  0  0  0  0  0
    3.6292   -4.3629    0.0000 C   0  0  0  0  0  0  0  0  0  0  0  0
   -0.7676   -5.6017    0.0000 C   0  0  0  0  0  0  0  0  0  0  0  0
    0.0583   -7.8609    0.0000 C   0  0  0  0  0  0  0  0  0  0  0  0
    2.8033   -2.7159    0.0000 C   0  0  0  0  0  0  0  0  0  0  0  0
    3.4931   -9.8333    0.0000 C   0  0  0  0  0  0  0  0  0  0  0  0
    2.2542   -9.1191    0.0000 C   0  0  0  0  0  0  0  0  0  0  0  0
    3.0803   -6.2576    0.0000 C   0  0  0  0  0  0  0  0  0  0  0  0
   -0.9620   -9.9936    0.0000 C   0  0  0  0  0  0  0  0  0  0  0  0
   -1.4818   -5.1887    0.0000 C   0  0  0  0  0  0  0  0  0  0  0  0
    5.5522   -9.1191    0.0000 C   0  0  0  0  0  0  0  0  0  0  0  0
    5.9647   -9.8336    0.0000 C   0  0  0  0  0  0  0  0  0  0  0  0
    5.9647   -8.4047    0.0000 O   0  0  0  0  0  0  0  0  0  0  0  0
    6.7897   -9.8336    0.0000 C   0  0  0  0  0  0  0  0  0  0  0  0
  2  8  1  0
  3  5  1  0
  4 11  1  0
  5  2  1  0
  6  1  1  0
  7 13  1  0
  8  7  1  0
  9 12  1  0
 10  3  1  0
 11  9  1  0
 12 25  1  0
  1 13  1  0
 14 18  1  0
 15  6  1  0
 16  7  1  0
 17 23  1  0
 18 17  1  0
 19  1  1  0
 20 17  1  0
 21 10  1  0
 22 24  1  0
  2 23  1  0
 24 20  1  0
 25 26  1  0
 26 16  1  0
 27 30  1  0
 15 28  1  0
 29  3  2  0
 30 19  1  0
 31 12  2  0
  4 32  1  0
  6 33  1  0
 16 34  1  0
 11 35  1  0
 14 36  1  0
 22 37  1  0
 38  4  1  0
  5 39  1  0
  8 40  1  0
  9 41  1  0
 14 42  1  0
 43 16  1  0
 21 44  1  0
 24 45  1  0
 25 46  1  0
 47 28  1  0
 48 28  1  0
 30 49  1  0
 50 36  1  0
 51 44  1  0
 27 15  1  0
 21  4  1  0
 22 14  1  0
 33 52  1  0
 52 53  1  0
 52 54  2  0
 53 55  1  0
M  END
>  <Classification>  (101) 
1

>  <pchembl>  (101) 
5.39

>  <InChI_steorem>  (101) 
InChI=1S/C40H71NO14/c1-15-27-40(11,48)33(44)22(5)30(43)20(3)18-38(9,47)35(55-37-32(53-28(42)16-2)26(41(12)13)17-21(4)50-37)23(6)31(24(7)36(46)52-27)54-29-19-39(10,49-14)34(45)25(8)51-29/h20-27,29,31-35,37,44-45,47-48H,15-19H2,1-14H3

>  <source>  (101) 
ChEMBL25

>  <source_id>  (101) 
25

>  <optional_reference>  (101) 
10.1124/dmd.111.040758

>  <optional_origin>  (101) 
None

>  <target>  (101) 
BSEP

$$$$

     RDKit          2D

 13 14  0  0  0  0  0  0  0  0999 V2000
    0.7615   -3.3195    0.0000 S   0  0  0  0  0  0  0  0  0  0  0  0
    2.1905   -2.4945    0.0000 N   0  0  0  0  0  0  0  0  0  0  0  0
    2.9050   -1.2570    0.0000 C   0  0  0  0  0  0  0  0  0  0  0  0
    2.9050   -0.4320    0.0000 C   0  0  0  0  0  0  0  0  0  0  0  0
    2.1905   -1.6695    0.0000 C   0  0  0  0  0  0  0  0  0  0  0  0
    3.6194   -1.6695    0.0000 C   0  0  0  0  0  0  0  0  0  0  0  0
    1.4760   -1.2570    0.0000 C   0  0  0  0  0  0  0  0  0  0  0  0
    2.1905   -0.0195    0.0000 C   0  0  0  0  0  0  0  0  0  0  0  0
    3.6194   -0.0195    0.0000 C   0  0  0  0  0  0  0  0  0  0  0  0
    1.4760   -0.4320    0.0000 C   0  0  0  0  0  0  0  0  0  0  0  0
    4.3339   -1.2570    0.0000 C   0  0  0  0  0  0  0  0  0  0  0  0
    4.3339   -0.4320    0.0000 C   0  0  0  0  0  0  0  0  0  0  0  0
    1.4760   -2.9070    0.0000 C   0  0  0  0  0  0  0  0  0  0  0  0
  1 13  2  0
  2  5  1  0
  2 13  2  0
  3  4  1  0
  3  5  2  0
  3  6  1  0
  4  8  2  0
  4  9  1  0
  5  7  1  0
  6 11  2  0
  7 10  2  0
  8 10  1  0
  9 12  2  0
 11 12  1  0
M  END
>  <Classification>  (102) 
0

>  <pchembl>  (102) 
4.22

>  <InChI_steorem>  (102) 
InChI=1S/C11H7NS/c13-8-12-11-7-3-5-9-4-1-2-6-10(9)11/h1-7H

>  <source>  (102) 
ChEMBL25

>  <source_id>  (102) 
25

>  <optional_reference>  (102) 
10.1093/toxsci/kfq269

>  <optional_origin>  (102) 
None

>  <target>  (102) 
BSEP

$$$$

     RDKit          2D

 18 21  0  0  0  0  0  0  0  0999 V2000
    0.9268    0.6274    0.0000 N   0  0  0  0  0  0  0  0  0  0  0  0
    2.7217   -0.7075    0.0000 N   0  0  0  0  0  0  0  0  0  0  0  0
    0.9268   -0.7075    0.0000 N   0  0  0  0  0  0  0  0  0  0  0  0
    2.7217    0.6274    0.0000 N   0  0  0  0  0  0  0  0  0  0  0  0
    1.4117   -0.0401    0.0000 C   0  0  0  0  0  0  0  0  0  0  0  0
    2.2367   -0.0401    0.0000 C   0  0  0  0  0  0  0  0  0  0  0  0
    0.1422    0.3724    0.0000 C   0  0  0  0  0  0  0  0  0  0  0  0
    3.5063   -0.4526    0.0000 C   0  0  0  0  0  0  0  0  0  0  0  0
    0.1422   -0.4526    0.0000 C   0  0  0  0  0  0  0  0  0  0  0  0
    3.5063    0.3724    0.0000 C   0  0  0  0  0  0  0  0  0  0  0  0
   -0.5723    0.7849    0.0000 C   0  0  0  0  0  0  0  0  0  0  0  0
    4.2207   -0.8651    0.0000 C   0  0  0  0  0  0  0  0  0  0  0  0
   -0.5723   -0.8651    0.0000 C   0  0  0  0  0  0  0  0  0  0  0  0
    4.2207    0.7849    0.0000 C   0  0  0  0  0  0  0  0  0  0  0  0
   -1.2868    0.3724    0.0000 C   0  0  0  0  0  0  0  0  0  0  0  0
    4.9352   -0.4526    0.0000 C   0  0  0  0  0  0  0  0  0  0  0  0
   -1.2868   -0.4526    0.0000 C   0  0  0  0  0  0  0  0  0  0  0  0
    4.9352    0.3724    0.0000 C   0  0  0  0  0  0  0  0  0  0  0  0
  1  5  2  0
  1  7  1  0
  2  6  2  0
  2  8  1  0
  3  5  1  0
  3  9  1  0
  4  6  1  0
  4 10  1  0
  5  6  1  0
  7  9  2  0
  7 11  1  0
  8 10  2  0
  8 12  1  0
  9 13  1  0
 10 14  1  0
 11 15  2  0
 12 16  2  0
 13 17  2  0
 14 18  2  0
 15 17  1  0
 16 18  1  0
M  END
>  <Classification>  (103) 
0

>  <pchembl>  (103) 
4.5

>  <InChI_steorem>  (103) 
InChI=1S/C14H10N4/c1-2-6-10-9(5-1)15-13(16-10)14-17-11-7-3-4-8-12(11)18-14/h1-8H,(H,15,16)(H,17,18)

>  <source>  (103) 
ChEMBL25

>  <source_id>  (103) 
25

>  <optional_reference>  (103) 
10.1124/dmd.112.047068

>  <optional_origin>  (103) 
None

>  <target>  (103) 
BSEP

$$$$

     RDKit          2D

 29 31  0  0  0  0  0  0  0  0999 V2000
    3.5652   -9.8794    0.0000 C   0  0  0  0  0  0  0  0  0  0  0  0
    3.5652  -10.7044    0.0000 C   0  0  0  0  0  0  0  0  0  0  0  0
    4.2797  -11.1169    0.0000 C   0  0  0  0  0  0  0  0  0  0  0  0
    4.9942  -10.7044    0.0000 C   0  0  0  0  0  0  0  0  0  0  0  0
    4.9942   -9.8794    0.0000 C   0  0  0  0  0  0  0  0  0  0  0  0
    4.2797   -9.4669    0.0000 C   0  0  0  0  0  0  0  0  0  0  0  0
    5.7788  -10.9593    0.0000 N   0  0  0  0  0  0  0  0  0  0  0  0
    6.2637  -10.2919    0.0000 C   0  0  0  0  0  0  0  0  0  0  0  0
    5.7788   -9.6244    0.0000 C   0  0  0  0  0  0  0  0  0  0  0  0
    6.0337   -8.8398    0.0000 C   0  0  0  0  0  0  0  0  0  0  0  0
    6.8407   -8.6683    0.0000 C   0  0  0  0  0  0  0  0  0  0  0  0
    7.0887  -10.2919    0.0000 O   0  0  0  0  0  0  0  0  0  0  0  0
    2.8507   -9.4669    0.0000 F   0  0  0  0  0  0  0  0  0  0  0  0
    7.4538   -9.2203    0.0000 N   0  0  0  0  0  0  0  0  0  0  0  0
    8.1683   -8.8078    0.0000 C   0  0  0  0  0  0  0  0  0  0  0  0
    7.9967   -8.0008    0.0000 C   0  0  0  0  0  0  0  0  0  0  0  0
    7.1762   -7.9146    0.0000 C   0  0  0  0  0  0  0  0  0  0  0  0
    8.9219   -9.1434    0.0000 C   0  0  0  0  0  0  0  0  0  0  0  0
    6.7637   -7.2001    0.0000 C   0  0  0  0  0  0  0  0  0  0  0  0
    8.5488   -7.3878    0.0000 C   0  0  0  0  0  0  0  0  0  0  0  0
    9.3557   -7.5593    0.0000 N   0  0  0  0  0  0  0  0  0  0  0  0
    8.2938   -6.6031    0.0000 O   0  0  0  0  0  0  0  0  0  0  0  0
    9.9078   -6.9462    0.0000 C   0  0  0  0  0  0  0  0  0  0  0  0
   10.7147   -7.1177    0.0000 C   0  0  0  0  0  0  0  0  0  0  0  0
   11.2668   -6.5046    0.0000 N   0  0  0  0  0  0  0  0  0  0  0  0
   12.0737   -6.6761    0.0000 C   0  0  0  0  0  0  0  0  0  0  0  0
   11.0118   -5.7200    0.0000 C   0  0  0  0  0  0  0  0  0  0  0  0
   11.5639   -5.1069    0.0000 C   0  0  0  0  0  0  0  0  0  0  0  0
   12.3287   -7.4608    0.0000 C   0  0  0  0  0  0  0  0  0  0  0  0
  1  2  2  0
  2  3  1  0
  3  4  2  0
  4  5  1  0
  5  6  2  0
  6  1  1  0
  4  7  1  0
  7  8  1  0
  8  9  1  0
  9  5  1  0
  9 10  2  3
 10 11  1  0
  8 12  2  0
  1 13  1  0
 11 14  1  0
 14 15  1  0
 15 16  2  0
 16 17  1  0
 17 11  2  0
 15 18  1  0
 17 19  1  0
 16 20  1  0
 20 21  1  0
 20 22  2  0
 21 23  1  0
 23 24  1  0
 24 25  1  0
 25 26  1  0
 25 27  1  0
 27 28  1  0
 26 29  1  0
M  END
>  <Classification>  (104) 
0

>  <pchembl>  (104) 
4.34

>  <InChI_steorem>  (104) 
InChI=1S/C22H27FN4O2/c1-5-27(6-2)10-9-24-22(29)20-13(3)19(25-14(20)4)12-17-16-11-15(23)7-8-18(16)26-21(17)28/h7-8,11-12,25H,5-6,9-10H2,1-4H3,(H,24,29)(H,26,28)

>  <source>  (104) 
ChEMBL25

>  <source_id>  (104) 
25

>  <optional_reference>  (104) 
10.1093/toxsci/kft176

>  <optional_origin>  (104) 
None

>  <target>  (104) 
BSEP

$$$$

     RDKit          2D

 18 19  0  0  0  0  0  0  0  0999 V2000
    6.8667    0.2494    0.0000 C   0  0  0  0  0  0  0  0  0  0  0  0
    8.4903    0.0014    0.0000 O   0  0  0  0  0  0  0  0  0  0  0  0
    8.3188   -0.8055    0.0000 C   0  0  0  0  0  0  0  0  0  0  0  0
    6.8667   -0.5756    0.0000 N   0  0  0  0  0  0  0  0  0  0  0  0
    7.5341   -1.0605    0.0000 C   0  0  0  0  0  0  0  0  0  0  0  0
    7.2792   -1.8451    0.0000 C   0  0  0  0  0  0  0  0  0  0  0  0
    6.4542   -1.8451    0.0000 N   0  0  0  0  0  0  0  0  0  0  0  0
    6.1993   -1.0605    0.0000 C   0  0  0  0  0  0  0  0  0  0  0  0
    6.1522    0.6619    0.0000 C   0  0  0  0  0  0  0  0  0  0  0  0
    5.4378    0.2494    0.0000 C   0  0  0  0  0  0  0  0  0  0  0  0
    4.7233    0.6619    0.0000 C   0  0  0  0  0  0  0  0  0  0  0  0
    4.7233    1.4869    0.0000 C   0  0  0  0  0  0  0  0  0  0  0  0
    5.4378    1.8994    0.0000 C   0  0  0  0  0  0  0  0  0  0  0  0
    6.1522    1.4869    0.0000 C   0  0  0  0  0  0  0  0  0  0  0  0
    8.9319   -1.3576    0.0000 O   0  0  0  0  0  0  0  0  0  0  0  0
    9.2749    0.2564    0.0000 C   0  0  0  0  0  0  0  0  0  0  0  0
    9.4464    1.0633    0.0000 C   0  0  0  0  0  0  0  0  0  0  0  0
    7.5812    0.6619    0.0000 C   0  0  0  0  0  0  0  0  0  0  0  0
  1  9  1  0
  9 10  2  0
  2  3  1  0
 10 11  1  0
  3  5  1  0
 11 12  2  0
  4  5  1  0
 12 13  1  0
  5  6  2  0
 13 14  2  0
 14  9  1  0
  6  7  1  0
  3 15  2  0
  7  8  2  0
  2 16  1  0
  8  4  1  0
 16 17  1  0
  4  1  1  0
  1 18  1  0
M  END
>  <Classification>  (105) 
0

>  <pchembl>  (105) 
4.21

>  <InChI_steorem>  (105) 
InChI=1S/C14H16N2O2/c1-3-18-14(17)13-9-15-10-16(13)11(2)12-7-5-4-6-8-12/h4-11H,3H2,1-2H3

>  <source>  (105) 
ChEMBL25

>  <source_id>  (105) 
25

>  <optional_reference>  (105) 
10.1124/dmd.112.047068

>  <optional_origin>  (105) 
None

>  <target>  (105) 
BSEP

$$$$

     RDKit          2D

 30 32  0  0  0  0  0  0  0  0999 V2000
   -2.2935    3.7700    0.0000 C   0  0  0  0  0  0  0  0  0  0  0  0
   -0.9971    3.0138    0.0000 C   0  0  0  0  0  0  0  0  0  0  0  0
   -2.3155    0.7475    0.0000 C   0  0  0  0  0  0  0  0  0  0  0  0
   -1.0028    1.5132    0.0000 C   0  0  0  0  0  0  0  0  0  0  0  0
   -1.0028   -1.5132    0.0000 C   0  0  0  0  0  0  0  0  0  0  0  0
   -2.3155   -0.7475    0.0000 C   0  0  0  0  0  0  0  0  0  0  0  0
    0.2917   -0.7475    0.0000 C   0  0  0  0  0  0  0  0  0  0  0  0
    0.2917    0.7475    0.0000 C   0  0  0  0  0  0  0  0  0  0  0  0
    1.7138    1.2033    0.0000 C   0  0  0  0  0  0  0  0  0  0  0  0
    2.5889    0.0182    0.0000 C   0  0  0  0  0  0  0  0  0  0  0  0
    1.7138   -1.2033    0.0000 C   0  0  0  0  0  0  0  0  0  0  0  0
    3.1750   -1.4819    0.0000 C   0  0  0  0  0  0  0  0  0  0  0  0
    3.6473   -2.9065    0.0000 C   0  0  0  0  0  0  0  0  0  0  0  0
    5.1170   -3.2107    0.0000 C   0  0  0  0  0  0  0  0  0  0  0  0
    5.5892   -4.6353    0.0000 C   0  0  0  0  0  0  0  0  0  0  0  0
    7.0589   -4.9395    0.0000 C   0  0  0  0  0  0  0  0  0  0  0  0
    7.8568   -4.0433    0.0000 C   0  0  0  0  0  0  0  0  0  0  0  0
    6.6818   -3.8003    0.0000 C   0  0  0  0  0  0  0  0  0  0  0  0
    7.5312   -6.3641    0.0000 O   0  0  0  0  0  0  0  0  0  0  0  0
    3.9729   -0.5856    0.0000 C   0  0  0  0  0  0  0  0  0  0  0  0
    0.4258   -1.9400    0.0000 C   0  0  0  0  0  0  0  0  0  0  0  0
   -2.2878    5.2708    0.0000 C   0  0  0  0  0  0  0  0  0  0  0  0
   -3.5855    6.0232    0.0000 C   0  0  0  0  0  0  0  0  0  0  0  0
   -3.5828    7.5232    0.0000 C   0  0  0  0  0  0  0  0  0  0  0  0
   -2.2825    8.2709    0.0000 C   0  0  0  0  0  0  0  0  0  0  0  0
   -0.9848    7.5185    0.0000 C   0  0  0  0  0  0  0  0  0  0  0  0
   -0.9874    6.0185    0.0000 C   0  0  0  0  0  0  0  0  0  0  0  0
    0.3148    8.2693    0.0000 O   0  0  0  0  0  0  0  0  0  0  0  0
   -4.8828    8.2732    0.0000 O   0  0  0  0  0  0  0  0  0  0  0  0
    0.0507    5.4167    0.0000 C   0  0  0  0  0  0  0  0  0  0  0  0
 16 17  1  0
  2  4  2  3
 16 18  1  0
  3  4  1  0
 16 19  1  0
  3  6  1  0
 12 20  1  0
  8  9  1  0
  9 10  1  0
 10 11  1  0
  7 21  1  0
 11  7  1  0
  1 22  2  3
 22 23  1  0
  4  8  1  0
 11 12  1  0
  7  5  1  0
 12 13  1  0
  5  6  1  0
 22 27  1  0
 23 24  1  0
 24 25  1  0
 25 26  1  0
 26 27  1  0
 13 14  1  0
  7  8  1  0
 26 28  1  0
 14 15  1  0
 24 29  1  0
 15 16  1  0
  1  2  1  0
 27 30  2  0
M  END
>  <Classification>  (106) 
0

>  <pchembl>  (106) 
4.4

>  <InChI_steorem>  (106) 
InChI=1S/C27H44O3/c1-18(8-6-14-26(3,4)30)23-12-13-24-20(9-7-15-27(23,24)5)10-11-21-16-22(28)17-25(29)19(21)2/h10-11,18,22-25,28-30H,2,6-9,12-17H2,1,3-5H3

>  <source>  (106) 
ChEMBL25

>  <source_id>  (106) 
25

>  <optional_reference>  (106) 
10.1093/toxsci/kft176

>  <optional_origin>  (106) 
None

>  <target>  (106) 
BSEP

$$$$

     RDKit          2D

 41 45  0  0  0  0  0  0  0  0999 V2000
    3.7459    4.5851    0.0000 S   0  0  0  0  0  0  0  0  0  0  0  0
   11.1586    2.1766    0.0000 O   0  0  0  0  0  0  0  0  0  0  0  0
    2.3551    4.0232    0.0000 O   0  0  0  0  0  0  0  0  0  0  0  0
    4.1845    3.1507    0.0000 O   0  0  0  0  0  0  0  0  0  0  0  0
    5.7533    2.3557    0.0000 O   0  0  0  0  0  0  0  0  0  0  0  0
   20.4710    6.1699    0.0000 O   0  0  0  0  0  0  0  0  0  0  0  0
   19.1720    8.4199    0.0000 O   0  0  0  0  0  0  0  0  0  0  0  0
   12.5492    8.8834    0.0000 N   0  0  0  0  0  0  0  0  0  0  0  0
    5.2131    4.8970    0.0000 N   0  0  0  0  0  0  0  0  0  0  0  0
   17.8729    6.1699    0.0000 N   0  0  0  0  0  0  0  0  0  0  0  0
   13.9758    6.9199    0.0000 C   0  0  0  0  0  0  0  0  0  0  0  0
   13.9758    8.4199    0.0000 C   0  0  0  0  0  0  0  0  0  0  0  0
   12.5492    6.4563    0.0000 C   0  0  0  0  0  0  0  0  0  0  0  0
   11.6675    7.6699    0.0000 C   0  0  0  0  0  0  0  0  0  0  0  0
   10.6185    4.7179    0.0000 C   0  0  0  0  0  0  0  0  0  0  0  0
   12.0857    5.0298    0.0000 C   0  0  0  0  0  0  0  0  0  0  0  0
   15.2748    6.1699    0.0000 C   0  0  0  0  0  0  0  0  0  0  0  0
   16.5739    6.9199    0.0000 C   0  0  0  0  0  0  0  0  0  0  0  0
   15.2748    9.1699    0.0000 C   0  0  0  0  0  0  0  0  0  0  0  0
   10.1549    3.2913    0.0000 C   0  0  0  0  0  0  0  0  0  0  0  0
    7.6840    4.0941    0.0000 C   0  0  0  0  0  0  0  0  0  0  0  0
    3.0649    5.9216    0.0000 C   0  0  0  0  0  0  0  0  0  0  0  0
    6.2168    3.7823    0.0000 C   0  0  0  0  0  0  0  0  0  0  0  0
   16.5739    8.4199    0.0000 C   0  0  0  0  0  0  0  0  0  0  0  0
    8.6877    2.9794    0.0000 C   0  0  0  0  0  0  0  0  0  0  0  0
    9.6148    5.8326    0.0000 C   0  0  0  0  0  0  0  0  0  0  0  0
    8.1476    5.5207    0.0000 C   0  0  0  0  0  0  0  0  0  0  0  0
    1.5670    6.0001    0.0000 C   0  0  0  0  0  0  0  0  0  0  0  0
   12.0857   10.3100    0.0000 C   0  0  0  0  0  0  0  0  0  0  0  0
    3.8819    7.1796    0.0000 C   0  0  0  0  0  0  0  0  0  0  0  0
   19.1720    6.9199    0.0000 C   0  0  0  0  0  0  0  0  0  0  0  0
    0.8860    7.3366    0.0000 C   0  0  0  0  0  0  0  0  0  0  0  0
    3.2009    8.5161    0.0000 C   0  0  0  0  0  0  0  0  0  0  0  0
    1.7029    8.5946    0.0000 C   0  0  0  0  0  0  0  0  0  0  0  0
    0.7500    4.7421    0.0000 C   0  0  0  0  0  0  0  0  0  0  0  0
   21.7700    6.9199    0.0000 C   0  0  0  0  0  0  0  0  0  0  0  0
   10.6951    0.7500    0.0000 C   0  0  0  0  0  0  0  0  0  0  0  0
   21.9268    8.4117    0.0000 C   0  0  0  0  0  0  0  0  0  0  0  0
   23.1404    6.3098    0.0000 C   0  0  0  0  0  0  0  0  0  0  0  0
   23.3941    8.7235    0.0000 C   0  0  0  0  0  0  0  0  0  0  0  0
   24.1441    7.4245    0.0000 C   0  0  0  0  0  0  0  0  0  0  0  0
  1  3  2  0
  1  4  2  0
  1  9  1  0
  1 22  1  0
  2 20  1  0
  2 37  1  0
  5 23  2  0
  6 31  1  0
  6 36  1  0
  7 31  2  0
  8 12  1  0
  8 14  1  0
  8 29  1  0
  9 23  1  0
 10 18  1  0
 10 31  1  0
 11 12  2  0
 11 13  1  0
 11 17  1  0
 12 19  1  0
 13 14  2  0
 13 16  1  0
 15 16  1  0
 15 20  2  0
 15 26  1  0
 17 18  2  0
 18 24  1  0
 19 24  2  0
 20 25  1  0
 21 23  1  0
 21 25  2  0
 21 27  1  0
 22 28  2  0
 22 30  1  0
 26 27  2  0
 28 32  1  0
 28 35  1  0
 30 33  2  0
 32 34  2  0
 33 34  1  0
 36 38  1  0
 36 39  1  0
 38 40  1  0
 39 41  1  0
 40 41  1  0
M  END
>  <Classification>  (107) 
0

>  <pchembl>  (107) 
4.96

>  <InChI_steorem>  (107) 
InChI=1S/C31H33N3O6S/c1-20-8-4-7-11-29(20)41(37,38)33-30(35)22-13-12-21(28(17-22)39-3)16-23-19-34(2)27-15-14-24(18-26(23)27)32-31(36)40-25-9-5-6-10-25/h4,7-8,11-15,17-19,25H,5-6,9-10,16H2,1-3H3,(H,32,36)(H,33,35)

>  <source>  (107) 
ChEMBL25

>  <source_id>  (107) 
25

>  <optional_reference>  (107) 
10.1002/hep.27206

>  <optional_origin>  (107) 
None

>  <target>  (107) 
BSEP

$$$$

     RDKit          2D

 34 36  0  0  0  0  0  0  0  0999 V2000
    0.2464   -0.1668    0.0000 C   0  0  0  0  0  0  0  0  0  0  0  0
    0.9608    0.2457    0.0000 C   0  0  0  0  0  0  0  0  0  0  0  0
    0.9608    1.0707    0.0000 C   0  0  0  0  0  0  0  0  0  0  0  0
    0.2464    1.4832    0.0000 C   0  0  0  0  0  0  0  0  0  0  0  0
   -0.4681    1.0707    0.0000 C   0  0  0  0  0  0  0  0  0  0  0  0
   -0.4681    0.2457    0.0000 C   0  0  0  0  0  0  0  0  0  0  0  0
   -1.1826    1.4832    0.0000 S   0  0  0  0  0  0  0  0  0  0  0  0
   -1.8970    1.8957    0.0000 N   0  0  0  0  0  0  0  0  0  0  0  0
   -1.5951    0.7687    0.0000 O   0  0  0  0  0  0  0  0  0  0  0  0
   -0.7701    2.1977    0.0000 O   0  0  0  0  0  0  0  0  0  0  0  0
   -2.6115    1.4832    0.0000 C   0  0  0  0  0  0  0  0  0  0  0  0
   -3.3260    1.8957    0.0000 N   0  0  0  0  0  0  0  0  0  0  0  0
   -2.6115    0.6582    0.0000 O   0  0  0  0  0  0  0  0  0  0  0  0
   -4.0405    1.4832    0.0000 C   0  0  0  0  0  0  0  0  0  0  0  0
   -4.7549    1.8957    0.0000 C   0  0  0  0  0  0  0  0  0  0  0  0
   -5.4694    1.4832    0.0000 C   0  0  0  0  0  0  0  0  0  0  0  0
   -5.4694    0.6582    0.0000 C   0  0  0  0  0  0  0  0  0  0  0  0
   -4.7549    0.2457    0.0000 C   0  0  0  0  0  0  0  0  0  0  0  0
   -4.0405    0.6582    0.0000 C   0  0  0  0  0  0  0  0  0  0  0  0
   -6.1839    0.2457    0.0000 C   0  0  0  0  0  0  0  0  0  0  0  0
    1.6753   -0.1668    0.0000 C   0  0  0  0  0  0  0  0  0  0  0  0
    2.3898    0.2457    0.0000 C   0  0  0  0  0  0  0  0  0  0  0  0
    3.1043   -0.1668    0.0000 N   0  0  0  0  0  0  0  0  0  0  0  0
    3.8187    0.2457    0.0000 C   0  0  0  0  0  0  0  0  0  0  0  0
    4.5332   -0.1668    0.0000 N   0  0  0  0  0  0  0  0  0  0  0  0
    3.8187    1.0707    0.0000 O   0  0  0  0  0  0  0  0  0  0  0  0
    5.2869    0.1688    0.0000 C   0  0  0  0  0  0  0  0  0  0  0  0
    5.8389   -0.4443    0.0000 C   0  0  0  0  0  0  0  0  0  0  0  0
    5.4264   -1.1588    0.0000 C   0  0  0  0  0  0  0  0  0  0  0  0
    4.6194   -0.9873    0.0000 C   0  0  0  0  0  0  0  0  0  0  0  0
    5.4584    0.9758    0.0000 O   0  0  0  0  0  0  0  0  0  0  0  0
    5.7620   -1.9125    0.0000 C   0  0  0  0  0  0  0  0  0  0  0  0
    6.6594   -0.3581    0.0000 C   0  0  0  0  0  0  0  0  0  0  0  0
    7.1443   -1.0255    0.0000 C   0  0  0  0  0  0  0  0  0  0  0  0
  7  9  2  0
 14 19  1  0
 15 16  1  0
 16 17  1  0
 17 18  1  0
 18 19  1  0
  4  5  2  0
 17 20  1  0
  7 10  2  0
  2 21  1  0
  2  3  2  0
 21 22  1  0
  8 11  1  0
 22 23  1  0
  5  6  1  0
 23 24  1  0
 11 12  1  0
 24 25  1  0
  6  1  2  0
 24 26  2  0
 25 27  1  0
 11 13  2  0
  1  2  1  0
 14 12  1  0
 14 15  1  0
 27 28  1  0
 28 29  2  0
 29 30  1  0
 30 25  1  0
  5  7  1  0
 27 31  2  0
  3  4  1  0
 29 32  1  0
  7  8  1  0
 28 33  1  0
 33 34  1  0
M  END
>  <Classification>  (108) 
0

>  <pchembl>  (108) 
4.8

>  <InChI_steorem>  (108) 
InChI=1S/C24H34N4O5S/c1-4-21-17(3)15-28(22(21)29)24(31)25-14-13-18-7-11-20(12-8-18)34(32,33)27-23(30)26-19-9-5-16(2)6-10-19/h7-8,11-12,16,19H,4-6,9-10,13-15H2,1-3H3,(H,25,31)(H2,26,27,30)

>  <source>  (108) 
ChEMBL25

>  <source_id>  (108) 
25

>  <optional_reference>  (108) 
10.1093/toxsci/kfq269

>  <optional_origin>  (108) 
None

>  <target>  (108) 
BSEP

$$$$

     RDKit          2D

 78 78  0  0  0  0  0  0  0  0999 V2000
    1.6796    1.8271    0.0000 N   0  0  0  0  0  0  0  0  0  0  0  0
    0.8738    2.0043    0.0000 C   0  0  0  0  0  0  0  0  0  0  0  0
    0.3175    1.3951    0.0000 C   0  0  0  0  0  0  0  0  0  0  0  0
    0.6244    2.7907    0.0000 O   0  0  0  0  0  0  0  0  0  0  0  0
   -0.4883    1.5723    0.0000 C   0  0  0  0  0  0  0  0  0  0  0  0
    0.5669    0.6087    0.0000 O   0  0  0  0  0  0  0  0  0  0  0  0
    0.0105   -0.0005    0.0000 C   0  0  0  0  0  0  0  0  0  0  0  0
    0.2599   -0.7869    0.0000 C   0  0  0  0  0  0  0  0  0  0  0  0
   -0.7952    0.1767    0.0000 O   0  0  0  0  0  0  0  0  0  0  0  0
   -0.5458   -0.6097    0.0000 C   0  0  0  0  0  0  0  0  0  0  0  0
   -1.1022   -1.2189    0.0000 C   0  0  0  0  0  0  0  0  0  0  0  0
   -1.2098   -0.1201    0.0000 C   0  0  0  0  0  0  0  0  0  0  0  0
   -0.2964   -1.3961    0.0000 N   0  0  0  0  0  0  0  0  0  0  0  0
   -0.0470   -2.1825    0.0000 C   0  0  0  0  0  0  0  0  0  0  0  0
   -0.6034   -2.7917    0.0000 C   0  0  0  0  0  0  0  0  0  0  0  0
    0.7587   -2.3597    0.0000 O   0  0  0  0  0  0  0  0  0  0  0  0
   -1.4091   -2.6144    0.0000 C   0  0  0  0  0  0  0  0  0  0  0  0
   -0.3540   -3.5781    0.0000 O   0  0  0  0  0  0  0  0  0  0  0  0
   -1.6585   -1.8280    0.0000 C   0  0  0  0  0  0  0  0  0  0  0  0
   -1.9654   -3.2236    0.0000 C   0  0  0  0  0  0  0  0  0  0  0  0
    2.2359    2.4362    0.0000 C   0  0  0  0  0  0  0  0  0  0  0  0
    3.0417    2.2590    0.0000 C   0  0  0  0  0  0  0  0  0  0  0  0
    1.9865    3.2226    0.0000 C   0  0  0  0  0  0  0  0  0  0  0  0
    2.5429    3.8318    0.0000 C   0  0  0  0  0  0  0  0  0  0  0  0
    1.1808    3.3999    0.0000 C   0  0  0  0  0  0  0  0  0  0  0  0
    3.5980    2.8682    0.0000 O   0  0  0  0  0  0  0  0  0  0  0  0
    3.2911    1.4726    0.0000 O   0  0  0  0  0  0  0  0  0  0  0  0
    2.7347    0.8634    0.0000 C   0  0  0  0  0  0  0  0  0  0  0  0
    3.5405    0.6862    0.0000 C   0  0  0  0  0  0  0  0  0  0  0  0
    2.9841    0.0770    0.0000 C   0  0  0  0  0  0  0  0  0  0  0  0
    3.7898   -0.1002    0.0000 O   0  0  0  0  0  0  0  0  0  0  0  0
    2.4278   -0.5321    0.0000 N   0  0  0  0  0  0  0  0  0  0  0  0
    4.2045    0.1966    0.0000 C   0  0  0  0  0  0  0  0  0  0  0  0
    4.0968    1.2954    0.0000 C   0  0  0  0  0  0  0  0  0  0  0  0
    2.6772   -1.3185    0.0000 C   0  0  0  0  0  0  0  0  0  0  0  0
    3.4829   -1.4958    0.0000 C   0  0  0  0  0  0  0  0  0  0  0  0
    2.1208   -1.9277    0.0000 C   0  0  0  0  0  0  0  0  0  0  0  0
    1.3151   -1.7505    0.0000 O   0  0  0  0  0  0  0  0  0  0  0  0
    2.3702   -2.7141    0.0000 O   0  0  0  0  0  0  0  0  0  0  0  0
    3.7323   -2.2822    0.0000 C   0  0  0  0  0  0  0  0  0  0  0  0
    4.0392   -0.8866    0.0000 C   0  0  0  0  0  0  0  0  0  0  0  0
    1.8139   -3.3233    0.0000 C   0  0  0  0  0  0  0  0  0  0  0  0
    2.0633   -4.1097    0.0000 C   0  0  0  0  0  0  0  0  0  0  0  0
    2.8690   -4.2869    0.0000 O   0  0  0  0  0  0  0  0  0  0  0  0
    1.5069   -4.7189    0.0000 N   0  0  0  0  0  0  0  0  0  0  0  0
    1.7563   -5.5053    0.0000 C   0  0  0  0  0  0  0  0  0  0  0  0
    1.2000   -6.1145    0.0000 C   0  0  0  0  0  0  0  0  0  0  0  0
    2.5621   -5.6825    0.0000 C   0  0  0  0  0  0  0  0  0  0  0  0
    3.1184   -5.0733    0.0000 C   0  0  0  0  0  0  0  0  0  0  0  0
    1.0081   -3.1461    0.0000 C   0  0  0  0  0  0  0  0  0  0  0  0
    0.3942   -5.9373    0.0000 O   0  0  0  0  0  0  0  0  0  0  0  0
    2.8114   -6.4689    0.0000 C   0  0  0  0  0  0  0  0  0  0  0  0
    1.4494   -6.9009    0.0000 O   0  0  0  0  0  0  0  0  0  0  0  0
    0.8930   -7.5101    0.0000 C   0  0  0  0  0  0  0  0  0  0  0  0
    1.6988   -7.6873    0.0000 C   0  0  0  0  0  0  0  0  0  0  0  0
    1.1424   -8.2965    0.0000 C   0  0  0  0  0  0  0  0  0  0  0  0
    1.9482   -8.4737    0.0000 O   0  0  0  0  0  0  0  0  0  0  0  0
    0.5861   -8.9057    0.0000 N   0  0  0  0  0  0  0  0  0  0  0  0
   -0.2197   -8.7284    0.0000 C   0  0  0  0  0  0  0  0  0  0  0  0
   -0.7760   -9.3376    0.0000 C   0  0  0  0  0  0  0  0  0  0  0  0
   -0.4691   -7.9420    0.0000 C   0  0  0  0  0  0  0  0  0  0  0  0
    0.0873   -7.3328    0.0000 O   0  0  0  0  0  0  0  0  0  0  0  0
   -1.2748   -7.7648    0.0000 O   0  0  0  0  0  0  0  0  0  0  0  0
   -1.5818   -9.1604    0.0000 C   0  0  0  0  0  0  0  0  0  0  0  0
   -0.5266  -10.1240    0.0000 C   0  0  0  0  0  0  0  0  0  0  0  0
    2.3628   -8.1769    0.0000 C   0  0  0  0  0  0  0  0  0  0  0  0
    2.2551   -7.0781    0.0000 C   0  0  0  0  0  0  0  0  0  0  0  0
   -0.9103   -4.1872    0.0000 C   0  0  0  0  0  0  0  0  0  0  0  0
   -1.7161   -4.0100    0.0000 O   0  0  0  0  0  0  0  0  0  0  0  0
   -0.6609   -4.9736    0.0000 C   0  0  0  0  0  0  0  0  0  0  0  0
   -1.4667   -4.7964    0.0000 C   0  0  0  0  0  0  0  0  0  0  0  0
   -1.2173   -5.5828    0.0000 N   0  0  0  0  0  0  0  0  0  0  0  0
   -2.0230   -5.4056    0.0000 C   0  0  0  0  0  0  0  0  0  0  0  0
   -2.1307   -4.3068    0.0000 C   0  0  0  0  0  0  0  0  0  0  0  0
   -0.9679   -6.3692    0.0000 C   0  0  0  0  0  0  0  0  0  0  0  0
   -1.5242   -6.9784    0.0000 C   0  0  0  0  0  0  0  0  0  0  0  0
   -0.1621   -6.5464    0.0000 O   0  0  0  0  0  0  0  0  0  0  0  0
   -2.3299   -6.8012    0.0000 C   0  0  0  0  0  0  0  0  0  0  0  0
 17 20  1  0
 36 40  1  0
  2  3  1  0
 36 41  1  0
  1 21  1  0
 42 39  1  0
 42 50  1  0
 10 11  1  0
 42 43  1  0
 21 22  1  0
 43 44  2  0
  3  6  1  0
 43 45  1  0
 21 23  1  0
 45 46  1  0
 10 12  1  0
 46 47  1  0
 23 24  1  0
 46 48  1  0
  1  2  1  0
 48 49  1  0
 23 25  1  0
  8 13  1  0
 47 51  2  0
 22 26  2  0
 48 52  1  0
  6  7  1  0
 47 53  1  0
 22 27  1  0
 54 53  1  0
 13 14  1  0
 54 55  1  0
 28 27  1  0
 54 56  1  0
  2  4  2  0
 56 57  2  0
 28 29  1  0
 56 58  1  0
 14 15  1  0
 58 59  1  0
 28 30  1  0
 59 60  1  0
  7  8  1  0
 59 61  1  0
 30 31  2  0
 61 62  2  0
 14 16  2  0
 61 63  1  0
 30 32  1  0
 60 64  1  0
 60 65  1  0
 29 33  1  0
 55 66  1  0
 15 17  1  0
 55 67  1  0
 29 34  1  0
 18 68  1  0
  7  9  2  0
 68 69  2  0
 32 35  1  0
 70 68  1  0
 15 18  1  0
 70 71  1  0
 35 36  1  0
 70 72  1  0
  3  5  1  0
 71 73  1  0
 71 74  1  0
 35 37  1  0
 17 19  1  0
 72 75  1  0
 37 38  2  0
 76 75  1  0
  8 10  1  0
 75 77  2  0
 37 39  1  0
 76 78  1  0
 76 63  1  0
M  END
>  <Classification>  (109) 
1

>  <pchembl>  (109) 
5.14

>  <InChI_steorem>  (109) 
InChI=1S/C54H90N6O18/c1-22(2)34-49(67)73-31(19)43(61)55-38(26(9)10)53(71)77-41(29(15)16)47(65)59-36(24(5)6)51(69)75-33(21)45(63)57-39(27(11)12)54(72)78-42(30(17)18)48(66)60-35(23(3)4)50(68)74-32(20)44(62)56-37(25(7)8)52(70)76-40(28(13)14)46(64)58-34/h22-42H,1-21H3,(H,55,61)(H,56,62)(H,57,63)(H,58,64)(H,59,65)(H,60,66)

>  <source>  (109) 
ChEMBL25

>  <source_id>  (109) 
25

>  <optional_reference>  (109) 
10.1023/a:1023278211849

>  <optional_origin>  (109) 
None

>  <target>  (109) 
BSEP

$$$$

     RDKit          2D

 24 24  0  0  0  0  0  0  0  0999 V2000
    6.5730   -3.3936    0.0000 C   0  0  0  0  0  0  0  0  0  0  0  0
    5.8530   -2.9809    0.0000 C   0  0  0  0  0  0  0  0  0  0  0  0
    5.1356   -3.3981    0.0000 C   0  0  0  0  0  0  0  0  0  0  0  0
    4.4157   -2.9854    0.0000 S   0  0  0  0  0  0  0  0  0  0  0  0
    3.6982   -3.4026    0.0000 C   0  0  0  0  0  0  0  0  0  0  0  0
    4.4130   -2.1556    0.0000 O   0  0  0  0  0  0  0  0  0  0  0  0
    2.9782   -2.9900    0.0000 C   0  0  0  0  0  0  0  0  0  0  0  0
    2.2608   -3.4071    0.0000 C   0  0  0  0  0  0  0  0  0  0  0  0
    1.5409   -2.9945    0.0000 N   0  0  0  0  0  0  0  0  0  0  0  0
    0.8235   -3.4117    0.0000 C   0  0  0  0  0  0  0  0  0  0  0  0
    1.5383   -2.1646    0.0000 C   0  0  0  0  0  0  0  0  0  0  0  0
    0.8182   -1.7519    0.0000 C   0  0  0  0  0  0  0  0  0  0  0  0
    0.1035   -2.9990    0.0000 C   0  0  0  0  0  0  0  0  0  0  0  0
   -0.6139   -3.4162    0.0000 C   0  0  0  0  0  0  0  0  0  0  0  0
    0.1008   -2.1691    0.0000 O   0  0  0  0  0  0  0  0  0  0  0  0
   -0.6112   -4.2461    0.0000 O   0  0  0  0  0  0  0  0  0  0  0  0
    0.1087   -4.6587    0.0000 C   0  0  0  0  0  0  0  0  0  0  0  0
    0.8251   -4.2376    0.0000 C   0  0  0  0  0  0  0  0  0  0  0  0
    1.5446   -4.6496    0.0000 C   0  0  0  0  0  0  0  0  0  0  0  0
    1.5476   -5.4804    0.0000 C   0  0  0  0  0  0  0  0  0  0  0  0
    0.8252   -5.8974    0.0000 C   0  0  0  0  0  0  0  0  0  0  0  0
    0.1087   -5.4830    0.0000 C   0  0  0  0  0  0  0  0  0  0  0  0
    2.2654   -5.8949    0.0000 C   0  0  0  0  0  0  0  0  0  0  0  0
    2.9848   -6.3085    0.0000 N   0  0  0  0  0  0  0  0  0  0  0  0
  1  2  1  0
 10 13  1  0
  5  7  1  0
 13 14  1  0
  3  4  1  0
 13 15  1  0
  7  8  1  0
 14 16  1  0
 16 17  1  0
  8  9  1  0
 17 18  2  0
  4  5  1  0
 18 19  1  0
  9 10  1  0
 19 20  2  0
  2  3  1  0
 20 21  1  0
  9 11  1  0
 21 22  2  0
 22 17  1  0
  4  6  1  0
 11 12  1  0
 23 24  3  0
 20 23  1  0
M  CHG  2   4   1   6  -1
M  END
>  <Classification>  (110) 
0

>  <pchembl>  (110) 
4.25

>  <InChI_steorem>  (110) 
InChI=1S/C18H28N2O3S/c1-3-11-24(22)12-5-10-20(4-2)14-17(21)15-23-18-8-6-16(13-19)7-9-18/h6-9,17,21H,3-5,10-12,14-15H2,1-2H3

>  <source>  (110) 
ChEMBL25

>  <source_id>  (110) 
25

>  <optional_reference>  (110) 
10.1124/dmd.112.047068

>  <optional_origin>  (110) 
None

>  <target>  (110) 
BSEP

$$$$

     RDKit          2D

 25 27  0  0  0  0  0  0  0  0999 V2000
    8.0265   -4.2146    0.0000 C   0  0  0  0  0  0  0  0  0  0  0  0
    9.3672   -4.2162    0.0000 C   0  0  0  0  0  0  0  0  0  0  0  0
    8.6917   -4.7112    0.0000 C   0  0  0  0  0  0  0  0  0  0  0  0
    9.1064   -3.4307    0.0000 C   0  0  0  0  0  0  0  0  0  0  0  0
    8.2800   -3.4297    0.0000 C   0  0  0  0  0  0  0  0  0  0  0  0
    7.3006   -4.6269    0.0000 C   0  0  0  0  0  0  0  0  0  0  0  0
    4.4191   -2.9843    0.0000 S   0  0  0  0  0  0  0  0  0  0  0  0
   10.0830   -4.6440    0.0000 C   0  0  0  0  0  0  0  0  0  0  0  0
    7.8676   -2.7129    0.0000 C   0  0  0  0  0  0  0  0  0  0  0  0
   10.7998   -4.2224    0.0000 C   0  0  0  0  0  0  0  0  0  0  0  0
    9.5205   -2.7149    0.0000 C   0  0  0  0  0  0  0  0  0  0  0  0
    5.1394   -3.3984    0.0000 C   0  0  0  0  0  0  0  0  0  0  0  0
    4.4109   -2.1578    0.0000 O   0  0  0  0  0  0  0  0  0  0  0  0
   10.8008   -3.3913    0.0000 O   0  0  0  0  0  0  0  0  0  0  0  0
    6.5802   -4.2174    0.0000 C   0  0  0  0  0  0  0  0  0  0  0  0
    5.8562   -2.9768    0.0000 C   0  0  0  0  0  0  0  0  0  0  0  0
    5.1384   -4.2294    0.0000 C   0  0  0  0  0  0  0  0  0  0  0  0
    9.1081   -2.0026    0.0000 C   0  0  0  0  0  0  0  0  0  0  0  0
    8.2771   -1.9971    0.0000 C   0  0  0  0  0  0  0  0  0  0  0  0
    8.6908   -5.5377    0.0000 C   0  0  0  0  0  0  0  0  0  0  0  0
   11.5155   -4.6457    0.0000 O   0  0  0  0  0  0  0  0  0  0  0  0
    6.5720   -3.4001    0.0000 C   0  0  0  0  0  0  0  0  0  0  0  0
    5.8634   -4.6390    0.0000 C   0  0  0  0  0  0  0  0  0  0  0  0
    9.5314   -1.2823    0.0000 F   0  0  0  0  0  0  0  0  0  0  0  0
    3.6931   -3.4012    0.0000 C   0  0  0  0  0  0  0  0  0  0  0  0
  2  3  2  0
  3  1  1  0
  4  5  2  0
  5  1  1  0
  6  1  2  3
  7 12  1  0
  8  2  1  0
  9  5  1  0
 10  8  1  0
 11  4  1  0
 12 17  2  0
 13  7  1  0
 14 10  2  0
 15  6  1  0
 16 22  2  0
 17 23  1  0
 18 19  1  0
 19  9  2  0
 20  3  1  0
 21 10  1  0
 22 15  1  0
 23 15  2  0
 24 18  1  0
 25  7  1  0
  4  2  1  0
 16 12  1  0
 11 18  2  0
M  CHG  2   7   1  13  -1
M  END
>  <Classification>  (111) 
0

>  <pchembl>  (111) 
4.2

>  <InChI_steorem>  (111) 
InChI=1S/C20H17FO3S/c1-12-17(9-13-3-6-15(7-4-13)25(2)24)16-8-5-14(21)10-19(16)18(12)11-20(22)23/h3-10H,11H2,1-2H3,(H,22,23)

>  <source>  (111) 
ChEMBL25

>  <source_id>  (111) 
25

>  <optional_reference>  (111) 
10.1124/dmd.112.047068

>  <optional_origin>  (111) 
None

>  <target>  (111) 
BSEP

$$$$

     RDKit          2D

 28 31  0  0  0  0  0  0  0  0999 V2000
    2.6872    2.1776    0.0000 O   0  0  0  0  0  0  0  0  0  0  0  0
   -1.3447    3.6341    0.0000 O   0  0  0  0  0  0  0  0  0  0  0  0
    7.5062    6.2068    0.0000 O   0  0  0  0  0  0  0  0  0  0  0  0
    7.3107    4.7913    0.0000 O   0  0  0  0  0  0  0  0  0  0  0  0
    2.4356    3.5842    0.0000 C   0  0  0  0  0  0  0  0  0  0  0  0
    1.9038    4.2149    0.0000 C   0  0  0  0  0  0  0  0  0  0  0  0
    3.2478    3.7294    0.0000 C   0  0  0  0  0  0  0  0  0  0  0  0
    1.0917    4.0697    0.0000 C   0  0  0  0  0  0  0  0  0  0  0  0
    3.5281    4.5054    0.0000 C   0  0  0  0  0  0  0  0  0  0  0  0
    0.8114    3.2938    0.0000 C   0  0  0  0  0  0  0  0  0  0  0  0
    2.1553    2.8083    0.0000 C   0  0  0  0  0  0  0  0  0  0  0  0
    2.1841    4.9909    0.0000 C   0  0  0  0  0  0  0  0  0  0  0  0
    4.3526    4.4786    0.0000 C   0  0  0  0  0  0  0  0  0  0  0  0
    2.9962    5.1361    0.0000 C   0  0  0  0  0  0  0  0  0  0  0  0
    1.3432    2.6631    0.0000 C   0  0  0  0  0  0  0  0  0  0  0  0
    3.8991    3.2231    0.0000 C   0  0  0  0  0  0  0  0  0  0  0  0
    0.5599    4.7004    0.0000 C   0  0  0  0  0  0  0  0  0  0  0  0
    4.5819    3.6861    0.0000 C   0  0  0  0  0  0  0  0  0  0  0  0
   -0.0007    3.1486    0.0000 C   0  0  0  0  0  0  0  0  0  0  0  0
    1.3720    4.8456    0.0000 C   0  0  0  0  0  0  0  0  0  0  0  0
    3.8879    5.2477    0.0000 C   0  0  0  0  0  0  0  0  0  0  0  0
    4.8590    5.1299    0.0000 C   0  0  0  0  0  0  0  0  0  0  0  0
   -0.5325    3.7793    0.0000 C   0  0  0  0  0  0  0  0  0  0  0  0
   -0.2522    4.5552    0.0000 C   0  0  0  0  0  0  0  0  0  0  0  0
    5.6762    5.0170    0.0000 C   0  0  0  0  0  0  0  0  0  0  0  0
    4.5481    5.8941    0.0000 C   0  0  0  0  0  0  0  0  0  0  0  0
    6.1826    5.6684    0.0000 C   0  0  0  0  0  0  0  0  0  0  0  0
    6.9998    5.5555    0.0000 C   0  0  0  0  0  0  0  0  0  0  0  0
 11  1  1  0
 23  2  1  0
  3 28  2  0
  4 28  1  0
  5  6  1  0
  5  7  1  0
  5 11  1  0
  6  8  1  0
  6 12  1  0
  7  9  1  0
  7 16  1  0
  8 10  1  0
  8 17  1  0
  8 20  1  0
  9 13  1  0
  9 14  1  0
  9 21  1  0
 10 15  1  0
 10 19  1  0
 11 15  1  0
 12 14  1  0
 13 18  1  0
 13 22  1  0
 16 18  1  0
 17 24  1  0
 19 23  1  0
 22 25  1  0
 22 26  1  0
 23 24  1  0
 25 27  1  0
 27 28  1  0
M  END
>  <Classification>  (112) 
0

>  <pchembl>  (112) 
4.97

>  <InChI_steorem>  (112) 
InChI=1S/C24H40O4/c1-14(4-7-21(27)28)17-5-6-18-22-19(9-11-24(17,18)3)23(2)10-8-16(25)12-15(23)13-20(22)26/h14-20,22,25-26H,4-13H2,1-3H3,(H,27,28)

>  <source>  (112) 
ChEMBL25

>  <source_id>  (112) 
25

>  <optional_reference>  (112) 
10.1002/hep.27206

>  <optional_origin>  (112) 
None

>  <target>  (112) 
BSEP

$$$$

     RDKit          2D

 54 61  0  0  0  0  0  0  0  0999 V2000
   12.7917   -1.6125    0.0000 C   0  0  0  0  0  0  0  0  0  0  0  0
   12.7917   -2.4375    0.0000 C   0  0  0  0  0  0  0  0  0  0  0  0
   13.5037   -2.8458    0.0000 C   0  0  0  0  0  0  0  0  0  0  0  0
   13.5037   -1.1958    0.0000 C   0  0  0  0  0  0  0  0  0  0  0  0
   14.2157   -1.6125    0.0000 C   0  0  0  0  0  0  0  0  0  0  0  0
   14.2168   -2.4375    0.0000 C   0  0  0  0  0  0  0  0  0  0  0  0
   14.9278   -2.8468    0.0000 C   0  0  0  0  0  0  0  0  0  0  0  0
   15.6424   -2.4357    0.0000 C   0  0  0  0  0  0  0  0  0  0  0  0
   14.9257   -1.1968    0.0000 C   0  0  0  0  0  0  0  0  0  0  0  0
   15.6409   -1.6153    0.0000 C   0  0  0  0  0  0  0  0  0  0  0  0
   15.6488    0.0391    0.0000 C   0  0  0  0  0  0  0  0  0  0  0  0
   16.3641   -0.3794    0.0000 C   0  0  0  0  0  0  0  0  0  0  0  0
   16.3559   -1.2043    0.0000 C   0  0  0  0  0  0  0  0  0  0  0  0
   17.1380   -1.4669    0.0000 C   0  0  0  0  0  0  0  0  0  0  0  0
   17.6294   -0.8043    0.0000 C   0  0  0  0  0  0  0  0  0  0  0  0
   17.1511   -0.1323    0.0000 C   0  0  0  0  0  0  0  0  0  0  0  0
   14.2083   -0.7875    0.0000 C   0  0  0  0  0  0  0  0  0  0  0  0
   12.0778   -2.8510    0.0000 O   0  0  0  0  0  0  0  0  0  0  0  0
   16.3500   -2.0292    0.0000 O   0  0  0  0  0  0  0  0  0  0  0  0
   16.3583    0.4458    0.0000 C   0  0  0  0  0  0  0  0  0  0  0  0
   17.4137    0.6498    0.0000 C   0  0  0  0  0  0  0  0  0  0  0  0
   18.2008    0.8924    0.0000 C   0  0  0  0  0  0  0  0  0  0  0  0
   18.2089    1.7174    0.0000 O   0  0  0  0  0  0  0  0  0  0  0  0
   17.4268    1.9801    0.0000 C   0  0  0  0  0  0  0  0  0  0  0  0
   16.9354    1.3174    0.0000 C   0  0  0  0  0  0  0  0  0  0  0  0
   17.1795    2.7671    0.0000 O   0  0  0  0  0  0  0  0  0  0  0  0
   14.9191   -0.3686    0.0000 C   0  0  0  0  0  0  0  0  0  0  0  0
   11.3627   -2.4396    0.0000 C   0  0  0  0  0  0  0  0  0  0  0  0
   11.3638   -1.6159    0.0000 C   0  0  0  0  0  0  0  0  0  0  0  0
   10.6528   -1.2045    0.0000 C   0  0  0  0  0  0  0  0  0  0  0  0
    9.9365   -1.6145    0.0000 C   0  0  0  0  0  0  0  0  0  0  0  0
    9.9357   -2.4405    0.0000 C   0  0  0  0  0  0  0  0  0  0  0  0
   10.6512   -2.8564    0.0000 O   0  0  0  0  0  0  0  0  0  0  0  0
    9.2204   -2.8516    0.0000 C   0  0  0  0  0  0  0  0  0  0  0  0
   10.6547   -0.3795    0.0000 O   0  0  0  0  0  0  0  0  0  0  0  0
    9.2230   -1.2004    0.0000 O   0  0  0  0  0  0  0  0  0  0  0  0
    8.5075   -1.6112    0.0000 C   0  0  0  0  0  0  0  0  0  0  0  0
    7.7948   -1.1909    0.0000 O   0  0  0  0  0  0  0  0  0  0  0  0
    7.0816   -1.5983    0.0000 C   0  0  0  0  0  0  0  0  0  0  0  0
    7.0754   -2.4236    0.0000 C   0  0  0  0  0  0  0  0  0  0  0  0
    7.7887   -2.8399    0.0000 C   0  0  0  0  0  0  0  0  0  0  0  0
    8.5082   -2.4310    0.0000 C   0  0  0  0  0  0  0  0  0  0  0  0
    7.7840   -3.6649    0.0000 O   0  0  0  0  0  0  0  0  0  0  0  0
    6.3584   -2.8317    0.0000 O   0  0  0  0  0  0  0  0  0  0  0  0
    6.3696   -1.1814    0.0000 C   0  0  0  0  0  0  0  0  0  0  0  0
    5.6465   -2.4149    0.0000 C   0  0  0  0  0  0  0  0  0  0  0  0
    5.6542   -1.5915    0.0000 C   0  0  0  0  0  0  0  0  0  0  0  0
    4.9463   -1.1748    0.0000 C   0  0  0  0  0  0  0  0  0  0  0  0
    4.2269   -1.5794    0.0000 C   0  0  0  0  0  0  0  0  0  0  0  0
    4.2199   -2.4053    0.0000 C   0  0  0  0  0  0  0  0  0  0  0  0
    4.9323   -2.8266    0.0000 O   0  0  0  0  0  0  0  0  0  0  0  0
    3.5015   -2.8110    0.0000 C   0  0  0  0  0  0  0  0  0  0  0  0
    3.5166   -1.1598    0.0000 O   0  0  0  0  0  0  0  0  0  0  0  0
    4.9545   -0.3498    0.0000 O   0  0  0  0  0  0  0  0  0  0  0  0
 12 13  1  0
  1  2  1  0
  1  4  1  0
 18 28  1  0
 28 29  1  0
  2  3  1  0
  5  9  1  0
 13 14  1  0
 14 15  1  0
 15 16  1  0
 28 33  1  0
 29 30  1  0
 30 31  1  0
 31 32  1  0
 32 33  1  0
 16 12  1  0
 32 34  1  0
  6  7  1  0
 30 35  1  0
  5 17  1  0
 31 36  1  0
  7  8  1  0
 36 37  1  0
 37 38  1  0
  8 10  1  0
  2 18  1  0
  9 10  1  0
 13 19  1  0
 37 42  1  0
 38 39  1  0
 39 40  1  0
 40 41  1  0
 41 42  1  0
  3  6  1  0
 41 43  1  0
 12 20  1  0
 40 44  1  0
  5  4  1  0
 39 45  1  0
 16 21  1  0
 44 46  1  0
 46 47  1  0
 21 22  1  0
  5  6  1  0
  9 27  1  0
 10 13  1  0
 12 11  1  0
 46 51  1  0
 47 48  1  0
 48 49  1  0
 49 50  1  0
 50 51  1  0
 22 23  1  0
 50 52  1  0
 23 24  1  0
 49 53  1  0
 24 25  1  0
 48 54  1  0
 25 21  2  0
 11 27  1  0
 24 26  2  0
M  END
>  <Classification>  (113) 
0

>  <pchembl>  (113) 
4.51

>  <InChI_steorem>  (113) 
InChI=1S/C41H64O13/c1-20-36(46)29(42)16-34(49-20)53-38-22(3)51-35(18-31(38)44)54-37-21(2)50-33(17-30(37)43)52-25-8-11-39(4)24(15-25)6-7-28-27(39)9-12-40(5)26(10-13-41(28,40)47)23-14-32(45)48-19-23/h14,20-22,24-31,33-38,42-44,46-47H,6-13,15-19H2,1-5H3

>  <source>  (113) 
ChEMBL25

>  <source_id>  (113) 
25

>  <optional_reference>  (113) 
10.1093/toxsci/kft176

>  <optional_origin>  (113) 
None

>  <target>  (113) 
BSEP

$$$$

     RDKit          2D

 33 34  0  0  0  0  0  0  0  0999 V2000
   -1.6583   -2.5167    0.0000 C   0  0  0  0  0  0  0  0  0  0  0  0
   -1.6583   -3.3417    0.0000 C   0  0  0  0  0  0  0  0  0  0  0  0
   -0.8333   -2.5167    0.0000 C   0  0  0  0  0  0  0  0  0  0  0  0
   -0.0125   -2.5042    0.0000 N   0  0  0  0  0  0  0  0  0  0  0  0
   -0.9375   -3.7542    0.0000 C   0  0  0  0  0  0  0  0  0  0  0  0
   -0.9375   -4.5875    0.0000 C   0  0  0  0  0  0  0  0  0  0  0  0
    3.3167   -0.4042    0.0000 C   0  0  0  0  0  0  0  0  0  0  0  0
   -1.6583   -5.0000    0.0000 C   0  0  0  0  0  0  0  0  0  0  0  0
    3.3292   -1.2292    0.0000 C   0  0  0  0  0  0  0  0  0  0  0  0
   -2.3708   -3.7625    0.0000 C   0  0  0  0  0  0  0  0  0  0  0  0
    2.6000    0.0000    0.0000 C   0  0  0  0  0  0  0  0  0  0  0  0
   -2.3708   -4.5875    0.0000 C   0  0  0  0  0  0  0  0  0  0  0  0
    2.6167   -1.6500    0.0000 C   0  0  0  0  0  0  0  0  0  0  0  0
   -2.4833   -2.5375    0.0000 C   0  0  0  0  0  0  0  0  0  0  0  0
    1.8917   -0.4167    0.0000 C   0  0  0  0  0  0  0  0  0  0  0  0
   -0.2583   -0.0292    0.0000 N   0  0  0  0  0  0  0  0  0  0  0  0
    1.9000   -1.2417    0.0000 C   0  0  0  0  0  0  0  0  0  0  0  0
   -0.2208   -5.0000    0.0000 O   0  0  0  0  0  0  0  0  0  0  0  0
    0.4667   -0.4375    0.0000 C   0  0  0  0  0  0  0  0  0  0  0  0
    4.0292    0.0208    0.0000 O   0  0  0  0  0  0  0  0  0  0  0  0
    1.1792   -0.0167    0.0000 C   0  0  0  0  0  0  0  0  0  0  0  0
   -1.6625   -1.6917    0.0000 C   0  0  0  0  0  0  0  0  0  0  0  0
    4.0417   -1.6375    0.0000 O   0  0  0  0  0  0  0  0  0  0  0  0
   -1.6583   -5.8250    0.0000 O   0  0  0  0  0  0  0  0  0  0  0  0
   -0.9583   -1.2750    0.0000 C   0  0  0  0  0  0  0  0  0  0  0  0
   -0.9625   -0.4500    0.0000 C   0  0  0  0  0  0  0  0  0  0  0  0
   -0.2625    0.7958    0.0000 C   0  0  0  0  0  0  0  0  0  0  0  0
   -2.9083   -1.8250    0.0000 C   0  0  0  0  0  0  0  0  0  0  0  0
   -2.8875   -3.2542    0.0000 C   0  0  0  0  0  0  0  0  0  0  0  0
   -0.2208   -5.8250    0.0000 C   0  0  0  0  0  0  0  0  0  0  0  0
    4.7500   -0.3875    0.0000 C   0  0  0  0  0  0  0  0  0  0  0  0
   -2.3708   -6.2375    0.0000 C   0  0  0  0  0  0  0  0  0  0  0  0
    4.0542   -2.4625    0.0000 C   0  0  0  0  0  0  0  0  0  0  0  0
  2  1  1  0
  3  1  1  0
  4  3  3  0
  5  2  2  0
  6  5  1  0
  7 11  2  0
  8 12  1  0
  9 13  2  0
 10  2  1  0
 11 15  1  0
 12 10  2  0
 13 17  1  0
 14  1  1  0
 15 21  1  0
 16 26  1  0
 17 15  2  0
 18  6  1  0
 19 16  1  0
 20  7  1  0
 21 19  1  0
 22  1  1  0
 23  9  1  0
 24  8  1  0
 25 22  1  0
 26 25  1  0
 27 16  1  0
 28 14  1  0
 29 14  1  0
 30 18  1  0
 31 20  1  0
 32 24  1  0
 33 23  1  0
  8  6  2  0
  7  9  1  0
M  END
>  <Classification>  (114) 
0

>  <pchembl>  (114) 
4.69

>  <InChI_steorem>  (114) 
InChI=1S/C27H38N2O4/c1-20(2)27(19-28,22-10-12-24(31-5)26(18-22)33-7)14-8-15-29(3)16-13-21-9-11-23(30-4)25(17-21)32-6/h9-12,17-18,20H,8,13-16H2,1-7H3

>  <source>  (114) 
ChEMBL25

>  <source_id>  (114) 
25

>  <optional_reference>  (114) 
10.1124/dmd.112.047068

>  <optional_origin>  (114) 
None

>  <target>  (114) 
BSEP

$$$$

     RDKit          2D

 22 25  0  0  0  0  0  0  0  0999 V2000
   25.6693   -3.7915    0.0000 C   0  0  0  0  0  0  0  0  0  0  0  0
   25.6609   -4.6164    0.0000 C   0  0  0  0  0  0  0  0  0  0  0  0
   24.9443   -5.0205    0.0000 C   0  0  0  0  0  0  0  0  0  0  0  0
   24.2319   -4.6039    0.0000 C   0  0  0  0  0  0  0  0  0  0  0  0
   23.5194   -5.0164    0.0000 C   0  0  0  0  0  0  0  0  0  0  0  0
   23.5111   -5.8413    0.0000 C   0  0  0  0  0  0  0  0  0  0  0  0
   24.9568   -3.3665    0.0000 C   0  0  0  0  0  0  0  0  0  0  0  0
   24.2360   -3.7789    0.0000 C   0  0  0  0  0  0  0  0  0  0  0  0
   24.9484   -5.8455    0.0000 C   0  0  0  0  0  0  0  0  0  0  0  0
   26.4442   -4.8705    0.0000 C   0  0  0  0  0  0  0  0  0  0  0  0
   22.7986   -4.6039    0.0000 C   0  0  0  0  0  0  0  0  0  0  0  0
   26.4567   -3.5414    0.0000 C   0  0  0  0  0  0  0  0  0  0  0  0
   24.2319   -6.2580    0.0000 C   0  0  0  0  0  0  0  0  0  0  0  0
   22.8069   -6.2580    0.0000 C   0  0  0  0  0  0  0  0  0  0  0  0
   26.9358   -4.2081    0.0000 C   0  0  0  0  0  0  0  0  0  0  0  0
   22.0861   -5.8455    0.0000 C   0  0  0  0  0  0  0  0  0  0  0  0
   22.0861   -5.0205    0.0000 C   0  0  0  0  0  0  0  0  0  0  0  0
   25.6609   -2.9665    0.0000 C   0  0  0  0  0  0  0  0  0  0  0  0
   26.7109   -2.7540    0.0000 O   0  0  0  0  0  0  0  0  0  0  0  0
   21.3737   -6.2580    0.0000 O   0  0  0  0  0  0  0  0  0  0  0  0
   27.2817   -3.5414    0.0000 C   0  0  0  0  0  0  0  0  0  0  0  0
   28.1066   -3.5414    0.0000 N   0  0  0  0  0  0  0  0  0  0  0  0
  2  1  1  0
  3  2  1  0
  4  8  1  0
  5  4  1  0
  6  5  2  0
  7  1  1  0
  8  7  1  0
  9  3  1  0
 10  2  1  0
 11  5  1  0
 12  1  1  0
 13  9  1  0
 14  6  1  0
 15 12  1  0
 16 17  1  0
 17 11  2  0
  1 18  1  0
 12 19  1  0
 20 16  1  0
 10 15  1  0
  3  4  1  0
  6 13  1  0
 14 16  2  0
 12 21  1  0
 21 22  3  0
M  END
>  <Classification>  (115) 
0

>  <pchembl>  (115) 
4.85

>  <InChI_steorem>  (115) 
InChI=1S/C19H23NO2/c1-18-8-6-15-14-5-3-13(21)10-12(14)2-4-16(15)17(18)7-9-19(18,22)11-20/h3,5,10,15-17,21-22H,2,4,6-9H2,1H3

>  <source>  (115) 
ChEMBL25

>  <source_id>  (115) 
25

>  <optional_reference>  (115) 
10.1093/toxsci/kfq269

>  <optional_origin>  (115) 
None

>  <target>  (115) 
BSEP

$$$$

     RDKit          2D

 21 23  0  0  0  0  0  0  0  0999 V2000
   32.0995  -17.8480    0.0000 C   0  0  0  0  0  0  0  0  0  0  0  0
   31.2746  -17.8480    0.0000 C   0  0  0  0  0  0  0  0  0  0  0  0
   30.7903  -17.1781    0.0000 O   0  0  0  0  0  0  0  0  0  0  0  0
   30.0027  -17.4283    0.0000 C   0  0  0  0  0  0  0  0  0  0  0  0
   30.0027  -18.2534    0.0000 C   0  0  0  0  0  0  0  0  0  0  0  0
   30.7850  -18.5111    0.0000 C   0  0  0  0  0  0  0  0  0  0  0  0
   29.2170  -18.5044    0.0000 N   0  0  0  0  0  0  0  0  0  0  0  0
   28.7365  -17.8346    0.0000 C   0  0  0  0  0  0  0  0  0  0  0  0
   29.2215  -17.1712    0.0000 C   0  0  0  0  0  0  0  0  0  0  0  0
   27.9115  -17.8346    0.0000 C   0  0  0  0  0  0  0  0  0  0  0  0
   27.5015  -17.1138    0.0000 O   0  0  0  0  0  0  0  0  0  0  0  0
   27.4963  -18.5436    0.0000 O   0  0  0  0  0  0  0  0  0  0  0  0
   28.9600  -19.2866    0.0000 C   0  0  0  0  0  0  0  0  0  0  0  0
   29.5075  -19.8999    0.0000 C   0  0  0  0  0  0  0  0  0  0  0  0
   30.3173  -19.7303    0.0000 C   0  0  0  0  0  0  0  0  0  0  0  0
   30.8651  -20.3550    0.0000 C   0  0  0  0  0  0  0  0  0  0  0  0
   30.6030  -21.1419    0.0000 C   0  0  0  0  0  0  0  0  0  0  0  0
   29.7928  -21.3044    0.0000 C   0  0  0  0  0  0  0  0  0  0  0  0
   29.2453  -20.6868    0.0000 C   0  0  0  0  0  0  0  0  0  0  0  0
   31.1466  -21.7586    0.0000 Cl  0  0  0  0  0  0  0  0  0  0  0  0
   31.6710  -20.1927    0.0000 Cl  0  0  0  0  0  0  0  0  0  0  0  0
  1  2  1  0
  2  3  1  0
  4  3  1  0
  5  4  2  0
  6  5  1  0
  2  6  2  0
  5  7  1  0
  8  7  1  0
  9  8  2  0
  4  9  1  0
  8 10  1  0
 10 11  2  0
 10 12  1  0
  7 13  1  0
 13 14  1  0
 14 15  2  0
 16 15  1  0
 17 16  2  0
 18 17  1  0
 19 18  2  0
 14 19  1  0
 17 20  1  0
 16 21  1  0
M  END
>  <Classification>  (116) 
0

>  <pchembl>  (116) 
4.8

>  <InChI_steorem>  (116) 
InChI=1S/C15H11Cl2NO3/c1-8-4-12-14(21-8)6-13(15(19)20)18(12)7-9-2-3-10(16)11(17)5-9/h2-6H,7H2,1H3,(H,19,20)

>  <source>  (116) 
ChEMBL25

>  <source_id>  (116) 
25

>  <optional_reference>  (116) 
10.1124/dmd.112.047068

>  <optional_origin>  (116) 
None

>  <target>  (116) 
BSEP

$$$$

     RDKit          2D

 29 32  0  0  0  0  0  0  0  0999 V2000
   44.7851  -20.5581    0.0000 C   0  0  0  0  0  0  0  0  0  0  0  0
   43.9775  -20.3837    0.0000 C   0  0  0  0  0  0  0  0  0  0  0  0
   43.4260  -20.9976    0.0000 N   0  0  0  0  0  0  0  0  0  0  0  0
   42.6184  -20.8273    0.0000 C   0  0  0  0  0  0  0  0  0  0  0  0
   42.0668  -21.4411    0.0000 C   0  0  0  0  0  0  0  0  0  0  0  0
   41.2483  -21.3513    0.0000 C   0  0  0  0  0  0  0  0  0  0  0  0
   40.9104  -22.1036    0.0000 N   0  0  0  0  0  0  0  0  0  0  0  0
   40.1069  -22.2778    0.0000 C   0  0  0  0  0  0  0  0  0  0  0  0
   39.8509  -23.0617    0.0000 C   0  0  0  0  0  0  0  0  0  0  0  0
   39.0433  -23.2319    0.0000 C   0  0  0  0  0  0  0  0  0  0  0  0
   38.4918  -22.6182    0.0000 C   0  0  0  0  0  0  0  0  0  0  0  0
   37.6842  -22.7925    0.0000 C   0  0  0  0  0  0  0  0  0  0  0  0
   37.4323  -23.5764    0.0000 C   0  0  0  0  0  0  0  0  0  0  0  0
   37.9172  -24.2429    0.0000 C   0  0  0  0  0  0  0  0  0  0  0  0
   37.4323  -24.9094    0.0000 N   0  0  0  0  0  0  0  0  0  0  0  0
   36.6484  -24.6533    0.0000 C   0  0  0  0  0  0  0  0  0  0  0  0
   35.9355  -25.0679    0.0000 C   0  0  0  0  0  0  0  0  0  0  0  0
   35.2185  -24.6533    0.0000 C   0  0  0  0  0  0  0  0  0  0  0  0
   35.2185  -23.8283    0.0000 C   0  0  0  0  0  0  0  0  0  0  0  0
   34.5056  -23.4179    0.0000 Cl  0  0  0  0  0  0  0  0  0  0  0  0
   35.9355  -23.4179    0.0000 C   0  0  0  0  0  0  0  0  0  0  0  0
   36.6484  -23.8283    0.0000 N   0  0  0  0  0  0  0  0  0  0  0  0
   37.1369  -22.1787    0.0000 O   0  0  0  0  0  0  0  0  0  0  0  0
   38.7479  -21.8342    0.0000 C   0  0  0  0  0  0  0  0  0  0  0  0
   39.5555  -21.6640    0.0000 C   0  0  0  0  0  0  0  0  0  0  0  0
   41.5242  -22.6592    0.0000 C   0  0  0  0  0  0  0  0  0  0  0  0
   41.4384  -23.4777    0.0000 O   0  0  0  0  0  0  0  0  0  0  0  0
   42.2371  -22.2446    0.0000 O   0  0  0  0  0  0  0  0  0  0  0  0
   43.7215  -19.5999    0.0000 O   0  0  0  0  0  0  0  0  0  0  0  0
  1  2  1  0
  2  3  1  0
  3  4  1  0
  5  4  1  0
  5  6  1  0
  6  7  1  0
  7  8  1  0
  8  9  2  0
  9 10  1  0
 10 11  2  0
 11 12  1  0
 12 13  1  0
 13 14  2  0
 14 15  1  0
 15 16  2  0
 16 17  1  0
 18 17  2  0
 19 18  1  0
 19 20  1  0
 21 19  2  0
 22 21  1  0
 13 22  1  0
 16 22  1  0
 12 23  2  0
 11 24  1  0
 24 25  2  0
  8 25  1  0
  7 26  1  0
 26 27  2  0
 26 28  1  0
  5 28  1  0
  2 29  2  0
M  END
>  <Classification>  (117) 
0

>  <pchembl>  (117) 
4.56

>  <InChI_steorem>  (117) 
InChI=1S/C20H17ClN4O4/c1-12(26)22-8-16-11-24(20(28)29-16)15-5-2-13(3-6-15)19(27)17-9-23-18-7-4-14(21)10-25(17)18/h2-7,9-10,16H,8,11H2,1H3,(H,22,26)

>  <source>  (117) 
ChEMBL25

>  <source_id>  (117) 
25

>  <optional_reference>  (117) 
10.1124/dmd.112.047068

>  <optional_origin>  (117) 
None

>  <target>  (117) 
BSEP

$$$$

     RDKit          2D

 30 31  0  0  0  0  0  0  0  0999 V2000
    8.8740  -22.4201    0.0000 C   0  0  0  0  0  0  0  0  0  0  0  0
    8.1609  -22.0095    0.0000 C   0  0  0  0  0  0  0  0  0  0  0  0
    7.4477  -22.4201    0.0000 C   0  0  0  0  0  0  0  0  0  0  0  0
    6.7304  -22.0095    0.0000 O   0  0  0  0  0  0  0  0  0  0  0  0
    7.4478  -23.2454    0.0000 O   0  0  0  0  0  0  0  0  0  0  0  0
    8.1609  -21.1842    0.0000 O   0  0  0  0  0  0  0  0  0  0  0  0
    8.8740  -20.7736    0.0000 C   0  0  0  0  0  0  0  0  0  0  0  0
    8.8740  -19.9483    0.0000 C   0  0  0  0  0  0  0  0  0  0  0  0
    8.1609  -19.5335    0.0000 C   0  0  0  0  0  0  0  0  0  0  0  0
    7.4477  -19.9483    0.0000 C   0  0  0  0  0  0  0  0  0  0  0  0
    6.7304  -19.5335    0.0000 C   0  0  0  0  0  0  0  0  0  0  0  0
    6.0172  -19.9483    0.0000 C   0  0  0  0  0  0  0  0  0  0  0  0
    6.0172  -20.7736    0.0000 F   0  0  0  0  0  0  0  0  0  0  0  0
    5.3041  -20.3589    0.0000 F   0  0  0  0  0  0  0  0  0  0  0  0
    5.3041  -19.5335    0.0000 F   0  0  0  0  0  0  0  0  0  0  0  0
    6.7304  -18.7124    0.0000 C   0  0  0  0  0  0  0  0  0  0  0  0
    6.0172  -18.2976    0.0000 S   0  0  0  0  0  0  0  0  0  0  0  0
    6.0172  -17.4723    0.0000 C   0  0  0  0  0  0  0  0  0  0  0  0
    5.2216  -18.5117    0.0000 O   0  0  0  0  0  0  0  0  0  0  0  0
    5.8024  -19.0949    0.0000 O   0  0  0  0  0  0  0  0  0  0  0  0
    7.4477  -18.2976    0.0000 C   0  0  0  0  0  0  0  0  0  0  0  0
    8.1609  -18.7124    0.0000 C   0  0  0  0  0  0  0  0  0  0  0  0
    9.5912  -19.5335    0.0000 C   0  0  0  0  0  0  0  0  0  0  0  0
   10.3044  -19.9483    0.0000 C   0  0  0  0  0  0  0  0  0  0  0  0
   11.0176  -19.5335    0.0000 C   0  0  0  0  0  0  0  0  0  0  0  0
   11.0176  -18.7124    0.0000 F   0  0  0  0  0  0  0  0  0  0  0  0
   11.7307  -19.9483    0.0000 F   0  0  0  0  0  0  0  0  0  0  0  0
   11.7307  -19.1230    0.0000 F   0  0  0  0  0  0  0  0  0  0  0  0
   10.3044  -20.7736    0.0000 C   0  0  0  0  0  0  0  0  0  0  0  0
    9.5912  -21.1842    0.0000 C   0  0  0  0  0  0  0  0  0  0  0  0
  2  1  1  0
  2  3  1  0
  3  4  2  0
  3  5  1  0
  2  6  1  0
  6  7  1  0
  7  8  2  0
  8  9  1  0
  9 10  2  0
 11 10  1  0
 11 12  1  0
 12 13  1  0
 12 14  1  0
 12 15  1  0
 16 11  2  0
 16 17  1  0
 17 18  1  0
 17 19  2  0
 17 20  2  0
 21 16  1  0
 22 21  2  0
  9 22  1  0
 23  8  1  0
 24 23  2  0
 24 25  1  0
 25 26  1  0
 25 27  1  0
 25 28  1  0
 29 24  1  0
 30 29  2  0
  7 30  1  0
M  END
>  <Classification>  (118) 
0

>  <pchembl>  (118) 
4.45

>  <InChI_steorem>  (118) 
InChI=1S/C18H14F6O5S/c1-9(16(25)26)29-14-5-4-11(17(19,20)21)8-12(14)10-3-6-15(30(2,27)28)13(7-10)18(22,23)24/h3-9H,1-2H3,(H,25,26)

>  <source>  (118) 
ChEMBL25

>  <source_id>  (118) 
25

>  <optional_reference>  (118) 
10.1124/dmd.112.047068

>  <optional_origin>  (118) 
None

>  <target>  (118) 
BSEP

$$$$

     RDKit          2D

 25 29  0  0  0  0  0  0  0  0999 V2000
    9.8057   -7.8546    0.0000 C   0  0  0  0  0  0  0  0  0  0  0  0
   10.5365   -7.4535    0.0000 C   0  0  0  0  0  0  0  0  0  0  0  0
   11.2457   -7.8838    0.0000 C   0  0  0  0  0  0  0  0  0  0  0  0
   11.9723   -7.4786    0.0000 C   0  0  0  0  0  0  0  0  0  0  0  0
   11.9898   -6.6514    0.0000 C   0  0  0  0  0  0  0  0  0  0  0  0
   11.2765   -6.2212    0.0000 C   0  0  0  0  0  0  0  0  0  0  0  0
   10.5498   -6.6223    0.0000 C   0  0  0  0  0  0  0  0  0  0  0  0
   12.7829   -6.4096    0.0000 C   0  0  0  0  0  0  0  0  0  0  0  0
   13.2590   -7.0879    0.0000 C   0  0  0  0  0  0  0  0  0  0  0  0
   12.7603   -7.7532    0.0000 C   0  0  0  0  0  0  0  0  0  0  0  0
   12.7829   -5.5781    0.0000 O   0  0  0  0  0  0  0  0  0  0  0  0
   13.5049   -5.9927    0.0000 C   0  0  0  0  0  0  0  0  0  0  0  0
   14.2253   -5.5768    0.0000 N   0  0  0  0  0  0  0  0  0  0  0  0
   12.0923   -5.8246    0.0000 C   0  0  0  0  0  0  0  0  0  0  0  0
   11.2323   -8.7151    0.0000 C   0  0  0  0  0  0  0  0  0  0  0  0
   10.5016   -9.1161    0.0000 C   0  0  0  0  0  0  0  0  0  0  0  0
    9.7924   -8.6859    0.0000 C   0  0  0  0  0  0  0  0  0  0  0  0
    9.0657   -9.0870    0.0000 C   0  0  0  0  0  0  0  0  0  0  0  0
    8.3524   -8.6610    0.0000 C   0  0  0  0  0  0  0  0  0  0  0  0
    8.3699   -7.8297    0.0000 C   0  0  0  0  0  0  0  0  0  0  0  0
    9.0965   -7.4286    0.0000 C   0  0  0  0  0  0  0  0  0  0  0  0
    7.5818   -7.5591    0.0000 C   0  0  0  0  0  0  0  0  0  0  0  0
    7.0832   -8.2203    0.0000 N   0  0  0  0  0  0  0  0  0  0  0  0
    7.5593   -8.9028    0.0000 O   0  0  0  0  0  0  0  0  0  0  0  0
    9.8232   -7.0234    0.0000 C   0  0  0  0  0  0  0  0  0  0  0  0
  2  1  1  0
  3  2  1  0
  4  3  1  0
  4  5  1  0
  5  6  1  0
  6  7  1  0
  7  2  1  0
  8  5  1  0
  8  9  1  0
  9 10  1  0
 10  4  1  0
  8 11  1  0
  8 12  1  0
 12 13  3  0
  5 14  1  0
  3 15  1  0
 15 16  1  0
 16 17  1  0
 18 17  2  0
 19 18  1  0
 20 19  2  0
 20 21  1  0
 21  1  1  0
 22 20  1  0
 23 22  2  0
 24 23  1  0
 24 19  1  0
 17  1  1  0
  1 25  1  0
M  END
>  <Classification>  (119) 
0

>  <pchembl>  (119) 
4.73

>  <InChI_steorem>  (119) 
InChI=1S/C21H26N2O2/c1-19-10-13-11-23-25-18(13)9-14(19)3-4-15-16(19)5-7-20(2)17(15)6-8-21(20,24)12-22/h9,11,15-17,24H,3-8,10H2,1-2H3

>  <source>  (119) 
ChEMBL25

>  <source_id>  (119) 
25

>  <optional_reference>  (119) 
10.1002/hep.27206

>  <optional_origin>  (119) 
None

>  <target>  (119) 
BSEP

$$$$

     RDKit          2D

 34 38  0  0  0  0  0  0  0  0999 V2000
   26.6210  -21.5390    0.0000 C   0  0  0  0  0  0  0  0  0  0  0  0
   26.2104  -20.8259    0.0000 C   0  0  0  0  0  0  0  0  0  0  0  0
   25.3874  -20.7359    0.0000 C   0  0  0  0  0  0  0  0  0  0  0  0
   25.2172  -19.9281    0.0000 C   0  0  0  0  0  0  0  0  0  0  0  0
   24.5040  -19.5176    0.0000 C   0  0  0  0  0  0  0  0  0  0  0  0
   23.7909  -19.9281    0.0000 F   0  0  0  0  0  0  0  0  0  0  0  0
   24.5040  -18.6922    0.0000 C   0  0  0  0  0  0  0  0  0  0  0  0
   23.7909  -18.2815    0.0000 O   0  0  0  0  0  0  0  0  0  0  0  0
   23.7909  -17.4562    0.0000 C   0  0  0  0  0  0  0  0  0  0  0  0
   23.0735  -17.0457    0.0000 C   0  0  0  0  0  0  0  0  0  0  0  0
   22.3604  -17.4562    0.0000 C   0  0  0  0  0  0  0  0  0  0  0  0
   21.6472  -17.0457    0.0000 C   0  0  0  0  0  0  0  0  0  0  0  0
   20.9341  -17.4562    0.0000 O   0  0  0  0  0  0  0  0  0  0  0  0
   20.9341  -18.2815    0.0000 C   0  0  0  0  0  0  0  0  0  0  0  0
   21.6472  -16.2204    0.0000 C   0  0  0  0  0  0  0  0  0  0  0  0
   20.9340  -15.8056    0.0000 O   0  0  0  0  0  0  0  0  0  0  0  0
   20.2168  -16.2204    0.0000 C   0  0  0  0  0  0  0  0  0  0  0  0
   19.5037  -15.8056    0.0000 C   0  0  0  0  0  0  0  0  0  0  0  0
   18.7906  -16.2204    0.0000 C   0  0  0  0  0  0  0  0  0  0  0  0
   18.0733  -15.8056    0.0000 N   0  0  0  0  0  0  0  0  0  0  0  0
   18.0733  -14.9803    0.0000 C   0  0  0  0  0  0  0  0  0  0  0  0
   17.3600  -14.5698    0.0000 C   0  0  0  0  0  0  0  0  0  0  0  0
   16.6469  -14.9803    0.0000 C   0  0  0  0  0  0  0  0  0  0  0  0
   16.6469  -15.8056    0.0000 C   0  0  0  0  0  0  0  0  0  0  0  0
   17.3600  -16.2204    0.0000 C   0  0  0  0  0  0  0  0  0  0  0  0
   22.3604  -15.8056    0.0000 C   0  0  0  0  0  0  0  0  0  0  0  0
   23.0735  -16.2204    0.0000 C   0  0  0  0  0  0  0  0  0  0  0  0
   23.7909  -15.8056    0.0000 N   0  0  0  0  0  0  0  0  0  0  0  0
   24.5040  -16.2204    0.0000 C   0  0  0  0  0  0  0  0  0  0  0  0
   24.5040  -17.0457    0.0000 N   0  0  0  0  0  0  0  0  0  0  0  0
   25.2171  -18.2815    0.0000 C   0  0  0  0  0  0  0  0  0  0  0  0
   25.9303  -18.6922    0.0000 C   0  0  0  0  0  0  0  0  0  0  0  0
   25.9303  -19.5176    0.0000 C   0  0  0  0  0  0  0  0  0  0  0  0
   26.5444  -20.0693    0.0000 N   0  0  0  0  0  0  0  0  0  0  0  0
  1  2  1  0
  2  3  2  0
  3  4  1  0
  4  5  2  0
  5  6  1  0
  7  5  1  0
  7  8  1  0
  8  9  1  0
  9 10  1  0
 10 11  2  0
 11 12  1  0
 12 13  1  0
 13 14  1  0
 12 15  2  0
 15 16  1  0
 16 17  1  0
 17 18  1  0
 18 19  1  0
 19 20  1  0
 20 21  1  0
 21 22  1  0
 22 23  1  0
 23 24  1  0
 24 25  1  0
 20 25  1  0
 15 26  1  0
 26 27  2  0
 10 27  1  0
 27 28  1  0
 28 29  2  0
 29 30  1  0
  9 30  2  0
 31  7  2  0
 32 31  1  0
 33 32  2  0
  4 33  1  0
 33 34  1  0
  2 34  1  0
M  END
>  <Classification>  (120) 
0

>  <pchembl>  (120) 
4.64

>  <InChI_steorem>  (120) 
InChI=1S/C26H29FN4O3/c1-17-13-18-20(30-17)7-8-22(25(18)27)34-26-19-14-23(32-2)24(15-21(19)28-16-29-26)33-12-6-11-31-9-4-3-5-10-31/h7-8,13-16,30H,3-6,9-12H2,1-2H3

>  <source>  (120) 
ChEMBL25

>  <source_id>  (120) 
25

>  <optional_reference>  (120) 
10.1124/dmd.112.047068

>  <optional_origin>  (120) 
None

>  <target>  (120) 
BSEP

$$$$

     RDKit          2D

 31 34  0  0  0  0  0  0  0  0999 V2000
   32.1597  -19.4967    0.0000 O   0  0  0  0  0  0  0  0  0  0  0  0
   32.9847  -19.5008    0.0000 S   0  0  0  0  0  0  0  0  0  0  0  0
   32.5758  -18.7843    0.0000 O   0  0  0  0  0  0  0  0  0  0  0  0
   32.2791  -20.7425    0.0000 C   0  0  0  0  0  0  0  0  0  0  0  0
   32.2780  -21.5699    0.0000 C   0  0  0  0  0  0  0  0  0  0  0  0
   32.9928  -21.9828    0.0000 C   0  0  0  0  0  0  0  0  0  0  0  0
   33.7093  -21.5695    0.0000 C   0  0  0  0  0  0  0  0  0  0  0  0
   33.7064  -20.7389    0.0000 C   0  0  0  0  0  0  0  0  0  0  0  0
   32.9909  -20.3297    0.0000 C   0  0  0  0  0  0  0  0  0  0  0  0
   34.4244  -21.9809    0.0000 N   0  0  0  0  0  0  0  0  0  0  0  0
   35.1383  -21.5671    0.0000 C   0  0  0  0  0  0  0  0  0  0  0  0
   35.8500  -21.9791    0.0000 N   0  0  0  0  0  0  0  0  0  0  0  0
   36.5634  -21.5660    0.0000 C   0  0  0  0  0  0  0  0  0  0  0  0
   36.5626  -20.7402    0.0000 C   0  0  0  0  0  0  0  0  0  0  0  0
   35.8424  -20.3290    0.0000 C   0  0  0  0  0  0  0  0  0  0  0  0
   35.1320  -20.7442    0.0000 N   0  0  0  0  0  0  0  0  0  0  0  0
   37.2784  -21.9778    0.0000 N   0  0  0  0  0  0  0  0  0  0  0  0
   37.9924  -21.5645    0.0000 C   0  0  0  0  0  0  0  0  0  0  0  0
   37.2792  -22.8029    0.0000 C   0  0  0  0  0  0  0  0  0  0  0  0
   38.7064  -21.9779    0.0000 C   0  0  0  0  0  0  0  0  0  0  0  0
   38.6995  -20.3279    0.0000 C   0  0  0  0  0  0  0  0  0  0  0  0
   37.9889  -20.7428    0.0000 C   0  0  0  0  0  0  0  0  0  0  0  0
   40.2025  -20.4868    0.0000 C   0  0  0  0  0  0  0  0  0  0  0  0
   39.4195  -20.7394    0.0000 C   0  0  0  0  0  0  0  0  0  0  0  0
   39.4189  -21.5628    0.0000 C   0  0  0  0  0  0  0  0  0  0  0  0
   40.2025  -21.8165    0.0000 N   0  0  0  0  0  0  0  0  0  0  0  0
   40.6847  -21.1491    0.0000 N   0  0  0  0  0  0  0  0  0  0  0  0
   41.5097  -21.1475    0.0000 C   0  0  0  0  0  0  0  0  0  0  0  0
   40.4579  -19.7023    0.0000 C   0  0  0  0  0  0  0  0  0  0  0  0
   31.5645  -20.3302    0.0000 C   0  0  0  0  0  0  0  0  0  0  0  0
   33.7018  -19.0901    0.0000 C   0  0  0  0  0  0  0  0  0  0  0  0
  2  1  2  0
  3  2  2  0
  4  5  2  0
  5  6  1  0
  6  7  2  0
  7  8  1  0
  8  9  2  0
  9  4  1  0
  7 10  1  0
 10 11  1  0
 11 12  2  0
 12 13  1  0
 13 14  2  0
 14 15  1  0
 15 16  2  0
 16 11  1  0
 13 17  1  0
 17 18  1  0
 17 19  1  0
 18 20  2  0
 20 25  1  0
 24 21  1  0
 21 22  2  0
 22 18  1  0
 24 25  1  0
 23 24  2  0
 25 26  2  0
 26 27  1  0
 27 23  1  0
 27 28  1  0
 23 29  1  0
  4 30  1  0
  9  2  1  0
  2 31  1  0
M  END
>  <Classification>  (121) 
0

>  <pchembl>  (121) 
4.99

>  <InChI_steorem>  (121) 
InChI=1S/C22H24N6O2S/c1-14-6-7-16(12-20(14)31(5,29)30)24-22-23-11-10-21(25-22)27(3)17-8-9-18-15(2)28(4)26-19(18)13-17/h6-13H,1-5H3,(H,23,24,25)

>  <source>  (121) 
ChEMBL25

>  <source_id>  (121) 
25

>  <optional_reference>  (121) 
10.1093/toxsci/kfq269

>  <optional_origin>  (121) 
None

>  <target>  (121) 
BSEP

$$$$

     RDKit          2D

 30 32  0  0  0  0  0  0  0  0999 V2000
   11.9218  -15.1721    0.0000 C   0  0  0  0  0  0  0  0  0  0  0  0
   11.2062  -14.7620    0.0000 C   0  0  0  0  0  0  0  0  0  0  0  0
   11.2062  -13.9388    0.0000 O   0  0  0  0  0  0  0  0  0  0  0  0
   10.4963  -15.1751    0.0000 N   0  0  0  0  0  0  0  0  0  0  0  0
    9.7805  -14.7651    0.0000 C   0  0  0  0  0  0  0  0  0  0  0  0
    9.7805  -13.9358    0.0000 C   0  0  0  0  0  0  0  0  0  0  0  0
    9.0629  -13.5182    0.0000 C   0  0  0  0  0  0  0  0  0  0  0  0
    8.3514  -13.9376    0.0000 C   0  0  0  0  0  0  0  0  0  0  0  0
    8.3514  -14.7670    0.0000 C   0  0  0  0  0  0  0  0  0  0  0  0
    9.0657  -15.1767    0.0000 C   0  0  0  0  0  0  0  0  0  0  0  0
   10.4919  -13.5242    0.0000 O   0  0  0  0  0  0  0  0  0  0  0  0
   10.4919  -12.7010    0.0000 C   0  0  0  0  0  0  0  0  0  0  0  0
   11.2025  -12.2853    0.0000 C   0  0  0  0  0  0  0  0  0  0  0  0
   11.2025  -11.4621    0.0000 C   0  0  0  0  0  0  0  0  0  0  0  0
   11.9175  -11.0505    0.0000 N   0  0  0  0  0  0  0  0  0  0  0  0
   11.9175  -10.2274    0.0000 C   0  0  0  0  0  0  0  0  0  0  0  0
   12.6341   -9.8187    0.0000 C   0  0  0  0  0  0  0  0  0  0  0  0
   12.6341   -8.9894    0.0000 C   0  0  0  0  0  0  0  0  0  0  0  0
   11.9175   -8.5729    0.0000 N   0  0  0  0  0  0  0  0  0  0  0  0
   11.2050   -8.9894    0.0000 C   0  0  0  0  0  0  0  0  0  0  0  0
   11.2050   -9.8187    0.0000 C   0  0  0  0  0  0  0  0  0  0  0  0
   11.9175   -7.7456    0.0000 C   0  0  0  0  0  0  0  0  0  0  0  0
   11.2025   -7.3340    0.0000 C   0  0  0  0  0  0  0  0  0  0  0  0
   11.2025   -6.5090    0.0000 C   0  0  0  0  0  0  0  0  0  0  0  0
   10.4849   -6.0992    0.0000 C   0  0  0  0  0  0  0  0  0  0  0  0
    9.7706   -6.5170    0.0000 C   0  0  0  0  0  0  0  0  0  0  0  0
    9.7706   -7.3402    0.0000 C   0  0  0  0  0  0  0  0  0  0  0  0
   10.4883   -7.7517    0.0000 C   0  0  0  0  0  0  0  0  0  0  0  0
    9.0532   -6.1057    0.0000 Cl  0  0  0  0  0  0  0  0  0  0  0  0
   11.9175  -12.7010    0.0000 O   0  0  0  0  0  0  0  0  0  0  0  0
  1  2  1  0
  2  3  2  0
  2  4  1  0
  4  5  1  0
  5  6  2  0
  7  6  1  0
  8  7  2  0
  9  8  1  0
 10  9  2  0
  5 10  1  0
  6 11  1  0
 11 12  1  0
 12 13  1  0
 13 14  1  0
 14 15  1  0
 15 16  1  0
 16 17  1  0
 18 17  1  0
 19 18  1  0
 20 19  1  0
 21 20  1  0
 16 21  1  0
 19 22  1  0
 22 23  1  0
 23 24  2  0
 25 24  1  0
 26 25  2  0
 27 26  1  0
 28 27  2  0
 23 28  1  0
 26 29  1  0
 13 30  1  0
M  END
>  <Classification>  (122) 
0

>  <pchembl>  (122) 
4.25

>  <InChI_steorem>  (122) 
InChI=1S/C23H30ClN3O3/c1-17(28)26-22-4-2-3-5-23(22)30-16-21(29)14-25-20-10-12-27(13-11-20)15-18-6-8-19(24)9-7-18/h2-9,20-21,25,29H,10-16H2,1H3,(H,26,28)

>  <source>  (122) 
ChEMBL25

>  <source_id>  (122) 
25

>  <optional_reference>  (122) 
10.1124/dmd.112.047068

>  <optional_origin>  (122) 
None

>  <target>  (122) 
BSEP

$$$$

     RDKit          2D

 20 22  0  0  0  0  0  0  0  0999 V2000
    2.9670  -24.2700    0.0000 C   0  0  0  0  0  0  0  0  0  0  0  0
    2.3533  -24.8256    0.0000 O   0  0  0  0  0  0  0  0  0  0  0  0
    2.5276  -25.6288    0.0000 C   0  0  0  0  0  0  0  0  0  0  0  0
    3.3115  -25.8848    0.0000 C   0  0  0  0  0  0  0  0  0  0  0  0
    3.4816  -26.6922    0.0000 C   0  0  0  0  0  0  0  0  0  0  0  0
    2.8679  -27.2436    0.0000 C   0  0  0  0  0  0  0  0  0  0  0  0
    3.0422  -28.0512    0.0000 N   0  0  0  0  0  0  0  0  0  0  0  0
    3.8261  -28.3030    0.0000 C   0  0  0  0  0  0  0  0  0  0  0  0
    4.0780  -29.0868    0.0000 C   0  0  0  0  0  0  0  0  0  0  0  0
    4.9028  -29.0868    0.0000 C   0  0  0  0  0  0  0  0  0  0  0  0
    5.1588  -28.3030    0.0000 N   0  0  0  0  0  0  0  0  0  0  0  0
    5.9426  -28.0512    0.0000 C   0  0  0  0  0  0  0  0  0  0  0  0
    6.1128  -27.2436    0.0000 C   0  0  0  0  0  0  0  0  0  0  0  0
    6.8966  -26.9877    0.0000 C   0  0  0  0  0  0  0  0  0  0  0  0
    7.5104  -27.5392    0.0000 C   0  0  0  0  0  0  0  0  0  0  0  0
    7.3361  -28.3466    0.0000 C   0  0  0  0  0  0  0  0  0  0  0  0
    6.5563  -28.6025    0.0000 C   0  0  0  0  0  0  0  0  0  0  0  0
    4.4925  -27.8183    0.0000 N   0  0  0  0  0  0  0  0  0  0  0  0
    2.0841  -26.9877    0.0000 C   0  0  0  0  0  0  0  0  0  0  0  0
    1.9139  -26.1803    0.0000 C   0  0  0  0  0  0  0  0  0  0  0  0
  1  2  1  0
  2  3  1  0
  3  4  2  0
  4  5  1  0
  5  6  2  0
  6  7  1  0
  7  8  1  0
  8  9  1  0
  9 10  2  0
 10 11  1  0
 11 12  1  0
 12 13  2  0
 13 14  1  0
 14 15  2  0
 15 16  1  0
 16 17  2  0
 12 17  1  0
 11 18  1  0
  8 18  2  0
  6 19  1  0
 19 20  2  0
  3 20  1  0
M  END
>  <Classification>  (123) 
0

>  <pchembl>  (123) 
4.64

>  <InChI_steorem>  (123) 
InChI=1S/C16H15N3O/c1-20-15-9-7-13(8-10-15)17-16-11-12-19(18-16)14-5-3-2-4-6-14/h2-12H,1H3,(H,17,18)

>  <source>  (123) 
ChEMBL25

>  <source_id>  (123) 
25

>  <optional_reference>  (123) 
10.1124/dmd.112.047068

>  <optional_origin>  (123) 
None

>  <target>  (123) 
BSEP

$$$$

     RDKit          2D

 16 17  0  0  0  0  0  0  0  0999 V2000
   33.8592  -28.8276    0.0000 C   0  0  0  0  0  0  0  0  0  0  0  0
   33.8592  -28.0051    0.0000 C   0  0  0  0  0  0  0  0  0  0  0  0
   33.1482  -27.5953    0.0000 C   0  0  0  0  0  0  0  0  0  0  0  0
   32.4348  -28.0081    0.0000 O   0  0  0  0  0  0  0  0  0  0  0  0
   34.5726  -27.5924    0.0000 C   0  0  0  0  0  0  0  0  0  0  0  0
   35.2849  -28.0053    0.0000 C   0  0  0  0  0  0  0  0  0  0  0  0
   36.0014  -27.5924    0.0000 C   0  0  0  0  0  0  0  0  0  0  0  0
   36.0014  -26.7674    0.0000 C   0  0  0  0  0  0  0  0  0  0  0  0
   35.2849  -26.3470    0.0000 C   0  0  0  0  0  0  0  0  0  0  0  0
   34.5726  -26.7674    0.0000 C   0  0  0  0  0  0  0  0  0  0  0  0
   36.7149  -26.3483    0.0000 C   0  0  0  0  0  0  0  0  0  0  0  0
   37.4324  -26.7648    0.0000 C   0  0  0  0  0  0  0  0  0  0  0  0
   37.4324  -27.5899    0.0000 C   0  0  0  0  0  0  0  0  0  0  0  0
   36.7138  -28.0024    0.0000 C   0  0  0  0  0  0  0  0  0  0  0  0
   38.1423  -26.3533    0.0000 O   0  0  0  0  0  0  0  0  0  0  0  0
   38.1423  -25.5308    0.0000 C   0  0  0  0  0  0  0  0  0  0  0  0
  1  2  1  0
  2  3  1  0
  3  4  1  0
  2  5  1  0
  5  6  2  0
  7  6  1  0
  8  7  2  0
  9  8  1  0
 10  9  2  0
  5 10  1  0
  8 11  1  0
 11 12  2  0
 12 13  1  0
 13 14  2  0
 14  7  1  0
 12 15  1  0
 15 16  1  0
M  END
>  <Classification>  (124) 
0

>  <pchembl>  (124) 
4.01

>  <InChI_steorem>  (124) 
InChI=1S/C14H16O2/c1-10(9-15)11-3-4-13-8-14(16-2)6-5-12(13)7-11/h3-8,10,15H,9H2,1-2H3

>  <source>  (124) 
ChEMBL25

>  <source_id>  (124) 
25

>  <optional_reference>  (124) 
10.1124/dmd.112.047068

>  <optional_origin>  (124) 
None

>  <target>  (124) 
BSEP

$$$$

     RDKit          2D

 20 22  0  0  0  0  0  0  0  0999 V2000
    7.1883   -8.1324    0.0000 C   0  0  0  0  0  0  0  0  0  0  0  0
    6.3800   -8.3026    0.0000 C   0  0  0  0  0  0  0  0  0  0  0  0
    5.8321   -7.6883    0.0000 C   0  0  0  0  0  0  0  0  0  0  0  0
    6.0843   -6.9037    0.0000 N   0  0  0  0  0  0  0  0  0  0  0  0
    6.8689   -6.6473    0.0000 C   0  0  0  0  0  0  0  0  0  0  0  0
    6.8689   -5.8216    0.0000 C   0  0  0  0  0  0  0  0  0  0  0  0
    7.6535   -5.5695    0.0000 S   0  0  0  0  0  0  0  0  0  0  0  0
    8.1388   -6.2366    0.0000 C   0  0  0  0  0  0  0  0  0  0  0  0
    7.6536   -6.9037    0.0000 N   0  0  0  0  0  0  0  0  0  0  0  0
    6.0843   -5.5695    0.0000 C   0  0  0  0  0  0  0  0  0  0  0  0
    5.5990   -6.2366    0.0000 C   0  0  0  0  0  0  0  0  0  0  0  0
    4.7733   -6.2366    0.0000 C   0  0  0  0  0  0  0  0  0  0  0  0
    4.3625   -5.5231    0.0000 O   0  0  0  0  0  0  0  0  0  0  0  0
    4.3625   -6.9501    0.0000 O   0  0  0  0  0  0  0  0  0  0  0  0
    6.1279   -9.0874    0.0000 C   0  0  0  0  0  0  0  0  0  0  0  0
    6.6798   -9.7017    0.0000 C   0  0  0  0  0  0  0  0  0  0  0  0
    6.4235  -10.4863    0.0000 Cl  0  0  0  0  0  0  0  0  0  0  0  0
    7.4882   -9.5272    0.0000 C   0  0  0  0  0  0  0  0  0  0  0  0
    8.0401  -10.1415    0.0000 Cl  0  0  0  0  0  0  0  0  0  0  0  0
    7.7403   -8.7426    0.0000 C   0  0  0  0  0  0  0  0  0  0  0  0
  1  2  2  0
  2  3  1  0
  3  4  1  0
  4  5  1  0
  6  5  2  0
  6  7  1  0
  8  7  1  0
  9  8  2  0
  5  9  1  0
 10  6  1  0
 11 10  2  0
  4 11  1  0
 11 12  1  0
 12 13  2  0
 12 14  1  0
 15  2  1  0
 16 15  2  0
 16 17  1  0
 18 16  1  0
 18 19  1  0
 20 18  2  0
  1 20  1  0
M  END
>  <Classification>  (125) 
0

>  <pchembl>  (125) 
4.65

>  <InChI_steorem>  (125) 
InChI=1S/C13H8Cl2N2O2S/c14-8-2-1-7(3-9(8)15)5-17-10(13(18)19)4-11-12(17)16-6-20-11/h1-4,6H,5H2,(H,18,19)

>  <source>  (125) 
ChEMBL25

>  <source_id>  (125) 
25

>  <optional_reference>  (125) 
10.1124/dmd.112.047068

>  <optional_origin>  (125) 
None

>  <target>  (125) 
BSEP

$$$$

     RDKit          2D

 24 26  0  0  0  0  0  0  0  0999 V2000
   15.3504  -11.6502    0.0000 C   0  0  0  0  0  0  0  0  0  0  0  0
   15.9019  -11.0406    0.0000 O   0  0  0  0  0  0  0  0  0  0  0  0
   15.6501  -10.2567    0.0000 C   0  0  0  0  0  0  0  0  0  0  0  0
   16.1349   -9.5861    0.0000 C   0  0  0  0  0  0  0  0  0  0  0  0
   16.9599   -9.5861    0.0000 C   0  0  0  0  0  0  0  0  0  0  0  0
   17.3703  -10.3030    0.0000 O   0  0  0  0  0  0  0  0  0  0  0  0
   17.3703   -8.8732    0.0000 O   0  0  0  0  0  0  0  0  0  0  0  0
   15.6501   -8.9195    0.0000 N   0  0  0  0  0  0  0  0  0  0  0  0
   15.9019   -8.1355    0.0000 C   0  0  0  0  0  0  0  0  0  0  0  0
   15.3504   -7.5259    0.0000 C   0  0  0  0  0  0  0  0  0  0  0  0
   14.5470   -7.6961    0.0000 C   0  0  0  0  0  0  0  0  0  0  0  0
   13.9955   -7.0822    0.0000 C   0  0  0  0  0  0  0  0  0  0  0  0
   13.1879   -7.2525    0.0000 Cl  0  0  0  0  0  0  0  0  0  0  0  0
   14.2474   -6.2982    0.0000 C   0  0  0  0  0  0  0  0  0  0  0  0
   13.6958   -5.6845    0.0000 Cl  0  0  0  0  0  0  0  0  0  0  0  0
   15.0550   -6.1281    0.0000 C   0  0  0  0  0  0  0  0  0  0  0  0
   15.6065   -6.7419    0.0000 C   0  0  0  0  0  0  0  0  0  0  0  0
   14.8661   -9.1755    0.0000 C   0  0  0  0  0  0  0  0  0  0  0  0
   14.8661  -10.0005    0.0000 C   0  0  0  0  0  0  0  0  0  0  0  0
   14.1532  -10.4111    0.0000 C   0  0  0  0  0  0  0  0  0  0  0  0
   13.4362  -10.0005    0.0000 C   0  0  0  0  0  0  0  0  0  0  0  0
   13.4362   -9.1755    0.0000 C   0  0  0  0  0  0  0  0  0  0  0  0
   14.1532   -8.7652    0.0000 C   0  0  0  0  0  0  0  0  0  0  0  0
   12.7234  -10.4111    0.0000 O   0  0  0  0  0  0  0  0  0  0  0  0
  1  2  1  0
  2  3  1  0
  3  4  2  0
  4  5  1  0
  5  6  2  0
  5  7  1  0
  8  4  1  0
  8  9  1  0
  9 10  1  0
 10 11  2  0
 12 11  1  0
 12 13  1  0
 14 12  2  0
 14 15  1  0
 16 14  1  0
 17 16  2  0
 10 17  1  0
 18  8  1  0
 19 18  2  0
  3 19  1  0
 19 20  1  0
 20 21  2  0
 21 22  1  0
 22 23  2  0
 23 18  1  0
 21 24  1  0
M  END
>  <Classification>  (126) 
0

>  <pchembl>  (126) 
4.4

>  <InChI_steorem>  (126) 
InChI=1S/C17H13Cl2NO4/c1-24-16-11-7-10(21)3-5-14(11)20(15(16)17(22)23)8-9-2-4-12(18)13(19)6-9/h2-7,21H,8H2,1H3,(H,22,23)

>  <source>  (126) 
ChEMBL25

>  <source_id>  (126) 
25

>  <optional_reference>  (126) 
10.1124/dmd.112.047068

>  <optional_origin>  (126) 
None

>  <target>  (126) 
BSEP

$$$$

     RDKit          2D

 31 34  0  0  0  0  0  0  0  0999 V2000
   25.1017   -6.1641    0.0000 C   0  0  0  0  0  0  0  0  0  0  0  0
   24.2763   -6.1640    0.0000 C   0  0  0  0  0  0  0  0  0  0  0  0
   23.7914   -5.4971    0.0000 C   0  0  0  0  0  0  0  0  0  0  0  0
   23.7342   -4.6704    0.0000 C   0  0  0  0  0  0  0  0  0  0  0  0
   22.9949   -4.3116    0.0000 O   0  0  0  0  0  0  0  0  0  0  0  0
   24.4205   -4.2109    0.0000 C   0  0  0  0  0  0  0  0  0  0  0  0
   24.3633   -3.3884    0.0000 O   0  0  0  0  0  0  0  0  0  0  0  0
   25.0455   -2.9289    0.0000 C   0  0  0  0  0  0  0  0  0  0  0  0
   25.7889   -3.2877    0.0000 O   0  0  0  0  0  0  0  0  0  0  0  0
   24.9881   -2.1063    0.0000 C   0  0  0  0  0  0  0  0  0  0  0  0
   24.5088   -5.0824    0.0000 O   0  0  0  0  0  0  0  0  0  0  0  0
   23.0071   -5.7490    0.0000 C   0  0  0  0  0  0  0  0  0  0  0  0
   23.0070   -6.5744    0.0000 C   0  0  0  0  0  0  0  0  0  0  0  0
   22.2937   -6.9891    0.0000 C   0  0  0  0  0  0  0  0  0  0  0  0
   21.5806   -6.5743    0.0000 C   0  0  0  0  0  0  0  0  0  0  0  0
   21.5806   -5.7489    0.0000 C   0  0  0  0  0  0  0  0  0  0  0  0
   22.2938   -5.3384    0.0000 C   0  0  0  0  0  0  0  0  0  0  0  0
   20.8675   -5.3382    0.0000 O   0  0  0  0  0  0  0  0  0  0  0  0
   20.8674   -6.9889    0.0000 C   0  0  0  0  0  0  0  0  0  0  0  0
   20.8673   -7.8143    0.0000 C   0  0  0  0  0  0  0  0  0  0  0  0
   20.1499   -8.2249    0.0000 C   0  0  0  0  0  0  0  0  0  0  0  0
   19.4367   -7.8142    0.0000 C   0  0  0  0  0  0  0  0  0  0  0  0
   18.7235   -8.2247    0.0000 O   0  0  0  0  0  0  0  0  0  0  0  0
   19.4368   -6.9888    0.0000 C   0  0  0  0  0  0  0  0  0  0  0  0
   20.1500   -6.5742    0.0000 C   0  0  0  0  0  0  0  0  0  0  0  0
   21.5804   -8.2250    0.0000 C   0  0  0  0  0  0  0  0  0  0  0  0
   21.5804   -9.0505    0.0000 F   0  0  0  0  0  0  0  0  0  0  0  0
   22.2936   -7.8104    0.0000 C   0  0  0  0  0  0  0  0  0  0  0  0
   20.8674   -6.1636    0.0000 C   0  0  0  0  0  0  0  0  0  0  0  0
   23.7912   -6.8306    0.0000 C   0  0  0  0  0  0  0  0  0  0  0  0
   23.0930   -4.9302    0.0000 C   0  0  0  0  0  0  0  0  0  0  0  0
  1  2  1  0
  2  3  1  0
  3  4  1  0
  4  5  2  0
  4  6  1  0
  6  7  1  0
  7  8  1  0
  8  9  2  0
  8 10  1  0
  3 11  1  0
 12  3  1  0
 13 12  1  0
 13 14  1  0
 14 15  1  0
 15 16  1  0
 16 17  1  0
 17 12  1  0
 16 18  1  0
 19 15  1  0
 20 19  1  0
 20 21  2  0
 21 22  1  0
 22 23  2  0
 22 24  1  0
 24 25  2  0
 25 19  1  0
 26 20  1  0
 26 27  1  0
 28 26  1  0
 14 28  1  0
 19 29  1  0
 30 13  1  0
  2 30  1  0
 12 31  1  0
M  END
>  <Classification>  (127) 
0

>  <pchembl>  (127) 
4.47

>  <InChI_steorem>  (127) 
InChI=1S/C24H31FO6/c1-12-7-16-15-9-18(25)17-8-14(27)5-6-22(17,3)21(15)19(28)10-23(16,4)24(12,30)20(29)11-31-13(2)26/h5-6,8,12,15-16,18-19,21,28,30H,7,9-11H2,1-4H3

>  <source>  (127) 
ChEMBL25

>  <source_id>  (127) 
25

>  <optional_reference>  (127) 
10.1124/dmd.112.047068

>  <optional_origin>  (127) 
None

>  <target>  (127) 
BSEP

$$$$

     RDKit          2D

 29 32  0  0  0  0  0  0  0  0999 V2000
   36.7026   -9.3812    0.0000 C   0  0  0  0  0  0  0  0  0  0  0  0
   36.5505   -8.5767    0.0000 C   0  0  0  0  0  0  0  0  0  0  0  0
   35.7736   -8.3044    0.0000 C   0  0  0  0  0  0  0  0  0  0  0  0
   35.1533   -8.8452    0.0000 O   0  0  0  0  0  0  0  0  0  0  0  0
   37.1666   -8.0359    0.0000 N   0  0  0  0  0  0  0  0  0  0  0  0
   37.9434   -8.3038    0.0000 C   0  0  0  0  0  0  0  0  0  0  0  0
   38.5638   -7.7672    0.0000 C   0  0  0  0  0  0  0  0  0  0  0  0
   39.3406   -8.0352    0.0000 C   0  0  0  0  0  0  0  0  0  0  0  0
   39.9610   -7.4987    0.0000 C   0  0  0  0  0  0  0  0  0  0  0  0
   39.8041   -6.6887    0.0000 C   0  0  0  0  0  0  0  0  0  0  0  0
   40.4320   -6.1520    0.0000 C   0  0  0  0  0  0  0  0  0  0  0  0
   41.2093   -6.4253    0.0000 C   0  0  0  0  0  0  0  0  0  0  0  0
   41.3631   -7.2356    0.0000 C   0  0  0  0  0  0  0  0  0  0  0  0
   40.7426   -7.7721    0.0000 C   0  0  0  0  0  0  0  0  0  0  0  0
   41.8332   -5.8929    0.0000 C   0  0  0  0  0  0  0  0  0  0  0  0
   40.2826   -5.3461    0.0000 C   0  0  0  0  0  0  0  0  0  0  0  0
   40.9034   -4.8107    0.0000 O   0  0  0  0  0  0  0  0  0  0  0  0
   39.5081   -5.0714    0.0000 N   0  0  0  0  0  0  0  0  0  0  0  0
   39.3544   -4.2656    0.0000 C   0  0  0  0  0  0  0  0  0  0  0  0
   38.5799   -3.9952    0.0000 C   0  0  0  0  0  0  0  0  0  0  0  0
   37.9927   -4.7352    0.0000 C   0  0  0  0  0  0  0  0  0  0  0  0
   37.1774   -4.4112    0.0000 C   0  0  0  0  0  0  0  0  0  0  0  0
   36.3048   -4.6559    0.0000 C   0  0  0  0  0  0  0  0  0  0  0  0
   36.9974   -3.9168    0.0000 C   0  0  0  0  0  0  0  0  0  0  0  0
   37.7680   -4.1936    0.0000 C   0  0  0  0  0  0  0  0  0  0  0  0
   36.9974   -3.0478    0.0000 C   0  0  0  0  0  0  0  0  0  0  0  0
   37.7772   -2.7725    0.0000 C   0  0  0  0  0  0  0  0  0  0  0  0
   37.1774   -3.4874    0.0000 C   0  0  0  0  0  0  0  0  0  0  0  0
   38.5799   -3.1039    0.0000 C   0  0  0  0  0  0  0  0  0  0  0  0
  2  1  1  0
  2  3  1  0
  3  4  1  0
  2  5  1  0
  5  6  1  0
  6  7  1  0
  7  8  1  0
  8  9  1  0
  9 10  2  0
 11 10  1  0
 12 11  2  0
 13 12  1  0
 14 13  2  0
  9 14  1  0
 12 15  1  0
 11 16  1  0
 16 17  2  0
 16 18  1  0
 18 19  1  0
 19 20  1  0
 20 21  1  0
 22 21  1  0
 23 22  1  0
 24 23  1  0
 25 24  1  0
 20 25  1  0
 24 26  1  0
 27 26  1  0
 28 27  1  0
 22 28  1  0
 27 29  1  0
 20 29  1  0
M  END
>  <Classification>  (128) 
0

>  <pchembl>  (128) 
4.18

>  <InChI_steorem>  (128) 
InChI=1S/C25H38N2O2/c1-17-5-6-19(4-3-7-26-18(2)15-28)11-23(17)24(29)27-16-25-12-20-8-21(13-25)10-22(9-20)14-25/h5-6,11,18,20-22,26,28H,3-4,7-10,12-16H2,1-2H3,(H,27,29)

>  <source>  (128) 
ChEMBL25

>  <source_id>  (128) 
25

>  <optional_reference>  (128) 
10.1124/dmd.112.047068

>  <optional_origin>  (128) 
None

>  <target>  (128) 
BSEP

$$$$

     RDKit          2D

 25 28  0  0  0  0  0  0  0  0999 V2000
   12.6436  -12.4908    0.0000 C   0  0  0  0  0  0  0  0  0  0  0  0
   12.6436  -13.3146    0.0000 C   0  0  0  0  0  0  0  0  0  0  0  0
   10.5141  -14.5584    0.0000 C   0  0  0  0  0  0  0  0  0  0  0  0
   11.9361  -13.7165    0.0000 C   0  0  0  0  0  0  0  0  0  0  0  0
   11.2239  -13.3245    0.0000 C   0  0  0  0  0  0  0  0  0  0  0  0
   10.5141  -13.7346    0.0000 C   0  0  0  0  0  0  0  0  0  0  0  0
    9.7943  -14.9822    0.0000 C   0  0  0  0  0  0  0  0  0  0  0  0
   11.9337  -12.0709    0.0000 C   0  0  0  0  0  0  0  0  0  0  0  0
   11.2140  -12.4908    0.0000 C   0  0  0  0  0  0  0  0  0  0  0  0
   11.9478  -14.5484    0.0000 C   0  0  0  0  0  0  0  0  0  0  0  0
    9.7863  -13.3325    0.0000 C   0  0  0  0  0  0  0  0  0  0  0  0
   11.2380  -14.9742    0.0000 C   0  0  0  0  0  0  0  0  0  0  0  0
    9.0832  -14.5644    0.0000 C   0  0  0  0  0  0  0  0  0  0  0  0
    8.3686  -14.9761    0.0000 O   0  0  0  0  0  0  0  0  0  0  0  0
    9.0844  -13.7446    0.0000 C   0  0  0  0  0  0  0  0  0  0  0  0
   12.4986  -11.6785    0.0000 C   0  0  0  0  0  0  0  0  0  0  0  0
   13.4310  -13.5726    0.0000 C   0  0  0  0  0  0  0  0  0  0  0  0
   13.9174  -12.9006    0.0000 C   0  0  0  0  0  0  0  0  0  0  0  0
   13.4310  -12.2329    0.0000 C   0  0  0  0  0  0  0  0  0  0  0  0
   13.2162  -11.4351    0.0000 C   0  0  0  0  0  0  0  0  0  0  0  0
   13.0055  -10.6417    0.0000 C   0  0  0  0  0  0  0  0  0  0  0  0
   14.1456  -11.8211    0.0000 O   0  0  0  0  0  0  0  0  0  0  0  0
   14.8561  -12.2329    0.0000 C   0  0  0  0  0  0  0  0  0  0  0  0
   15.5708  -11.8211    0.0000 C   0  0  0  0  0  0  0  0  0  0  0  0
   14.8561  -13.0564    0.0000 O   0  0  0  0  0  0  0  0  0  0  0  0
  2  1  1  0
  3 12  1  0
  4  2  1  0
  5  4  1  0
  6  5  1  0
  7  3  2  0
  8  1  1  0
  9  8  1  0
 10  4  1  0
 11  6  1  0
 12 10  1  0
 13  7  1  0
 14 13  2  0
 15 11  1  0
  1 16  1  0
  9  5  1  0
  3  6  1  0
 13 15  1  0
  2 17  1  0
 17 18  1  0
 18 19  1  0
 19  1  1  0
 19 20  1  0
 20 21  3  0
 19 22  1  0
 22 23  1  0
 23 24  1  0
 23 25  2  0
M  END
>  <Classification>  (129) 
0

>  <pchembl>  (129) 
4.44

>  <InChI_steorem>  (129) 
InChI=1S/C22H28O3/c1-4-22(25-14(2)23)12-10-20-19-7-5-15-13-16(24)6-8-17(15)18(19)9-11-21(20,22)3/h1,13,17-20H,5-12H2,2-3H3

>  <source>  (129) 
ChEMBL25

>  <source_id>  (129) 
25

>  <optional_reference>  (129) 
10.1093/toxsci/kft176

>  <optional_origin>  (129) 
None

>  <target>  (129) 
BSEP

$$$$

     RDKit          2D

 20 22  0  0  0  0  0  0  0  0999 V2000
   11.6085   -4.8028    0.0000 C   0  0  0  0  0  0  0  0  0  0  0  0
   10.7947   -4.9765    0.0000 C   0  0  0  0  0  0  0  0  0  0  0  0
   10.5325   -5.7592    0.0000 C   0  0  0  0  0  0  0  0  0  0  0  0
   11.0918   -6.3740    0.0000 C   0  0  0  0  0  0  0  0  0  0  0  0
   11.9016   -6.2044    0.0000 C   0  0  0  0  0  0  0  0  0  0  0  0
   12.1561   -5.4200    0.0000 C   0  0  0  0  0  0  0  0  0  0  0  0
   12.4528   -6.8141    0.0000 Cl  0  0  0  0  0  0  0  0  0  0  0  0
   10.8374   -7.1583    0.0000 Cl  0  0  0  0  0  0  0  0  0  0  0  0
   10.2471   -4.3591    0.0000 C   0  0  0  0  0  0  0  0  0  0  0  0
   10.5042   -3.5770    0.0000 N   0  0  0  0  0  0  0  0  0  0  0  0
   10.0237   -2.9073    0.0000 C   0  0  0  0  0  0  0  0  0  0  0  0
   10.5128   -2.2441    0.0000 C   0  0  0  0  0  0  0  0  0  0  0  0
   11.2898   -2.5011    0.0000 C   0  0  0  0  0  0  0  0  0  0  0  0
   11.2898   -3.3261    0.0000 C   0  0  0  0  0  0  0  0  0  0  0  0
   12.0761   -3.5837    0.0000 C   0  0  0  0  0  0  0  0  0  0  0  0
   12.5615   -2.9207    0.0000 C   0  0  0  0  0  0  0  0  0  0  0  0
   12.0814   -2.2509    0.0000 S   0  0  0  0  0  0  0  0  0  0  0  0
    9.1988   -2.9073    0.0000 C   0  0  0  0  0  0  0  0  0  0  0  0
    8.7930   -2.1866    0.0000 O   0  0  0  0  0  0  0  0  0  0  0  0
    8.7838   -3.6162    0.0000 O   0  0  0  0  0  0  0  0  0  0  0  0
  1  2  2  0
  3  2  1  0
  4  3  2  0
  5  4  1  0
  6  5  2  0
  1  6  1  0
  5  7  1  0
  4  8  1  0
  2  9  1  0
  9 10  1  0
 10 11  1  0
 12 11  2  0
 13 12  1  0
 14 13  2  0
 10 14  1  0
 14 15  1  0
 15 16  2  0
 16 17  1  0
 17 13  1  0
 11 18  1  0
 18 19  2  0
 18 20  1  0
M  END
>  <Classification>  (130) 
0

>  <pchembl>  (130) 
4.86

>  <InChI_steorem>  (130) 
InChI=1S/C14H9Cl2NO2S/c15-9-2-1-8(5-10(9)16)7-17-11-3-4-20-13(11)6-12(17)14(18)19/h1-6H,7H2,(H,18,19)

>  <source>  (130) 
ChEMBL25

>  <source_id>  (130) 
25

>  <optional_reference>  (130) 
10.1124/dmd.112.047068

>  <optional_origin>  (130) 
None

>  <target>  (130) 
BSEP

$$$$

     RDKit          2D

 23 25  0  0  0  0  0  0  0  0999 V2000
   24.1068   -7.2206    0.0000 C   0  0  0  0  0  0  0  0  0  0  0  0
   23.5553   -6.6068    0.0000 C   0  0  0  0  0  0  0  0  0  0  0  0
   23.8113   -5.8228    0.0000 C   0  0  0  0  0  0  0  0  0  0  0  0
   23.2556   -5.2090    0.0000 Cl  0  0  0  0  0  0  0  0  0  0  0  0
   24.6148   -5.6526    0.0000 C   0  0  0  0  0  0  0  0  0  0  0  0
   24.8708   -4.8686    0.0000 Cl  0  0  0  0  0  0  0  0  0  0  0  0
   25.1664   -6.2622    0.0000 C   0  0  0  0  0  0  0  0  0  0  0  0
   24.9102   -7.0504    0.0000 C   0  0  0  0  0  0  0  0  0  0  0  0
   25.4660   -7.6601    0.0000 C   0  0  0  0  0  0  0  0  0  0  0  0
   25.2100   -8.4441    0.0000 N   0  0  0  0  0  0  0  0  0  0  0  0
   24.4259   -8.7002    0.0000 C   0  0  0  0  0  0  0  0  0  0  0  0
   23.7130   -8.2856    0.0000 C   0  0  0  0  0  0  0  0  0  0  0  0
   22.9961   -8.7002    0.0000 C   0  0  0  0  0  0  0  0  0  0  0  0
   22.9961   -9.5252    0.0000 C   0  0  0  0  0  0  0  0  0  0  0  0
   22.2831   -9.9356    0.0000 O   0  0  0  0  0  0  0  0  0  0  0  0
   23.7130   -9.9356    0.0000 C   0  0  0  0  0  0  0  0  0  0  0  0
   23.7130  -10.7607    0.0000 F   0  0  0  0  0  0  0  0  0  0  0  0
   24.4259   -9.5252    0.0000 C   0  0  0  0  0  0  0  0  0  0  0  0
   25.2100   -9.7812    0.0000 C   0  0  0  0  0  0  0  0  0  0  0  0
   25.6947   -9.1106    0.0000 C   0  0  0  0  0  0  0  0  0  0  0  0
   26.5198   -9.1105    0.0000 C   0  0  0  0  0  0  0  0  0  0  0  0
   26.9303   -8.3977    0.0000 O   0  0  0  0  0  0  0  0  0  0  0  0
   26.9303   -9.8234    0.0000 O   0  0  0  0  0  0  0  0  0  0  0  0
  1  2  2  0
  2  3  1  0
  3  4  1  0
  3  5  2  0
  5  6  1  0
  5  7  1  0
  7  8  2  0
  1  8  1  0
  8  9  1  0
  9 10  1  0
 10 11  1  0
 11 12  2  0
 12 13  1  0
 13 14  2  0
 14 15  1  0
 14 16  1  0
 16 17  1  0
 16 18  2  0
 11 18  1  0
 18 19  1  0
 19 20  2  0
 10 20  1  0
 20 21  1  0
 21 22  1  0
 21 23  2  0
M  END
>  <Classification>  (131) 
0

>  <pchembl>  (131) 
4.71

>  <InChI_steorem>  (131) 
InChI=1S/C16H10Cl2FNO3/c17-10-2-1-8(5-11(10)18)7-20-12-3-4-14(21)15(19)9(12)6-13(20)16(22)23/h1-6,21H,7H2,(H,22,23)

>  <source>  (131) 
ChEMBL25

>  <source_id>  (131) 
25

>  <optional_reference>  (131) 
10.1124/dmd.112.047068

>  <optional_origin>  (131) 
None

>  <target>  (131) 
BSEP

$$$$

     RDKit          2D

 32 34  0  0  0  0  0  0  0  0999 V2000
    9.5860   -3.5739    0.0000 C   0  0  0  0  0  0  0  0  0  0  0  0
    8.8721   -3.9872    0.0000 C   0  0  0  0  0  0  0  0  0  0  0  0
    9.5819   -2.7556    0.0000 C   0  0  0  0  0  0  0  0  0  0  0  0
    8.1581   -3.5739    0.0000 N   0  0  0  0  0  0  0  0  0  0  0  0
   10.3000   -3.9956    0.0000 C   0  0  0  0  0  0  0  0  0  0  0  0
   10.2957   -2.3423    0.0000 C   0  0  0  0  0  0  0  0  0  0  0  0
    7.4400   -3.9872    0.0000 C   0  0  0  0  0  0  0  0  0  0  0  0
   11.0139   -3.5823    0.0000 C   0  0  0  0  0  0  0  0  0  0  0  0
    6.7177   -3.5739    0.0000 C   0  0  0  0  0  0  0  0  0  0  0  0
   11.0139   -2.7556    0.0000 C   0  0  0  0  0  0  0  0  0  0  0  0
    6.0121   -4.8139    0.0000 N   0  0  0  0  0  0  0  0  0  0  0  0
    6.0038   -3.9872    0.0000 C   0  0  0  0  0  0  0  0  0  0  0  0
    7.4400   -4.8139    0.0000 C   0  0  0  0  0  0  0  0  0  0  0  0
    8.8721   -4.8139    0.0000 O   0  0  0  0  0  0  0  0  0  0  0  0
    6.7261   -5.2272    0.0000 C   0  0  0  0  0  0  0  0  0  0  0  0
   11.7279   -2.3339    0.0000 N   0  0  0  0  0  0  0  0  0  0  0  0
   11.7279   -3.9956    0.0000 Cl  0  0  0  0  0  0  0  0  0  0  0  0
    8.8596   -2.3464    0.0000 O   0  0  0  0  0  0  0  0  0  0  0  0
    1.0062   -6.0789    0.0000 C   0  0  0  0  0  0  0  0  0  0  0  0
    6.7177   -2.7472    0.0000 O   0  0  0  0  0  0  0  0  0  0  0  0
    2.4341   -5.2481    0.0000 C   0  0  0  0  0  0  0  0  0  0  0  0
    0.2797   -6.4922    0.0000 F   0  0  0  0  0  0  0  0  0  0  0  0
    1.7201   -6.4922    0.0000 C   0  0  0  0  0  0  0  0  0  0  0  0
    1.0062   -5.2481    0.0000 C   0  0  0  0  0  0  0  0  0  0  0  0
    2.4341   -6.0789    0.0000 C   0  0  0  0  0  0  0  0  0  0  0  0
    1.7201   -4.8347    0.0000 C   0  0  0  0  0  0  0  0  0  0  0  0
    5.2982   -5.2355    0.0000 C   0  0  0  0  0  0  0  0  0  0  0  0
    4.5759   -4.8264    0.0000 C   0  0  0  0  0  0  0  0  0  0  0  0
    3.1480   -4.8264    0.0000 O   0  0  0  0  0  0  0  0  0  0  0  0
    3.8620   -5.2398    0.0000 C   0  0  0  0  0  0  0  0  0  0  0  0
    8.8596   -1.5197    0.0000 C   0  0  0  0  0  0  0  0  0  0  0  0
    7.4400   -2.3339    0.0000 C   0  0  0  0  0  0  0  0  0  0  0  0
  2  1  1  0
  3  1  2  0
  4  2  1  0
  5  1  1  0
  6  3  1  0
  7  4  1  0
  8  5  2  0
  9  7  1  0
 10  8  1  0
 11 15  1  0
 12  9  1  0
 13  7  1  0
 14  2  2  0
 15 13  1  0
 16 10  1  0
 17  8  1  0
 18  3  1  0
 19 24  2  0
  9 20  1  0
 21 29  1  0
 22 19  1  0
 23 25  2  0
 24 26  1  0
 25 21  1  0
 26 21  2  0
 27 11  1  0
 28 27  1  0
 29 30  1  0
 30 28  1  0
 31 18  1  0
 32 20  1  0
  6 10  2  0
 12 11  1  0
 19 23  1  0
M  END
>  <Classification>  (132) 
0

>  <pchembl>  (132) 
4.66

>  <InChI_steorem>  (132) 
InChI=1S/C23H29ClFN3O4/c1-30-21-13-19(26)18(24)12-17(21)23(29)27-20-8-10-28(14-22(20)31-2)9-3-11-32-16-6-4-15(25)5-7-16/h4-7,12-13,20,22H,3,8-11,14,26H2,1-2H3,(H,27,29)

>  <source>  (132) 
ChEMBL25

>  <source_id>  (132) 
25

>  <optional_reference>  (132) 
10.1093/toxsci/kft176

>  <optional_origin>  (132) 
None

>  <target>  (132) 
BSEP

$$$$

     RDKit          2D

 30 31  0  0  0  0  0  0  0  0999 V2000
   36.7636  -12.7256    0.0000 C   0  0  0  0  0  0  0  0  0  0  0  0
   37.1741  -13.4388    0.0000 C   0  0  0  0  0  0  0  0  0  0  0  0
   37.5890  -12.7256    0.0000 O   0  0  0  0  0  0  0  0  0  0  0  0
   36.4610  -13.8536    0.0000 C   0  0  0  0  0  0  0  0  0  0  0  0
   35.7477  -14.2642    0.0000 F   0  0  0  0  0  0  0  0  0  0  0  0
   35.7477  -13.4388    0.0000 F   0  0  0  0  0  0  0  0  0  0  0  0
   36.4610  -14.6748    0.0000 F   0  0  0  0  0  0  0  0  0  0  0  0
   37.8916  -13.8536    0.0000 C   0  0  0  0  0  0  0  0  0  0  0  0
   38.6049  -13.4388    0.0000 N   0  0  0  0  0  0  0  0  0  0  0  0
   39.3180  -13.8536    0.0000 C   0  0  0  0  0  0  0  0  0  0  0  0
   39.3180  -14.6748    0.0000 C   0  0  0  0  0  0  0  0  0  0  0  0
   40.0354  -15.0896    0.0000 C   0  0  0  0  0  0  0  0  0  0  0  0
   40.7486  -14.6748    0.0000 C   0  0  0  0  0  0  0  0  0  0  0  0
   41.4618  -15.0896    0.0000 S   0  0  0  0  0  0  0  0  0  0  0  0
   42.1751  -14.6748    0.0000 C   0  0  0  0  0  0  0  0  0  0  0  0
   42.1751  -13.8536    0.0000 C   0  0  0  0  0  0  0  0  0  0  0  0
   42.8925  -13.4388    0.0000 C   0  0  0  0  0  0  0  0  0  0  0  0
   43.6057  -13.8536    0.0000 C   0  0  0  0  0  0  0  0  0  0  0  0
   44.3190  -13.4388    0.0000 N   0  0  0  0  0  0  0  0  0  0  0  0
   44.3190  -12.6134    0.0000 C   0  0  0  0  0  0  0  0  0  0  0  0
   45.0321  -12.2027    0.0000 C   0  0  0  0  0  0  0  0  0  0  0  0
   45.0321  -11.3773    0.0000 O   0  0  0  0  0  0  0  0  0  0  0  0
   43.6057  -14.6748    0.0000 C   0  0  0  0  0  0  0  0  0  0  0  0
   42.8925  -15.0896    0.0000 C   0  0  0  0  0  0  0  0  0  0  0  0
   41.0501  -15.8047    0.0000 O   0  0  0  0  0  0  0  0  0  0  0  0
   41.8755  -15.8047    0.0000 O   0  0  0  0  0  0  0  0  0  0  0  0
   40.7486  -13.8536    0.0000 C   0  0  0  0  0  0  0  0  0  0  0  0
   40.0354  -13.4388    0.0000 C   0  0  0  0  0  0  0  0  0  0  0  0
   40.0354  -12.6134    0.0000 Cl  0  0  0  0  0  0  0  0  0  0  0  0
   37.8916  -14.6748    0.0000 O   0  0  0  0  0  0  0  0  0  0  0  0
  1  2  1  0
  2  3  1  0
  2  4  1  0
  4  5  1  0
  4  6  1  0
  4  7  1  0
  2  8  1  0
  8  9  1  0
  9 10  1  0
 10 11  2  0
 11 12  1  0
 12 13  2  0
 13 14  1  0
 14 15  1  0
 15 16  2  0
 16 17  1  0
 17 18  2  0
 18 19  1  0
 19 20  1  0
 20 21  1  0
 21 22  1  0
 18 23  1  0
 23 24  2  0
 15 24  1  0
 14 25  2  0
 14 26  2  0
 13 27  1  0
 27 28  2  0
 10 28  1  0
 28 29  1  0
  8 30  2  0
M  END
>  <Classification>  (133) 
0

>  <pchembl>  (133) 
4.56

>  <InChI_steorem>  (133) 
InChI=1S/C18H18ClF3N2O5S/c1-17(27,18(20,21)22)16(26)24-15-7-6-13(10-14(15)19)30(28,29)12-4-2-11(3-5-12)23-8-9-25/h2-7,10,23,25,27H,8-9H2,1H3,(H,24,26)

>  <source>  (133) 
ChEMBL25

>  <source_id>  (133) 
25

>  <optional_reference>  (133) 
10.1124/dmd.112.047068

>  <optional_origin>  (133) 
None

>  <target>  (133) 
BSEP

$$$$

     RDKit          2D

 35 40  0  0  0  0  0  0  0  0999 V2000
   18.7354   -3.1906    0.0000 O   0  0  0  0  0  0  0  0  0  0  0  0
   19.4518   -3.6030    0.0000 S   0  0  0  0  0  0  0  0  0  0  0  0
   19.4507   -2.7763    0.0000 O   0  0  0  0  0  0  0  0  0  0  0  0
   24.1791   -9.3287    0.0000 C   0  0  0  0  0  0  0  0  0  0  0  0
   24.8953   -8.9156    0.0000 C   0  0  0  0  0  0  0  0  0  0  0  0
   24.8924   -8.0852    0.0000 C   0  0  0  0  0  0  0  0  0  0  0  0
   24.1773   -7.6764    0.0000 C   0  0  0  0  0  0  0  0  0  0  0  0
   23.4645   -8.9161    0.0000 C   0  0  0  0  0  0  0  0  0  0  0  0
   23.4611   -8.0920    0.0000 C   0  0  0  0  0  0  0  0  0  0  0  0
   22.6765   -7.8405    0.0000 C   0  0  0  0  0  0  0  0  0  0  0  0
   22.1947   -8.5091    0.0000 N   0  0  0  0  0  0  0  0  0  0  0  0
   22.6818   -9.1737    0.0000 N   0  0  0  0  0  0  0  0  0  0  0  0
   24.1747   -6.8516    0.0000 C   0  0  0  0  0  0  0  0  0  0  0  0
   24.8863   -6.4402    0.0000 N   0  0  0  0  0  0  0  0  0  0  0  0
   24.8840   -5.6163    0.0000 C   0  0  0  0  0  0  0  0  0  0  0  0
   23.4584   -6.4471    0.0000 N   0  0  0  0  0  0  0  0  0  0  0  0
   25.5967   -5.2036    0.0000 N   0  0  0  0  0  0  0  0  0  0  0  0
   26.3119   -5.6162    0.0000 C   0  0  0  0  0  0  0  0  0  0  0  0
   27.0228   -5.2054    0.0000 C   0  0  0  0  0  0  0  0  0  0  0  0
   27.0248   -4.3802    0.0000 O   0  0  0  0  0  0  0  0  0  0  0  0
   26.3097   -3.9678    0.0000 C   0  0  0  0  0  0  0  0  0  0  0  0
   25.5924   -4.3801    0.0000 C   0  0  0  0  0  0  0  0  0  0  0  0
   23.4526   -5.6245    0.0000 C   0  0  0  0  0  0  0  0  0  0  0  0
   24.1676   -5.2072    0.0000 C   0  0  0  0  0  0  0  0  0  0  0  0
   23.9916   -4.3980    0.0000 S   0  0  0  0  0  0  0  0  0  0  0  0
   23.1677   -4.3154    0.0000 C   0  0  0  0  0  0  0  0  0  0  0  0
   22.8347   -5.0735    0.0000 C   0  0  0  0  0  0  0  0  0  0  0  0
   22.7519   -3.6033    0.0000 C   0  0  0  0  0  0  0  0  0  0  0  0
   21.9272   -3.6072    0.0000 N   0  0  0  0  0  0  0  0  0  0  0  0
   21.5117   -2.8884    0.0000 C   0  0  0  0  0  0  0  0  0  0  0  0
   20.6905   -2.8903    0.0000 C   0  0  0  0  0  0  0  0  0  0  0  0
   20.2777   -3.6049    0.0000 N   0  0  0  0  0  0  0  0  0  0  0  0
   20.6923   -4.3188    0.0000 C   0  0  0  0  0  0  0  0  0  0  0  0
   21.5197   -4.3185    0.0000 C   0  0  0  0  0  0  0  0  0  0  0  0
   19.0413   -4.3202    0.0000 C   0  0  0  0  0  0  0  0  0  0  0  0
  2  1  2  0
  3  2  2  0
  8  4  2  0
  4  5  1  0
  5  6  2  0
  6  7  1  0
  7  9  2  0
  8  9  1  0
  9 10  1  0
 10 11  2  0
 11 12  1  0
 12  8  1  0
  7 13  1  0
 13 14  2  0
 14 15  1  0
 15 24  2  0
 23 16  2  0
 16 13  1  0
 17 18  1  0
 17 22  1  0
 18 19  1  0
 19 20  1  0
 20 21  1  0
 21 22  1  0
 15 17  1  0
 23 24  1  0
 24 25  1  0
 25 26  1  0
 26 27  2  0
 27 23  1  0
 26 28  1  0
 28 29  1  0
 29 30  1  0
 29 34  1  0
 30 31  1  0
 31 32  1  0
 32 33  1  0
 33 34  1  0
 32  2  1  0
  2 35  1  0
M  END
>  <Classification>  (134) 
0

>  <pchembl>  (134) 
4.82

>  <InChI_steorem>  (134) 
InChI=1S/C23H27N7O3S2/c1-35(31,32)30-7-5-28(6-8-30)15-16-13-20-21(34-16)23(29-9-11-33-12-10-29)26-22(25-20)17-3-2-4-19-18(17)14-24-27-19/h2-4,13-14H,5-12,15H2,1H3,(H,24,27)

>  <source>  (134) 
ChEMBL25

>  <source_id>  (134) 
25

>  <optional_reference>  (134) 
10.1093/toxsci/kft176

>  <optional_origin>  (134) 
None

>  <target>  (134) 
BSEP

$$$$

     RDKit          2D

 25 27  0  0  0  0  0  0  0  0999 V2000
   12.5244  -20.8641    0.0000 C   0  0  0  0  0  0  0  0  0  0  0  0
   13.2335  -20.4515    0.0000 C   0  0  0  0  0  0  0  0  0  0  0  0
   13.9485  -20.8611    0.0000 O   0  0  0  0  0  0  0  0  0  0  0  0
   13.2335  -19.6292    0.0000 O   0  0  0  0  0  0  0  0  0  0  0  0
   13.9451  -19.2166    0.0000 C   0  0  0  0  0  0  0  0  0  0  0  0
   14.6615  -19.6251    0.0000 C   0  0  0  0  0  0  0  0  0  0  0  0
   15.3737  -19.2180    0.0000 C   0  0  0  0  0  0  0  0  0  0  0  0
   15.3737  -18.3874    0.0000 C   0  0  0  0  0  0  0  0  0  0  0  0
   14.6615  -17.9710    0.0000 C   0  0  0  0  0  0  0  0  0  0  0  0
   13.9451  -18.3874    0.0000 C   0  0  0  0  0  0  0  0  0  0  0  0
   16.1628  -18.1327    0.0000 N   0  0  0  0  0  0  0  0  0  0  0  0
   16.6492  -18.8027    0.0000 C   0  0  0  0  0  0  0  0  0  0  0  0
   16.1628  -19.4730    0.0000 C   0  0  0  0  0  0  0  0  0  0  0  0
   17.4715  -18.8027    0.0000 C   0  0  0  0  0  0  0  0  0  0  0  0
   17.8827  -19.5167    0.0000 O   0  0  0  0  0  0  0  0  0  0  0  0
   17.8826  -18.0885    0.0000 O   0  0  0  0  0  0  0  0  0  0  0  0
   16.4152  -17.3516    0.0000 C   0  0  0  0  0  0  0  0  0  0  0  0
   15.8668  -16.7366    0.0000 C   0  0  0  0  0  0  0  0  0  0  0  0
   15.0568  -16.9119    0.0000 C   0  0  0  0  0  0  0  0  0  0  0  0
   14.5081  -16.2938    0.0000 C   0  0  0  0  0  0  0  0  0  0  0  0
   14.7698  -15.5080    0.0000 C   0  0  0  0  0  0  0  0  0  0  0  0
   15.5718  -15.3401    0.0000 C   0  0  0  0  0  0  0  0  0  0  0  0
   16.1244  -15.9508    0.0000 C   0  0  0  0  0  0  0  0  0  0  0  0
   14.2211  -14.8938    0.0000 Cl  0  0  0  0  0  0  0  0  0  0  0  0
   13.7019  -16.4575    0.0000 Cl  0  0  0  0  0  0  0  0  0  0  0  0
  1  2  1  0
  2  3  2  0
  2  4  1  0
  4  5  1  0
  5  6  2  0
  7  6  1  0
  8  7  2  0
  9  8  1  0
 10  9  2  0
  5 10  1  0
  8 11  1  0
 12 11  1  0
 13 12  2  0
  7 13  1  0
 12 14  1  0
 14 15  2  0
 14 16  1  0
 11 17  1  0
 17 18  1  0
 18 19  2  0
 20 19  1  0
 21 20  2  0
 22 21  1  0
 23 22  2  0
 18 23  1  0
 21 24  1  0
 20 25  1  0
M  END
>  <Classification>  (135) 
0

>  <pchembl>  (135) 
4.26

>  <InChI_steorem>  (135) 
InChI=1S/C18H13Cl2NO4/c1-10(22)25-13-3-5-16-12(7-13)8-17(18(23)24)21(16)9-11-2-4-14(19)15(20)6-11/h2-8H,9H2,1H3,(H,23,24)

>  <source>  (135) 
ChEMBL25

>  <source_id>  (135) 
25

>  <optional_reference>  (135) 
10.1124/dmd.112.047068

>  <optional_origin>  (135) 
None

>  <target>  (135) 
BSEP

$$$$

     RDKit          2D

 25 27  0  0  0  0  0  0  0  0999 V2000
   13.9842  -18.8451    0.0000 C   0  0  0  0  0  0  0  0  0  0  0  0
   14.7878  -18.6707    0.0000 C   0  0  0  0  0  0  0  0  0  0  0  0
   15.3436  -19.2847    0.0000 C   0  0  0  0  0  0  0  0  0  0  0  0
   15.0876  -20.0690    0.0000 N   0  0  0  0  0  0  0  0  0  0  0  0
   15.5725  -20.7356    0.0000 C   0  0  0  0  0  0  0  0  0  0  0  0
   16.3978  -20.7356    0.0000 C   0  0  0  0  0  0  0  0  0  0  0  0
   16.8083  -21.4487    0.0000 O   0  0  0  0  0  0  0  0  0  0  0  0
   16.8083  -20.0225    0.0000 O   0  0  0  0  0  0  0  0  0  0  0  0
   15.0876  -21.4024    0.0000 C   0  0  0  0  0  0  0  0  0  0  0  0
   14.3033  -21.1463    0.0000 C   0  0  0  0  0  0  0  0  0  0  0  0
   14.3033  -20.3251    0.0000 C   0  0  0  0  0  0  0  0  0  0  0  0
   13.5902  -19.9103    0.0000 C   0  0  0  0  0  0  0  0  0  0  0  0
   12.8729  -20.3251    0.0000 C   0  0  0  0  0  0  0  0  0  0  0  0
   12.8729  -21.1463    0.0000 C   0  0  0  0  0  0  0  0  0  0  0  0
   13.5902  -21.5610    0.0000 C   0  0  0  0  0  0  0  0  0  0  0  0
   12.1599  -21.5611    0.0000 O   0  0  0  0  0  0  0  0  0  0  0  0
   15.0440  -17.8866    0.0000 C   0  0  0  0  0  0  0  0  0  0  0  0
   14.4923  -17.2767    0.0000 C   0  0  0  0  0  0  0  0  0  0  0  0
   14.7484  -16.4883    0.0000 C   0  0  0  0  0  0  0  0  0  0  0  0
   14.1967  -15.8784    0.0000 F   0  0  0  0  0  0  0  0  0  0  0  0
   15.5563  -16.3180    0.0000 F   0  0  0  0  0  0  0  0  0  0  0  0
   15.0045  -15.7041    0.0000 F   0  0  0  0  0  0  0  0  0  0  0  0
   13.6885  -17.4469    0.0000 C   0  0  0  0  0  0  0  0  0  0  0  0
   13.1327  -16.8329    0.0000 Cl  0  0  0  0  0  0  0  0  0  0  0  0
   13.4324  -18.2311    0.0000 C   0  0  0  0  0  0  0  0  0  0  0  0
  1  2  2  0
  2  3  1  0
  3  4  1  0
  4  5  1  0
  5  6  1  0
  6  7  2  0
  6  8  1  0
  9  5  2  0
 10  9  1  0
 11 10  2  0
  4 11  1  0
 11 12  1  0
 12 13  2  0
 13 14  1  0
 14 15  2  0
 15 10  1  0
 14 16  1  0
 17  2  1  0
 18 17  2  0
 18 19  1  0
 19 20  1  0
 19 21  1  0
 19 22  1  0
 23 18  1  0
 23 24  1  0
 25 23  2  0
  1 25  1  0
M  END
>  <Classification>  (136) 
0

>  <pchembl>  (136) 
4.73

>  <InChI_steorem>  (136) 
InChI=1S/C17H11ClF3NO3/c18-13-3-1-9(5-12(13)17(19,20)21)8-22-14-4-2-11(23)6-10(14)7-15(22)16(24)25/h1-7,23H,8H2,(H,24,25)

>  <source>  (136) 
ChEMBL25

>  <source_id>  (136) 
25

>  <optional_reference>  (136) 
10.1124/dmd.112.047068

>  <optional_origin>  (136) 
None

>  <target>  (136) 
BSEP

$$$$

     RDKit          2D

 22 23  0  0  0  0  0  0  0  0999 V2000
   -9.3402    7.6902    0.0000 C   0  0  0  0  0  0  0  0  0  0  0  0
   -8.6257    8.1027    0.0000 O   0  0  0  0  0  0  0  0  0  0  0  0
   -7.9112    7.6902    0.0000 C   0  0  0  0  0  0  0  0  0  0  0  0
   -7.1968    8.1027    0.0000 C   0  0  0  0  0  0  0  0  0  0  0  0
   -6.4823    7.6902    0.0000 C   0  0  0  0  0  0  0  0  0  0  0  0
   -5.7678    8.1027    0.0000 C   0  0  0  0  0  0  0  0  0  0  0  0
   -5.0534    7.6902    0.0000 C   0  0  0  0  0  0  0  0  0  0  0  0
   -4.3389    8.1027    0.0000 C   0  0  0  0  0  0  0  0  0  0  0  0
   -3.6244    7.6902    0.0000 C   0  0  0  0  0  0  0  0  0  0  0  0
   -2.9099    8.1027    0.0000 C   0  0  0  0  0  0  0  0  0  0  0  0
   -2.1955    7.6902    0.0000 O   0  0  0  0  0  0  0  0  0  0  0  0
   -1.4810    8.1027    0.0000 C   0  0  0  0  0  0  0  0  0  0  0  0
   -0.7665    7.6902    0.0000 C   0  0  0  0  0  0  0  0  0  0  0  0
  -10.0547    8.1027    0.0000 C   0  0  0  0  0  0  0  0  0  0  0  0
  -10.7691    7.6902    0.0000 C   0  0  0  0  0  0  0  0  0  0  0  0
  -10.7691    6.8652    0.0000 C   0  0  0  0  0  0  0  0  0  0  0  0
  -10.0546    6.4527    0.0000 C   0  0  0  0  0  0  0  0  0  0  0  0
   -9.3402    6.8652    0.0000 C   0  0  0  0  0  0  0  0  0  0  0  0
  -11.4836    6.4527    0.0000 Cl  0  0  0  0  0  0  0  0  0  0  0  0
   -4.0369    6.9757    0.0000 O   0  0  0  0  0  0  0  0  0  0  0  0
   -3.2119    6.9757    0.0000 C   0  0  0  0  0  0  0  0  0  0  0  0
   -2.9099    8.9277    0.0000 O   0  0  0  0  0  0  0  0  0  0  0  0
  1  2  1  0
  2  3  1  0
  3  4  1  0
  4  5  1  0
  5  6  1  0
  6  7  1  0
  7  8  1  0
  9  8  1  0
  9 10  1  0
 10 11  1  0
 11 12  1  0
 12 13  1  0
  1 14  2  0
  1 18  1  0
 14 15  1  0
 15 16  2  0
 16 17  1  0
 17 18  2  0
 16 19  1  0
  9 20  1  0
 21  9  1  0
 20 21  1  0
 10 22  2  0
M  END
>  <Classification>  (137) 
0

>  <pchembl>  (137) 
4.93

>  <InChI_steorem>  (137) 
InChI=1S/C17H23ClO4/c1-2-20-16(19)17(13-22-17)11-5-3-4-6-12-21-15-9-7-14(18)8-10-15/h7-10H,2-6,11-13H2,1H3

>  <source>  (137) 
ChEMBL25

>  <source_id>  (137) 
25

>  <optional_reference>  (137) 
10.1002/hep.27206

>  <optional_origin>  (137) 
None

>  <target>  (137) 
BSEP

$$$$

     RDKit          2D

 22 22  0  0  0  0  0  0  0  0999 V2000
    3.7565   -2.3374    0.0000 C   0  0  0  0  0  0  0  0  0  0  0  0
    3.7553   -3.1648    0.0000 C   0  0  0  0  0  0  0  0  0  0  0  0
    4.4728   -3.5777    0.0000 C   0  0  0  0  0  0  0  0  0  0  0  0
    5.1875   -3.1644    0.0000 C   0  0  0  0  0  0  0  0  0  0  0  0
    5.1843   -2.3333    0.0000 C   0  0  0  0  0  0  0  0  0  0  0  0
    4.4708   -1.9245    0.0000 C   0  0  0  0  0  0  0  0  0  0  0  0
    5.8997   -1.9178    0.0000 C   0  0  0  0  0  0  0  0  0  0  0  0
    6.6140   -2.3273    0.0000 C   0  0  0  0  0  0  0  0  0  0  0  0
    3.0438   -1.9250    0.0000 O   0  0  0  0  0  0  0  0  0  0  0  0
    3.0423   -3.5768    0.0000 O   0  0  0  0  0  0  0  0  0  0  0  0
    4.4734   -4.4059    0.0000 N   0  0  0  0  0  0  0  0  0  0  0  0
    3.7562   -4.8182    0.0000 O   0  0  0  0  0  0  0  0  0  0  0  0
    5.1858   -4.8186    0.0000 O   0  0  0  0  0  0  0  0  0  0  0  0
    7.3248   -1.9120    0.0000 C   0  0  0  0  0  0  0  0  0  0  0  0
    8.0436   -2.3215    0.0000 N   0  0  0  0  0  0  0  0  0  0  0  0
    7.3260   -1.0871    0.0000 O   0  0  0  0  0  0  0  0  0  0  0  0
    8.0470   -3.1465    0.0000 C   0  0  0  0  0  0  0  0  0  0  0  0
    8.7613   -3.5560    0.0000 C   0  0  0  0  0  0  0  0  0  0  0  0
    8.7545   -1.9061    0.0000 C   0  0  0  0  0  0  0  0  0  0  0  0
    9.4733   -2.3156    0.0000 C   0  0  0  0  0  0  0  0  0  0  0  0
    6.6174   -3.1523    0.0000 C   0  0  0  0  0  0  0  0  0  0  0  0
    6.6208   -3.9817    0.0000 N   0  0  0  0  0  0  0  0  0  0  0  0
  5  6  1  0
  6  1  2  0
 11 12  1  0
 11 13  2  0
  3 11  1  0
  1  2  1  0
  8 14  1  0
  5  7  1  0
 14 15  1  0
  3  4  1  0
 14 16  2  0
  7  8  2  3
 15 17  1  0
 17 18  1  0
  1  9  1  0
 15 19  1  0
  4  5  2  0
 19 20  1  0
  2 10  1  0
  2  3  2  0
  8 21  1  0
 21 22  3  0
M  CHG  2  11   1  12  -1
M  END
>  <Classification>  (138) 
0

>  <pchembl>  (138) 
4.25

>  <InChI_steorem>  (138) 
InChI=1S/C14H15N3O5/c1-3-16(4-2)14(20)10(8-15)5-9-6-11(17(21)22)13(19)12(18)7-9/h5-7,18-19H,3-4H2,1-2H3

>  <source>  (138) 
ChEMBL25

>  <source_id>  (138) 
25

>  <optional_reference>  (138) 
10.1093/toxsci/kft176

>  <optional_origin>  (138) 
None

>  <target>  (138) 
BSEP

$$$$

     RDKit          2D

 25 27  0  0  0  0  0  0  0  0999 V2000
   10.4739   -9.0764    0.0000 C   0  0  0  0  0  0  0  0  0  0  0  0
   11.2195   -8.7406    0.0000 N   0  0  0  0  0  0  0  0  0  0  0  0
   10.5578   -9.8968    0.0000 N   0  0  0  0  0  0  0  0  0  0  0  0
    9.7471   -8.6592    0.0000 S   0  0  0  0  0  0  0  0  0  0  0  0
    8.3140   -8.6602    0.0000 C   0  0  0  0  0  0  0  0  0  0  0  0
    9.0410   -9.0774    0.0000 C   0  0  0  0  0  0  0  0  0  0  0  0
   11.7778   -9.3485    0.0000 C   0  0  0  0  0  0  0  0  0  0  0  0
    7.6031   -9.0881    0.0000 C   0  0  0  0  0  0  0  0  0  0  0  0
   11.3702  -10.0607    0.0000 C   0  0  0  0  0  0  0  0  0  0  0  0
    8.3079   -7.8296    0.0000 N   0  0  0  0  0  0  0  0  0  0  0  0
    6.8763   -8.6709    0.0000 C   0  0  0  0  0  0  0  0  0  0  0  0
    9.7505   -7.8286    0.0000 O   0  0  0  0  0  0  0  0  0  0  0  0
    7.5908   -7.4220    0.0000 C   0  0  0  0  0  0  0  0  0  0  0  0
    6.8701   -7.8403    0.0000 C   0  0  0  0  0  0  0  0  0  0  0  0
    6.1605   -9.0989    0.0000 O   0  0  0  0  0  0  0  0  0  0  0  0
    4.7228   -9.1096    0.0000 C   0  0  0  0  0  0  0  0  0  0  0  0
    7.6093   -9.9187    0.0000 C   0  0  0  0  0  0  0  0  0  0  0  0
   12.6035   -9.3375    0.0000 C   0  0  0  0  0  0  0  0  0  0  0  0
   11.7835  -10.7766    0.0000 C   0  0  0  0  0  0  0  0  0  0  0  0
    3.2898   -9.1202    0.0000 O   0  0  0  0  0  0  0  0  0  0  0  0
    5.4433   -8.6816    0.0000 C   0  0  0  0  0  0  0  0  0  0  0  0
    4.0007   -8.6923    0.0000 C   0  0  0  0  0  0  0  0  0  0  0  0
    2.5630   -8.7030    0.0000 C   0  0  0  0  0  0  0  0  0  0  0  0
   13.0217  -10.0533    0.0000 C   0  0  0  0  0  0  0  0  0  0  0  0
   12.6141  -10.7704    0.0000 C   0  0  0  0  0  0  0  0  0  0  0  0
  2  1  1  0
  3  1  2  0
  4  1  1  0
  5  6  1  0
  6  4  1  0
  7  2  1  0
  8  5  2  0
  9  3  1  0
 10  5  1  0
 11  8  1  0
 12  4  1  0
 13 10  2  0
 14 13  1  0
 15 11  1  0
 16 21  1  0
 17  8  1  0
 18  7  2  0
 19  9  2  0
 20 22  1  0
 21 15  1  0
 22 16  1  0
 23 20  1  0
 24 18  1  0
 25 19  1  0
  9  7  1  0
 25 24  2  0
 14 11  2  0
M  CHG  2   4   1  12  -1
M  END
>  <Classification>  (139) 
0

>  <pchembl>  (139) 
4.47

>  <InChI_steorem>  (139) 
InChI=1S/C18H21N3O3S/c1-13-16(19-9-8-17(13)24-11-5-10-23-2)12-25(22)18-20-14-6-3-4-7-15(14)21-18/h3-4,6-9H,5,10-12H2,1-2H3,(H,20,21)

>  <source>  (139) 
ChEMBL25

>  <source_id>  (139) 
25

>  <optional_reference>  (139) 
10.1093/toxsci/kft176

>  <optional_origin>  (139) 
None

>  <target>  (139) 
BSEP

$$$$

     RDKit          2D

 29 32  0  0  0  0  0  0  0  0999 V2000
    0.8375    1.4458    0.0000 S   0  0  0  0  0  0  0  0  0  0  0  0
   -0.4958   -1.8250    0.0000 N   0  0  0  0  0  0  0  0  0  0  0  0
   -0.2375   -1.0292    0.0000 C   0  0  0  0  0  0  0  0  0  0  0  0
   -0.9125   -0.5417    0.0000 C   0  0  0  0  0  0  0  0  0  0  0  0
   -1.3208   -1.8250    0.0000 C   0  0  0  0  0  0  0  0  0  0  0  0
   -1.5833   -1.0375    0.0000 C   0  0  0  0  0  0  0  0  0  0  0  0
    0.0167    1.4458    0.0000 N   0  0  0  0  0  0  0  0  0  0  0  0
   -0.0125   -2.4917    0.0000 C   0  0  0  0  0  0  0  0  0  0  0  0
    0.8375    2.2708    0.0000 C   0  0  0  0  0  0  0  0  0  0  0  0
    0.5167   -0.6917    0.0000 C   0  0  0  0  0  0  0  0  0  0  0  0
    0.8167   -2.4917    0.0000 C   0  0  0  0  0  0  0  0  0  0  0  0
   -0.8208    0.2833    0.0000 C   0  0  0  0  0  0  0  0  0  0  0  0
    0.8375    0.6125    0.0000 O   0  0  0  0  0  0  0  0  0  0  0  0
    1.6667    1.4458    0.0000 O   0  0  0  0  0  0  0  0  0  0  0  0
    1.2375   -3.2042    0.0000 C   0  0  0  0  0  0  0  0  0  0  0  0
   -0.0750    0.6208    0.0000 C   0  0  0  0  0  0  0  0  0  0  0  0
    0.8167   -3.9250    0.0000 O   0  0  0  0  0  0  0  0  0  0  0  0
    1.5542    2.6958    0.0000 C   0  0  0  0  0  0  0  0  0  0  0  0
    0.1167    2.6833    0.0000 C   0  0  0  0  0  0  0  0  0  0  0  0
    0.6000    0.1333    0.0000 C   0  0  0  0  0  0  0  0  0  0  0  0
    0.8375    3.9333    0.0000 C   0  0  0  0  0  0  0  0  0  0  0  0
    2.0625   -3.2042    0.0000 O   0  0  0  0  0  0  0  0  0  0  0  0
    0.1167    3.5208    0.0000 C   0  0  0  0  0  0  0  0  0  0  0  0
    1.5500    3.5208    0.0000 C   0  0  0  0  0  0  0  0  0  0  0  0
    0.8250    4.7542    0.0000 F   0  0  0  0  0  0  0  0  0  0  0  0
   -1.8750   -2.4292    0.0000 C   0  0  0  0  0  0  0  0  0  0  0  0
   -2.3833   -0.8542    0.0000 C   0  0  0  0  0  0  0  0  0  0  0  0
   -2.6833   -2.2625    0.0000 C   0  0  0  0  0  0  0  0  0  0  0  0
   -2.9375   -1.4792    0.0000 C   0  0  0  0  0  0  0  0  0  0  0  0
  2  3  1  0
  3 10  1  0
  4 12  1  0
  5  6  2  0
  6  4  1  0
  7  1  1  0
  8  2  1  0
  9  1  1  0
 10 20  1  0
 11  8  1  0
 12 16  1  0
 13  1  2  0
 14  1  2  0
 15 11  1  0
 16  7  1  0
 17 15  2  0
 18  9  2  0
 19  9  1  0
 20 16  1  0
 21 23  1  0
 22 15  1  0
 23 19  2  0
 24 18  1  0
 25 21  1  0
 26  5  1  0
 27  6  1  0
 28 29  1  0
 29 27  2  0
 21 24  2  0
  3  4  2  0
  5  2  1  0
 28 26  2  0
M  END
>  <Classification>  (140) 
0

>  <pchembl>  (140) 
4.21

>  <InChI_steorem>  (140) 
InChI=1S/C21H21FN2O4S/c22-14-5-8-16(9-6-14)29(27,28)23-15-7-10-20-18(13-15)17-3-1-2-4-19(17)24(20)12-11-21(25)26/h1-6,8-9,15,23H,7,10-13H2,(H,25,26)

>  <source>  (140) 
ChEMBL25

>  <source_id>  (140) 
25

>  <optional_reference>  (140) 
10.1124/dmd.112.047068

>  <optional_origin>  (140) 
None

>  <target>  (140) 
BSEP

$$$$

     RDKit          2D

 15 15  0  0  0  0  0  0  0  0999 V2000
    6.2333   -3.6148    0.0000 C   0  0  0  0  0  0  0  0  0  0  0  0
    5.1959   -3.0115    0.0000 C   0  0  0  0  0  0  0  0  0  0  0  0
    3.8933   -3.7570    0.0000 C   0  0  0  0  0  0  0  0  0  0  0  0
    3.8912   -5.2578    0.0000 N   0  0  0  0  0  0  0  0  0  0  0  0
    4.9292   -5.8600    0.0000 O   0  0  0  0  0  0  0  0  0  0  0  0
    2.5951   -3.0039    0.0000 C   0  0  0  0  0  0  0  0  0  0  0  0
    2.5973   -1.5031    0.0000 C   0  0  0  0  0  0  0  0  0  0  0  0
    1.2990   -0.7500    0.0000 C   0  0  0  0  0  0  0  0  0  0  0  0
    1.2990    0.7500    0.0000 C   0  0  0  0  0  0  0  0  0  0  0  0
    0.0000    1.5000    0.0000 C   0  0  0  0  0  0  0  0  0  0  0  0
   -1.2990    0.7500    0.0000 C   0  0  0  0  0  0  0  0  0  0  0  0
   -2.3383    1.3500    0.0000 F   0  0  0  0  0  0  0  0  0  0  0  0
   -1.2990   -0.7500    0.0000 C   0  0  0  0  0  0  0  0  0  0  0  0
    0.0000   -1.5000    0.0000 C   0  0  0  0  0  0  0  0  0  0  0  0
    1.5548   -3.6021    0.0000 C   0  0  0  0  0  0  0  0  0  0  0  0
  1  2  1  0
  2  3  1  0
  3  4  2  3
  4  5  1  0
  3  6  1  0
  6  7  2  3
  7  8  1  0
  8  9  2  0
  9 10  1  0
 10 11  2  0
 11 12  1  0
 11 13  1  0
 13 14  2  0
 14  8  1  0
  6 15  1  0
M  END
>  <Classification>  (141) 
0

>  <pchembl>  (141) 
4.57

>  <InChI_steorem>  (141) 
InChI=1S/C12H14FNO/c1-3-12(14-15)9(2)8-10-4-6-11(13)7-5-10/h4-8,15H,3H2,1-2H3

>  <source>  (141) 
ChEMBL25

>  <source_id>  (141) 
25

>  <optional_reference>  (141) 
10.1124/dmd.112.047068

>  <optional_origin>  (141) 
None

>  <target>  (141) 
BSEP

$$$$

     RDKit          2D

  8  7  0  0  0  0  0  0  0  0999 V2000
    0.2606    0.1503    0.0000 C   0  0  0  0  0  0  0  0  0  0  0  0
    1.3000    0.7500    0.0000 C   0  0  0  0  0  0  0  0  0  0  0  0
    2.6000    0.0000    0.0000 N   0  0  0  0  0  0  0  0  0  0  0  0
    2.5969   -1.5008    0.0000 C   0  0  0  0  0  0  0  0  0  0  0  0
    1.5568   -2.0994    0.0000 C   0  0  0  0  0  0  0  0  0  0  0  0
    3.9000    0.7500    0.0000 C   0  0  0  0  0  0  0  0  0  0  0  0
    4.9394    0.1503    0.0000 S   0  0  0  0  0  0  0  0  0  0  0  0
    3.9000    1.9500    0.0000 S   0  0  0  0  0  0  0  0  0  0  0  0
  1  2  1  0
  2  3  1  0
  3  4  1  0
  4  5  1  0
  3  6  1  0
  6  7  2  0
  6  8  1  0
M  END
>  <Classification>  (142) 
0

>  <pchembl>  (142) 
4.16

>  <InChI_steorem>  (142) 
InChI=1S/C5H11NS2/c1-3-6(4-2)5(7)8/h3-4H2,1-2H3,(H,7,8)

>  <source>  (142) 
ChEMBL25

>  <source_id>  (142) 
25

>  <optional_reference>  (142) 
10.1124/dmd.112.047068

>  <optional_origin>  (142) 
None

>  <target>  (142) 
BSEP

$$$$

     RDKit          2D

 85 85  0  0  0  0  0  0  0  0999 V2000
    2.7490    9.6727    0.0000 C   0  0  0  0  0  0  0  0  0  0  0  0
    3.4920    8.7304    0.0000 C   0  0  0  0  0  0  0  0  0  0  0  0
    2.9324    7.3249    0.0000 C   0  0  0  0  0  0  0  0  0  0  0  0
    1.4932    7.7475    0.0000 N   0  0  0  0  0  0  0  0  0  0  0  0
    0.0000    7.8901    0.0000 C   0  0  0  0  0  0  0  0  0  0  0  0
    0.0000    9.0901    0.0000 O   0  0  0  0  0  0  0  0  0  0  0  0
   -1.4932    7.7475    0.0000 C   0  0  0  0  0  0  0  0  0  0  0  0
   -1.7775    9.2333    0.0000 C   0  0  0  0  0  0  0  0  0  0  0  0
   -0.8692   10.0176    0.0000 O   0  0  0  0  0  0  0  0  0  0  0  0
   -3.1947    9.7271    0.0000 C   0  0  0  0  0  0  0  0  0  0  0  0
   -4.1030    8.9428    0.0000 C   0  0  0  0  0  0  0  0  0  0  0  0
   -3.4767   11.2012    0.0000 C   0  0  0  0  0  0  0  0  0  0  0  0
   -4.8940   11.6949    0.0000 C   0  0  0  0  0  0  0  0  0  0  0  0
   -5.1760   13.1690    0.0000 C   0  0  0  0  0  0  0  0  0  0  0  0
   -6.3092   13.5638    0.0000 C   0  0  0  0  0  0  0  0  0  0  0  0
   -2.9325    7.3249    0.0000 N   0  0  0  0  0  0  0  0  0  0  0  0
   -3.3785    8.4389    0.0000 C   0  0  0  0  0  0  0  0  0  0  0  0
   -4.2657    6.6375    0.0000 C   0  0  0  0  0  0  0  0  0  0  0  0
   -4.9145    7.6470    0.0000 O   0  0  0  0  0  0  0  0  0  0  0  0
   -5.4448    5.7103    0.0000 C   0  0  0  0  0  0  0  0  0  0  0  0
   -6.4866    6.8071    0.0000 C   0  0  0  0  0  0  0  0  0  0  0  0
   -6.1470    7.9581    0.0000 C   0  0  0  0  0  0  0  0  0  0  0  0
   -7.6532    6.5261    0.0000 C   0  0  0  0  0  0  0  0  0  0  0  0
   -6.4271    4.5767    0.0000 N   0  0  0  0  0  0  0  0  0  0  0  0
   -7.4046    5.2727    0.0000 C   0  0  0  0  0  0  0  0  0  0  0  0
   -7.1771    3.2776    0.0000 C   0  0  0  0  0  0  0  0  0  0  0  0
   -8.2687    3.7761    0.0000 O   0  0  0  0  0  0  0  0  0  0  0  0
   -7.6677    1.8601    0.0000 C   0  0  0  0  0  0  0  0  0  0  0  0
   -9.1371    2.2196    0.0000 C   0  0  0  0  0  0  0  0  0  0  0  0
   -9.5580    3.6602    0.0000 C   0  0  0  0  0  0  0  0  0  0  0  0
  -10.7237    3.9454    0.0000 C   0  0  0  0  0  0  0  0  0  0  0  0
   -8.7285    4.5273    0.0000 C   0  0  0  0  0  0  0  0  0  0  0  0
   -7.8812    0.3754    0.0000 N   0  0  0  0  0  0  0  0  0  0  0  0
   -9.0798    0.4325    0.0000 C   0  0  0  0  0  0  0  0  0  0  0  0
   -7.8098   -1.1229    0.0000 C   0  0  0  0  0  0  0  0  0  0  0  0
   -8.9976   -1.2937    0.0000 O   0  0  0  0  0  0  0  0  0  0  0  0
   -7.4561   -2.5806    0.0000 C   0  0  0  0  0  0  0  0  0  0  0  0
   -8.8866   -3.0726    0.0000 C   0  0  0  0  0  0  0  0  0  0  0  0
  -10.0196   -2.0883    0.0000 C   0  0  0  0  0  0  0  0  0  0  0  0
  -11.1543   -2.4786    0.0000 C   0  0  0  0  0  0  0  0  0  0  0  0
   -9.7906   -0.9104    0.0000 C   0  0  0  0  0  0  0  0  0  0  0  0
   -6.8330   -3.9451    0.0000 N   0  0  0  0  0  0  0  0  0  0  0  0
   -7.8722   -4.5451    0.0000 C   0  0  0  0  0  0  0  0  0  0  0  0
   -5.9629   -5.1669    0.0000 C   0  0  0  0  0  0  0  0  0  0  0  0
   -6.8698   -5.9528    0.0000 O   0  0  0  0  0  0  0  0  0  0  0  0
   -4.8773   -6.2020    0.0000 C   0  0  0  0  0  0  0  0  0  0  0  0
   -5.6191   -7.1453    0.0000 C   0  0  0  0  0  0  0  0  0  0  0  0
   -3.6154   -7.0130    0.0000 N   0  0  0  0  0  0  0  0  0  0  0  0
   -2.2229   -7.5705    0.0000 C   0  0  0  0  0  0  0  0  0  0  0  0
   -2.5609   -8.7219    0.0000 O   0  0  0  0  0  0  0  0  0  0  0  0
   -0.7500   -7.8544    0.0000 C   0  0  0  0  0  0  0  0  0  0  0  0
   -0.8640   -9.0489    0.0000 C   0  0  0  0  0  0  0  0  0  0  0  0
    0.7500   -7.8544    0.0000 N   0  0  0  0  0  0  0  0  0  0  0  0
    2.2229   -7.5705    0.0000 C   0  0  0  0  0  0  0  0  0  0  0  0
    2.5610   -8.7219    0.0000 O   0  0  0  0  0  0  0  0  0  0  0  0
    3.6155   -7.0130    0.0000 C   0  0  0  0  0  0  0  0  0  0  0  0
    4.3061   -8.3589    0.0000 C   0  0  0  0  0  0  0  0  0  0  0  0
    3.4930   -9.6204    0.0000 C   0  0  0  0  0  0  0  0  0  0  0  0
    4.0408  -10.6881    0.0000 C   0  0  0  0  0  0  0  0  0  0  0  0
    2.2944   -9.5614    0.0000 C   0  0  0  0  0  0  0  0  0  0  0  0
    4.8773   -6.2020    0.0000 N   0  0  0  0  0  0  0  0  0  0  0  0
    5.6191   -7.1453    0.0000 C   0  0  0  0  0  0  0  0  0  0  0  0
    5.9629   -5.1669    0.0000 C   0  0  0  0  0  0  0  0  0  0  0  0
    6.8698   -5.9527    0.0000 O   0  0  0  0  0  0  0  0  0  0  0  0
    6.8330   -3.9450    0.0000 C   0  0  0  0  0  0  0  0  0  0  0  0
    7.4561   -2.5806    0.0000 N   0  0  0  0  0  0  0  0  0  0  0  0
    7.8098   -1.1229    0.0000 C   0  0  0  0  0  0  0  0  0  0  0  0
    8.9976   -1.2936    0.0000 O   0  0  0  0  0  0  0  0  0  0  0  0
    7.8812    0.3754    0.0000 C   0  0  0  0  0  0  0  0  0  0  0  0
    9.3923    0.4445    0.0000 C   0  0  0  0  0  0  0  0  0  0  0  0
   10.2021   -0.8191    0.0000 C   0  0  0  0  0  0  0  0  0  0  0  0
   11.4008   -0.7644    0.0000 C   0  0  0  0  0  0  0  0  0  0  0  0
    9.6505   -1.8848    0.0000 C   0  0  0  0  0  0  0  0  0  0  0  0
    7.6677    1.8602    0.0000 N   0  0  0  0  0  0  0  0  0  0  0  0
    8.8339    2.1431    0.0000 C   0  0  0  0  0  0  0  0  0  0  0  0
    7.1771    3.2777    0.0000 C   0  0  0  0  0  0  0  0  0  0  0  0
    8.2686    3.7762    0.0000 O   0  0  0  0  0  0  0  0  0  0  0  0
    6.4271    4.5767    0.0000 C   0  0  0  0  0  0  0  0  0  0  0  0
    5.4448    5.7103    0.0000 N   0  0  0  0  0  0  0  0  0  0  0  0
    6.2729    6.5788    0.0000 C   0  0  0  0  0  0  0  0  0  0  0  0
    4.2657    6.6376    0.0000 C   0  0  0  0  0  0  0  0  0  0  0  0
    4.9145    7.6471    0.0000 O   0  0  0  0  0  0  0  0  0  0  0  0
    8.1416   -4.7039    0.0000 C   0  0  0  0  0  0  0  0  0  0  0  0
    8.1401   -5.9039    0.0000 C   0  0  0  0  0  0  0  0  0  0  0  0
    9.1818   -4.1056    0.0000 C   0  0  0  0  0  0  0  0  0  0  0  0
  1  2  1  0
  3  2  1  0
  3  4  1  0
  4  5  1  0
  5  6  2  0
  7  5  1  0
  7  8  1  0
  8  9  1  0
  8 10  1  0
 10 11  1  0
 10 12  1  0
 12 13  1  0
 13 14  2  3
 14 15  1  0
  7 16  1  0
 16 17  1  0
 16 18  1  0
 18 19  2  0
 18 20  1  0
 20 21  1  0
 21 22  1  0
 21 23  1  0
 20 24  1  0
 24 25  1  0
 24 26  1  0
 26 27  2  0
 26 28  1  0
 28 29  1  0
 29 30  1  0
 30 31  1  0
 30 32  1  0
 28 33  1  0
 33 34  1  0
 33 35  1  0
 35 36  2  0
 35 37  1  0
 37 38  1  0
 38 39  1  0
 39 40  1  0
 39 41  1  0
 37 42  1  0
 42 43  1  0
 42 44  1  0
 44 45  2  0
 44 46  1  0
 46 47  1  0
 46 48  1  0
 48 49  1  0
 49 50  2  0
 49 51  1  0
 51 52  1  0
 51 53  1  0
 53 54  1  0
 54 55  2  0
 54 56  1  0
 56 57  1  0
 57 58  1  0
 58 59  1  0
 58 60  1  0
 56 61  1  0
 61 62  1  0
 61 63  1  0
 63 64  2  0
 63 65  1  0
 65 66  1  0
 66 67  1  0
 67 68  2  0
 67 69  1  0
 69 70  1  0
 70 71  1  0
 71 72  1  0
 71 73  1  0
 69 74  1  0
 74 75  1  0
 74 76  1  0
 76 77  2  0
 76 78  1  0
 78 79  1  0
 79 80  1  0
 79 81  1  0
 81  3  1  0
 81 82  2  0
 65 83  1  0
 83 84  1  0
 83 85  1  0
M  END
>  <Classification>  (143) 
1

>  <pchembl>  (143) 
5.02

>  <InChI_steorem>  (143) 
InChI=1S/C62H111N11O12/c1-25-27-28-40(15)52(75)51-56(79)65-43(26-2)58(81)67(18)33-48(74)68(19)44(29-34(3)4)55(78)66-49(38(11)12)61(84)69(20)45(30-35(5)6)54(77)63-41(16)53(76)64-42(17)57(80)70(21)46(31-36(7)8)59(82)71(22)47(32-37(9)10)60(83)72(23)50(39(13)14)62(85)73(51)24/h25,27,34-47,49-52,75H,26,28-33H2,1-24H3,(H,63,77)(H,64,76)(H,65,79)(H,66,78)

>  <source>  (143) 
ChEMBL25

>  <source_id>  (143) 
25

>  <optional_reference>  (143) 
10.1053/gast.2002.36591

>  <optional_origin>  (143) 
None

>  <target>  (143) 
BSEP

$$$$

     RDKit          2D

 24 27  0  0  0  0  0  0  0  0999 V2000
    1.2990   -0.7500    0.0000 C   0  0  0  0  0  0  0  0  0  0  0  0
    1.2990    0.7500    0.0000 C   0  0  0  0  0  0  0  0  0  0  0  0
    0.0000    1.5000    0.0000 C   0  0  0  0  0  0  0  0  0  0  0  0
   -1.2990    0.7500    0.0000 C   0  0  0  0  0  0  0  0  0  0  0  0
   -1.2990   -0.7500    0.0000 C   0  0  0  0  0  0  0  0  0  0  0  0
    0.0000   -1.5000    0.0000 C   0  0  0  0  0  0  0  0  0  0  0  0
   -2.6003    1.4977    0.0000 C   0  0  0  0  0  0  0  0  0  0  0  0
   -2.6030    2.9985    0.0000 C   0  0  0  0  0  0  0  0  0  0  0  0
   -3.9023    3.7481    0.0000 C   0  0  0  0  0  0  0  0  0  0  0  0
   -3.9029    5.2481    0.0000 C   0  0  0  0  0  0  0  0  0  0  0  0
   -2.6041    5.9986    0.0000 C   0  0  0  0  0  0  0  0  0  0  0  0
   -1.3048    5.2491    0.0000 C   0  0  0  0  0  0  0  0  0  0  0  0
   -1.3042    3.7491    0.0000 C   0  0  0  0  0  0  0  0  0  0  0  0
   -2.6047    7.4994    0.0000 C   0  0  0  0  0  0  0  0  0  0  0  0
   -3.9028    8.2510    0.0000 C   0  0  0  0  0  0  0  0  0  0  0  0
   -3.9010    9.7510    0.0000 C   0  0  0  0  0  0  0  0  0  0  0  0
   -2.6011   10.4995    0.0000 C   0  0  0  0  0  0  0  0  0  0  0  0
   -1.3029    9.7479    0.0000 C   0  0  0  0  0  0  0  0  0  0  0  0
   -1.3048    8.2479    0.0000 C   0  0  0  0  0  0  0  0  0  0  0  0
   -3.8990    0.7455    0.0000 N   0  0  0  0  0  0  0  0  0  0  0  0
   -5.2526    1.3618    0.0000 C   0  0  0  0  0  0  0  0  0  0  0  0
   -6.2524    0.2436    0.0000 C   0  0  0  0  0  0  0  0  0  0  0  0
   -5.4979   -1.0529    0.0000 N   0  0  0  0  0  0  0  0  0  0  0  0
   -4.0317   -0.7359    0.0000 C   0  0  0  0  0  0  0  0  0  0  0  0
  1  2  2  0
  2  3  1  0
  3  4  2  0
  4  5  1  0
  5  6  2  0
  6  1  1  0
  4  7  1  0
  7  8  1  0
  8  9  2  0
  9 10  1  0
 10 11  2  0
 11 12  1  0
 12 13  2  0
 13  8  1  0
 11 14  1  0
 14 15  2  0
 15 16  1  0
 16 17  2  0
 17 18  1  0
 18 19  2  0
 19 14  1  0
  7 20  1  0
 20 21  1  0
 21 22  2  0
 22 23  1  0
 23 24  2  0
 24 20  1  0
M  END
>  <Classification>  (144) 
0

>  <pchembl>  (144) 
4.57

>  <InChI_steorem>  (144) 
InChI=1S/C22H18N2/c1-3-7-18(8-4-1)19-11-13-21(14-12-19)22(24-16-15-23-17-24)20-9-5-2-6-10-20/h1-17,22H

>  <source>  (144) 
ChEMBL25

>  <source_id>  (144) 
25

>  <optional_reference>  (144) 
10.1093/toxsci/kft176

>  <optional_origin>  (144) 
None

>  <target>  (144) 
BSEP

$$$$

     RDKit          2D

 27 33  0  0  0  0  0  0  0  0999 V2000
    2.3383   -0.1500    0.0000 C   0  0  0  0  0  0  0  0  0  0  0  0
    1.2990   -0.7500    0.0000 C   0  0  0  0  0  0  0  0  0  0  0  0
    1.2990    0.7500    0.0000 C   0  0  0  0  0  0  0  0  0  0  0  0
    0.0000    1.5000    0.0000 C   0  0  0  0  0  0  0  0  0  0  0  0
   -1.2990    0.7500    0.0000 C   0  0  0  0  0  0  0  0  0  0  0  0
   -2.3383    1.3500    0.0000 O   0  0  0  0  0  0  0  0  0  0  0  0
   -1.2990   -0.7500    0.0000 C   0  0  0  0  0  0  0  0  0  0  0  0
    0.0000   -1.5000    0.0000 C   0  0  0  0  0  0  0  0  0  0  0  0
    0.0000   -3.0000    0.0000 C   0  0  0  0  0  0  0  0  0  0  0  0
    0.0027   -4.4953    0.0000 C   0  0  0  0  0  0  0  0  0  0  0  0
    1.2990   -3.7500    0.0000 C   0  0  0  0  0  0  0  0  0  0  0  0
    2.5981   -3.0000    0.0000 C   0  0  0  0  0  0  0  0  0  0  0  0
    2.5981   -1.5000    0.0000 C   0  0  0  0  0  0  0  0  0  0  0  0
    3.8971   -0.7500    0.0000 C   0  0  0  0  0  0  0  0  0  0  0  0
    5.1962   -1.5000    0.0000 C   0  0  0  0  0  0  0  0  0  0  0  0
    5.1962   -3.0000    0.0000 C   0  0  0  0  0  0  0  0  0  0  0  0
    6.2881   -2.5024    0.0000 C   0  0  0  0  0  0  0  0  0  0  0  0
    3.8971   -3.7500    0.0000 C   0  0  0  0  0  0  0  0  0  0  0  0
    4.2297   -5.2071    0.0000 C   0  0  0  0  0  0  0  0  0  0  0  0
    4.8491   -6.5669    0.0000 C   0  0  0  0  0  0  0  0  0  0  0  0
    5.7224   -5.3544    0.0000 C   0  0  0  0  0  0  0  0  0  0  0  0
    6.3238   -3.9802    0.0000 C   0  0  0  0  0  0  0  0  0  0  0  0
    7.6134   -3.1390    0.0000 C   0  0  0  0  0  0  0  0  0  0  0  0
    8.8130   -4.0395    0.0000 C   0  0  0  0  0  0  0  0  0  0  0  0
    8.3272   -5.4587    0.0000 C   0  0  0  0  0  0  0  0  0  0  0  0
    9.0173   -6.4404    0.0000 O   0  0  0  0  0  0  0  0  0  0  0  0
    6.8274   -5.4352    0.0000 O   0  0  0  0  0  0  0  0  0  0  0  0
  2  1  1  0
  2  3  1  0
  3  4  1  0
  4  5  1  0
  5  6  2  0
  5  7  1  0
  7  8  2  0
  8  2  1  0
  8  9  1  0
  9 10  1  0
 11 10  1  0
 11  9  1  0
 12 11  1  0
 12 13  1  0
 13  2  1  0
 13 14  1  0
 14 15  1  0
 15 16  1  0
 16 17  1  0
 18 16  1  0
 18 12  1  0
 18 19  1  0
 19 20  1  0
 21 20  1  0
 21 19  1  0
 21 22  1  0
 22 16  1  0
 22 23  1  0
 23 24  1  0
 24 25  1  0
 25 26  2  0
 25 27  1  0
 27 22  1  0
M  END
>  <Classification>  (145) 
0

>  <pchembl>  (145) 
4.79

>  <InChI_steorem>  (145) 
InChI=1S/C24H30O3/c1-22-6-3-12(25)9-17(22)13-10-14(13)20-16(22)4-7-23(2)21(20)15-11-18(15)24(23)8-5-19(26)27-24/h9,13-16,18,20-21H,3-8,10-11H2,1-2H3

>  <source>  (145) 
ChEMBL25

>  <source_id>  (145) 
25

>  <optional_reference>  (145) 
10.1093/toxsci/kft176

>  <optional_origin>  (145) 
None

>  <target>  (145) 
BSEP

$$$$

     RDKit          2D

 29 30  0  0  0  0  0  0  0  0999 V2000
    5.1984   -2.7012    0.0000 C   0  0  0  0  0  0  0  0  0  0  0  0
    5.1988   -1.5012    0.0000 C   0  0  0  0  0  0  0  0  0  0  0  0
    4.1594   -2.1011    0.0000 O   0  0  0  0  0  0  0  0  0  0  0  0
    3.8990   -0.7508    0.0000 C   0  0  0  0  0  0  0  0  0  0  0  0
    2.5988   -1.5004    0.0000 S   0  0  0  0  0  0  0  0  0  0  0  0
    2.5984   -2.7004    0.0000 O   0  0  0  0  0  0  0  0  0  0  0  0
    3.6377   -2.1009    0.0000 O   0  0  0  0  0  0  0  0  0  0  0  0
    1.2990   -0.7500    0.0000 C   0  0  0  0  0  0  0  0  0  0  0  0
    1.2990    0.7500    0.0000 C   0  0  0  0  0  0  0  0  0  0  0  0
    0.0000    1.5000    0.0000 C   0  0  0  0  0  0  0  0  0  0  0  0
   -1.2990    0.7500    0.0000 C   0  0  0  0  0  0  0  0  0  0  0  0
   -2.3383    1.3500    0.0000 F   0  0  0  0  0  0  0  0  0  0  0  0
   -1.2990   -0.7500    0.0000 C   0  0  0  0  0  0  0  0  0  0  0  0
    0.0000   -1.5000    0.0000 C   0  0  0  0  0  0  0  0  0  0  0  0
    6.4990   -0.7516    0.0000 C   0  0  0  0  0  0  0  0  0  0  0  0
    6.4994    0.4484    0.0000 O   0  0  0  0  0  0  0  0  0  0  0  0
    7.7988   -1.5020    0.0000 N   0  0  0  0  0  0  0  0  0  0  0  0
    9.0990   -0.7525    0.0000 C   0  0  0  0  0  0  0  0  0  0  0  0
   10.3991   -1.5006    0.0000 C   0  0  0  0  0  0  0  0  0  0  0  0
   11.6971   -0.7487    0.0000 C   0  0  0  0  0  0  0  0  0  0  0  0
   11.6950    0.7512    0.0000 C   0  0  0  0  0  0  0  0  0  0  0  0
   12.9937    1.5035    0.0000 C   0  0  0  0  0  0  0  0  0  0  0  0
   14.0321    2.1049    0.0000 N   0  0  0  0  0  0  0  0  0  0  0  0
   10.3949    1.4994    0.0000 C   0  0  0  0  0  0  0  0  0  0  0  0
    9.0969    0.7476    0.0000 C   0  0  0  0  0  0  0  0  0  0  0  0
   10.3928    3.0003    0.0000 C   0  0  0  0  0  0  0  0  0  0  0  0
   11.4308    3.6024    0.0000 F   0  0  0  0  0  0  0  0  0  0  0  0
    9.3526    3.5985    0.0000 F   0  0  0  0  0  0  0  0  0  0  0  0
   10.3906    4.2002    0.0000 F   0  0  0  0  0  0  0  0  0  0  0  0
  1  2  1  0
  2  3  1  0
  2  4  1  0
  4  5  1  0
  5  6  2  0
  5  7  2  0
  5  8  1  0
  8  9  2  0
  9 10  1  0
 10 11  2  0
 11 12  1  0
 11 13  1  0
 13 14  2  0
 14  8  1  0
  2 15  1  0
 15 16  2  0
 15 17  1  0
 17 18  1  0
 18 19  2  0
 19 20  1  0
 20 21  2  0
 21 22  1  0
 22 23  3  0
 21 24  1  0
 24 25  2  0
 25 18  1  0
 24 26  1  0
 26 27  1  0
 26 28  1  0
 26 29  1  0
M  END
>  <Classification>  (146) 
0

>  <pchembl>  (146) 
4.53

>  <InChI_steorem>  (146) 
InChI=1S/C18H14F4N2O4S/c1-17(26,10-29(27,28)14-6-3-12(19)4-7-14)16(25)24-13-5-2-11(9-23)15(8-13)18(20,21)22/h2-8,26H,10H2,1H3,(H,24,25)

>  <source>  (146) 
ChEMBL25

>  <source_id>  (146) 
25

>  <optional_reference>  (146) 
10.1002/hep.27206

>  <optional_origin>  (146) 
None

>  <target>  (146) 
BSEP

$$$$

     RDKit          2D

 27 30  0  0  0  0  0  0  0  0999 V2000
   -0.9398   -7.7517    0.0000 C   0  0  0  0  0  0  0  0  0  0  0  0
   -1.2977   -6.6063    0.0000 C   0  0  0  0  0  0  0  0  0  0  0  0
   -2.4686   -6.3439    0.0000 C   0  0  0  0  0  0  0  0  0  0  0  0
   -2.1105   -7.4891    0.0000 C   0  0  0  0  0  0  0  0  0  0  0  0
   -0.2816   -5.5018    0.0000 N   0  0  0  0  0  0  0  0  0  0  0  0
   -0.7292   -4.0692    0.0000 C   0  0  0  0  0  0  0  0  0  0  0  0
   -1.9001   -3.8069    0.0000 O   0  0  0  0  0  0  0  0  0  0  0  0
    0.2851   -2.9666    0.0000 C   0  0  0  0  0  0  0  0  0  0  0  0
    1.7758   -3.1329    0.0000 C   0  0  0  0  0  0  0  0  0  0  0  0
    2.3947   -1.7666    0.0000 C   0  0  0  0  0  0  0  0  0  0  0  0
    1.2990   -0.7500    0.0000 C   0  0  0  0  0  0  0  0  0  0  0  0
    1.2990    0.7500    0.0000 C   0  0  0  0  0  0  0  0  0  0  0  0
    2.5981    1.5000    0.0000 C   0  0  0  0  0  0  0  0  0  0  0  0
    2.5981    3.0000    0.0000 C   0  0  0  0  0  0  0  0  0  0  0  0
    1.2990    3.7500    0.0000 C   0  0  0  0  0  0  0  0  0  0  0  0
    1.2990    5.2500    0.0000 N   0  0  0  0  0  0  0  0  0  0  0  0
    0.0000    6.0000    0.0000 C   0  0  0  0  0  0  0  0  0  0  0  0
   -0.0001    7.2000    0.0000 O   0  0  0  0  0  0  0  0  0  0  0  0
   -1.2991    5.2500    0.0000 C   0  0  0  0  0  0  0  0  0  0  0  0
   -1.2991    3.7500    0.0000 C   0  0  0  0  0  0  0  0  0  0  0  0
    0.0000    3.0000    0.0000 C   0  0  0  0  0  0  0  0  0  0  0  0
   -1.0392    2.4000    0.0000 C   0  0  0  0  0  0  0  0  0  0  0  0
    0.0000    1.5000    0.0000 C   0  0  0  0  0  0  0  0  0  0  0  0
   -1.2990    0.7500    0.0000 C   0  0  0  0  0  0  0  0  0  0  0  0
   -1.2990   -0.7500    0.0000 C   0  0  0  0  0  0  0  0  0  0  0  0
    0.0000   -1.5000    0.0000 C   0  0  0  0  0  0  0  0  0  0  0  0
   -0.9769   -2.1968    0.0000 C   0  0  0  0  0  0  0  0  0  0  0  0
  1  2  1  0
  2  3  1  0
  2  4  1  0
  2  5  1  0
  5  6  1  0
  6  7  2  0
  8  6  1  0
  8  9  1  0
  9 10  1  0
 11 10  1  0
 11 12  1  0
 12 13  1  0
 13 14  1  0
 15 14  1  0
 15 16  1  0
 16 17  1  0
 17 18  2  0
 17 19  1  0
 19 20  2  0
 20 21  1  0
 21 15  1  0
 21 22  1  0
 21 23  1  0
 23 12  1  0
 23 24  1  0
 24 25  1  0
 25 26  1  0
 26  8  1  0
 26 11  1  0
 26 27  1  0
M  END
>  <Classification>  (147) 
0

>  <pchembl>  (147) 
4.55

>  <InChI_steorem>  (147) 
InChI=1S/C23H36N2O2/c1-21(2,3)25-20(27)17-8-7-15-14-6-9-18-23(5,13-11-19(26)24-18)16(14)10-12-22(15,17)4/h11,13-18H,6-10,12H2,1-5H3,(H,24,26)(H,25,27)

>  <source>  (147) 
ChEMBL25

>  <source_id>  (147) 
25

>  <optional_reference>  (147) 
10.1093/toxsci/kfq269

>  <optional_origin>  (147) 
None

>  <target>  (147) 
BSEP

$$$$

     RDKit          2D

 23 26  0  0  0  0  0  0  0  0999 V2000
    7.2889   -1.4403    0.0000 C   0  0  0  0  0  0  0  0  0  0  0  0
    6.1069   -1.2335    0.0000 N   0  0  0  0  0  0  0  0  0  0  0  0
    5.5920    0.1754    0.0000 C   0  0  0  0  0  0  0  0  0  0  0  0
    4.1145    0.4339    0.0000 C   0  0  0  0  0  0  0  0  0  0  0  0
    3.1484   -0.7186    0.0000 N   0  0  0  0  0  0  0  0  0  0  0  0
    3.6667   -2.1252    0.0000 C   0  0  0  0  0  0  0  0  0  0  0  0
    5.1442   -2.3838    0.0000 C   0  0  0  0  0  0  0  0  0  0  0  0
    1.6852   -0.3846    0.0000 C   0  0  0  0  0  0  0  0  0  0  0  0
    1.3514    1.0778    0.0000 N   0  0  0  0  0  0  0  0  0  0  0  0
    0.0000    1.7286    0.0000 C   0  0  0  0  0  0  0  0  0  0  0  0
    0.1115    3.2255    0.0000 C   0  0  0  0  0  0  0  0  0  0  0  0
   -1.1278    4.0705    0.0000 C   0  0  0  0  0  0  0  0  0  0  0  0
   -1.0382    5.2671    0.0000 Cl  0  0  0  0  0  0  0  0  0  0  0  0
   -2.4793    3.4196    0.0000 C   0  0  0  0  0  0  0  0  0  0  0  0
   -2.5914    1.9238    0.0000 C   0  0  0  0  0  0  0  0  0  0  0  0
   -1.3515    1.0777    0.0000 C   0  0  0  0  0  0  0  0  0  0  0  0
   -1.6852   -0.3847    0.0000 N   0  0  0  0  0  0  0  0  0  0  0  0
   -0.7500   -1.5574    0.0000 C   0  0  0  0  0  0  0  0  0  0  0  0
   -1.5000   -2.8577    0.0000 C   0  0  0  0  0  0  0  0  0  0  0  0
   -0.7500   -4.1567    0.0000 C   0  0  0  0  0  0  0  0  0  0  0  0
    0.7500   -4.1567    0.0000 C   0  0  0  0  0  0  0  0  0  0  0  0
    1.5000   -2.8577    0.0000 C   0  0  0  0  0  0  0  0  0  0  0  0
    0.7500   -1.5574    0.0000 C   0  0  0  0  0  0  0  0  0  0  0  0
  1  2  1  0
  2  3  1  0
  3  4  1  0
  4  5  1  0
  5  6  1  0
  6  7  1  0
  7  2  1  0
  5  8  1  0
  8  9  2  0
  9 10  1  0
 10 11  2  0
 11 12  1  0
 12 13  1  0
 12 14  2  0
 14 15  1  0
 15 16  2  0
 16 10  1  0
 16 17  1  0
 17 18  1  0
 18 19  2  0
 19 20  1  0
 20 21  2  0
 21 22  1  0
 22 23  2  0
 23  8  1  0
 23 18  1  0
M  END
>  <Classification>  (148) 
0

>  <pchembl>  (148) 
4.12

>  <InChI_steorem>  (148) 
InChI=1S/C18H19ClN4/c1-22-8-10-23(11-9-22)18-14-4-2-3-5-15(14)20-16-7-6-13(19)12-17(16)21-18/h2-7,12,20H,8-11H2,1H3

>  <source>  (148) 
ChEMBL25

>  <source_id>  (148) 
25

>  <optional_reference>  (148) 
10.1124/dmd.112.047068

>  <optional_origin>  (148) 
None

>  <target>  (148) 
BSEP

$$$$

     RDKit          2D

 32 34  0  0  0  0  0  0  0  0999 V2000
    3.6331   -3.6060    0.0000 C   0  0  0  0  0  0  0  0  0  0  0  0
    2.5951   -3.0039    0.0000 N   0  0  0  0  0  0  0  0  0  0  0  0
    2.5973   -1.5031    0.0000 C   0  0  0  0  0  0  0  0  0  0  0  0
    3.6375   -0.9049    0.0000 O   0  0  0  0  0  0  0  0  0  0  0  0
    1.2990   -0.7500    0.0000 C   0  0  0  0  0  0  0  0  0  0  0  0
    1.2990    0.7500    0.0000 C   0  0  0  0  0  0  0  0  0  0  0  0
    0.0000    1.5000    0.0000 C   0  0  0  0  0  0  0  0  0  0  0  0
   -0.0031    3.0008    0.0000 O   0  0  0  0  0  0  0  0  0  0  0  0
   -1.3039    3.7494    0.0000 C   0  0  0  0  0  0  0  0  0  0  0  0
   -1.3092    5.2494    0.0000 C   0  0  0  0  0  0  0  0  0  0  0  0
   -2.6108    5.9949    0.0000 C   0  0  0  0  0  0  0  0  0  0  0  0
   -3.9073    5.2404    0.0000 C   0  0  0  0  0  0  0  0  0  0  0  0
   -5.2112    5.9836    0.0000 N   0  0  0  0  0  0  0  0  0  0  0  0
   -6.5072    5.2269    0.0000 C   0  0  0  0  0  0  0  0  0  0  0  0
   -6.5010    4.0269    0.0000 O   0  0  0  0  0  0  0  0  0  0  0  0
   -7.8111    5.9701    0.0000 N   0  0  0  0  0  0  0  0  0  0  0  0
   -9.1072    5.2134    0.0000 C   0  0  0  0  0  0  0  0  0  0  0  0
  -10.4114    5.9543    0.0000 C   0  0  0  0  0  0  0  0  0  0  0  0
  -11.7053    5.1953    0.0000 C   0  0  0  0  0  0  0  0  0  0  0  0
  -11.6949    3.6953    0.0000 C   0  0  0  0  0  0  0  0  0  0  0  0
  -12.7299    3.0882    0.0000 Cl  0  0  0  0  0  0  0  0  0  0  0  0
  -10.3907    2.9543    0.0000 C   0  0  0  0  0  0  0  0  0  0  0  0
   -9.0969    3.7133    0.0000 C   0  0  0  0  0  0  0  0  0  0  0  0
  -10.3803    1.4536    0.0000 C   0  0  0  0  0  0  0  0  0  0  0  0
  -11.4150    0.8457    0.0000 F   0  0  0  0  0  0  0  0  0  0  0  0
   -9.3367    0.8611    0.0000 F   0  0  0  0  0  0  0  0  0  0  0  0
  -10.3714    0.2536    0.0000 F   0  0  0  0  0  0  0  0  0  0  0  0
   -3.9021    3.7404    0.0000 C   0  0  0  0  0  0  0  0  0  0  0  0
   -2.6005    2.9949    0.0000 C   0  0  0  0  0  0  0  0  0  0  0  0
   -1.2990    0.7500    0.0000 C   0  0  0  0  0  0  0  0  0  0  0  0
   -1.2990   -0.7500    0.0000 C   0  0  0  0  0  0  0  0  0  0  0  0
    0.0000   -1.5000    0.0000 N   0  0  0  0  0  0  0  0  0  0  0  0
  1  2  1  0
  2  3  1  0
  3  4  2  0
  3  5  1  0
  5  6  2  0
  6  7  1  0
  7  8  1  0
  8  9  1  0
  9 10  2  0
 10 11  1  0
 11 12  2  0
 12 13  1  0
 13 14  1  0
 14 15  2  0
 14 16  1  0
 16 17  1  0
 17 18  2  0
 18 19  1  0
 19 20  2  0
 20 21  1  0
 20 22  1  0
 22 23  2  0
 23 17  1  0
 22 24  1  0
 24 25  1  0
 24 26  1  0
 24 27  1  0
 12 28  1  0
 28 29  2  0
 29  9  1  0
  7 30  2  0
 30 31  1  0
 31 32  2  0
 32  5  1  0
M  END
>  <Classification>  (149) 
1

>  <pchembl>  (149) 
5.1

>  <InChI_steorem>  (149) 
InChI=1S/C21H16ClF3N4O3/c1-26-19(30)18-11-15(8-9-27-18)32-14-5-2-12(3-6-14)28-20(31)29-13-4-7-17(22)16(10-13)21(23,24)25/h2-11H,1H3,(H,26,30)(H2,28,29,31)

>  <source>  (149) 
ChEMBL25

>  <source_id>  (149) 
25

>  <optional_reference>  (149) 
10.1093/toxsci/kfq269

>  <optional_origin>  (149) 
None

>  <target>  (149) 
BSEP

$$$$

     RDKit          2D

 31 34  0  0  0  0  0  0  0  0999 V2000
    3.6387   -0.8963    0.0000 C   0  0  0  0  0  0  0  0  0  0  0  0
    2.6003   -1.4977    0.0000 O   0  0  0  0  0  0  0  0  0  0  0  0
    1.2990   -0.7500    0.0000 C   0  0  0  0  0  0  0  0  0  0  0  0
    1.2990    0.7500    0.0000 C   0  0  0  0  0  0  0  0  0  0  0  0
    0.0000    1.5000    0.0000 C   0  0  0  0  0  0  0  0  0  0  0  0
    0.0000    3.0000    0.0000 N   0  0  0  0  0  0  0  0  0  0  0  0
   -1.2991    3.7500    0.0000 C   0  0  0  0  0  0  0  0  0  0  0  0
   -2.5981    3.0000    0.0000 N   0  0  0  0  0  0  0  0  0  0  0  0
   -2.5981    1.5000    0.0000 C   0  0  0  0  0  0  0  0  0  0  0  0
   -3.8994    0.7522    0.0000 N   0  0  0  0  0  0  0  0  0  0  0  0
   -5.1981    1.5045    0.0000 C   0  0  0  0  0  0  0  0  0  0  0  0
   -6.4998    0.7590    0.0000 C   0  0  0  0  0  0  0  0  0  0  0  0
   -7.7962    1.5135    0.0000 C   0  0  0  0  0  0  0  0  0  0  0  0
   -7.7910    3.0135    0.0000 C   0  0  0  0  0  0  0  0  0  0  0  0
   -8.8282    3.6171    0.0000 F   0  0  0  0  0  0  0  0  0  0  0  0
   -6.4894    3.7590    0.0000 C   0  0  0  0  0  0  0  0  0  0  0  0
   -6.4853    4.9590    0.0000 Cl  0  0  0  0  0  0  0  0  0  0  0  0
   -5.1930    3.0045    0.0000 C   0  0  0  0  0  0  0  0  0  0  0  0
   -1.2990    0.7500    0.0000 C   0  0  0  0  0  0  0  0  0  0  0  0
   -1.2990   -0.7500    0.0000 C   0  0  0  0  0  0  0  0  0  0  0  0
    0.0000   -1.5000    0.0000 C   0  0  0  0  0  0  0  0  0  0  0  0
   -0.0031   -3.0008    0.0000 O   0  0  0  0  0  0  0  0  0  0  0  0
   -1.3039   -3.7494    0.0000 C   0  0  0  0  0  0  0  0  0  0  0  0
   -1.3070   -5.2502    0.0000 C   0  0  0  0  0  0  0  0  0  0  0  0
   -2.6078   -5.9988    0.0000 C   0  0  0  0  0  0  0  0  0  0  0  0
   -2.6109   -7.4996    0.0000 N   0  0  0  0  0  0  0  0  0  0  0  0
   -3.9099   -8.2497    0.0000 C   0  0  0  0  0  0  0  0  0  0  0  0
   -3.9099   -9.7497    0.0000 C   0  0  0  0  0  0  0  0  0  0  0  0
   -2.6109  -10.4997    0.0000 O   0  0  0  0  0  0  0  0  0  0  0  0
   -1.3119   -9.7497    0.0000 C   0  0  0  0  0  0  0  0  0  0  0  0
   -1.3118   -8.2497    0.0000 C   0  0  0  0  0  0  0  0  0  0  0  0
  1  2  1  0
  2  3  1  0
  3  4  2  0
  4  5  1  0
  5  6  2  0
  6  7  1  0
  7  8  2  0
  8  9  1  0
  9 10  1  0
 10 11  1  0
 11 12  2  0
 12 13  1  0
 13 14  2  0
 14 15  1  0
 14 16  1  0
 16 17  1  0
 16 18  2  0
 18 11  1  0
  9 19  2  0
 19  5  1  0
 19 20  1  0
 20 21  2  0
 21  3  1  0
 21 22  1  0
 22 23  1  0
 23 24  1  0
 24 25  1  0
 25 26  1  0
 26 27  1  0
 27 28  1  0
 28 29  1  0
 29 30  1  0
 30 31  1  0
 31 26  1  0
M  END
>  <Classification>  (150) 
0

>  <pchembl>  (150) 
4.96

>  <InChI_steorem>  (150) 
InChI=1S/C22H24ClFN4O3/c1-29-20-13-19-16(12-21(20)31-8-2-5-28-6-9-30-10-7-28)22(26-14-25-19)27-15-3-4-18(24)17(23)11-15/h3-4,11-14H,2,5-10H2,1H3,(H,25,26,27)

>  <source>  (150) 
ChEMBL25

>  <source_id>  (150) 
25

>  <optional_reference>  (150) 
10.1093/toxsci/kfq269

>  <optional_origin>  (150) 
None

>  <target>  (150) 
BSEP

$$$$

     RDKit          2D

 35 42  0  0  0  0  0  0  0  0999 V2000
   -1.9211    5.8424    0.0000 C   0  0  0  0  0  0  0  0  0  0  0  0
   -2.5381    4.8132    0.0000 N   0  0  0  0  0  0  0  0  0  0  0  0
   -1.8100    3.5000    0.0000 C   0  0  0  0  0  0  0  0  0  0  0  0
   -0.2400    3.5200    0.0000 C   0  0  0  0  0  0  0  0  0  0  0  0
    0.5000    2.1800    0.0000 C   0  0  0  0  0  0  0  0  0  0  0  0
   -1.0600    2.1800    0.0000 O   0  0  0  0  0  0  0  0  0  0  0  0
   -1.8300    0.9300    0.0000 C   0  0  0  0  0  0  0  0  0  0  0  0
   -2.8781    0.3457    0.0000 C   0  0  0  0  0  0  0  0  0  0  0  0
   -2.6500    2.2500    0.0000 C   0  0  0  0  0  0  0  0  0  0  0  0
   -4.1488    2.2849    0.0000 O   0  0  0  0  0  0  0  0  0  0  0  0
   -4.7737    1.2605    0.0000 C   0  0  0  0  0  0  0  0  0  0  0  0
   -0.9800   -0.7800    0.0000 N   0  0  0  0  0  0  0  0  0  0  0  0
   -2.1300   -1.4600    0.0000 C   0  0  0  0  0  0  0  0  0  0  0  0
   -3.3200   -0.7600    0.0000 C   0  0  0  0  0  0  0  0  0  0  0  0
   -4.5500   -1.4800    0.0000 C   0  0  0  0  0  0  0  0  0  0  0  0
   -4.5800   -2.7700    0.0000 C   0  0  0  0  0  0  0  0  0  0  0  0
   -3.3400   -3.4700    0.0000 C   0  0  0  0  0  0  0  0  0  0  0  0
   -2.1300   -2.7900    0.0000 C   0  0  0  0  0  0  0  0  0  0  0  0
    0.2400   -2.7700    0.0000 C   0  0  0  0  0  0  0  0  0  0  0  0
    1.4300   -3.4700    0.0000 C   0  0  0  0  0  0  0  0  0  0  0  0
    1.7600   -4.9700    0.0000 C   0  0  0  0  0  0  0  0  0  0  0  0
    3.2600   -5.0800    0.0000 N   0  0  0  0  0  0  0  0  0  0  0  0
    3.8500   -3.6300    0.0000 C   0  0  0  0  0  0  0  0  0  0  0  0
    5.0053   -3.3055    0.0000 O   0  0  0  0  0  0  0  0  0  0  0  0
    2.6600   -2.7500    0.0000 C   0  0  0  0  0  0  0  0  0  0  0  0
    2.6800   -1.4600    0.0000 C   0  0  0  0  0  0  0  0  0  0  0  0
    3.7900    0.5600    0.0000 C   0  0  0  0  0  0  0  0  0  0  0  0
    4.9600    1.2800    0.0000 C   0  0  0  0  0  0  0  0  0  0  0  0
    4.9600    2.6300    0.0000 C   0  0  0  0  0  0  0  0  0  0  0  0
    3.8100    3.2900    0.0000 C   0  0  0  0  0  0  0  0  0  0  0  0
    2.6400    2.5900    0.0000 C   0  0  0  0  0  0  0  0  0  0  0  0
    2.6400    1.2400    0.0000 C   0  0  0  0  0  0  0  0  0  0  0  0
    1.4900    0.5400    0.0000 N   0  0  0  0  0  0  0  0  0  0  0  0
    1.4500   -0.7600    0.0000 C   0  0  0  0  0  0  0  0  0  0  0  0
    0.2400   -1.4400    0.0000 C   0  0  0  0  0  0  0  0  0  0  0  0
  1  2  1  0
  3  2  1  0
  3  4  1  0
  5  4  1  0
  5  6  1  0
  6  7  1  0
  7  8  1  0
  7  9  1  0
  9  3  1  0
  9 10  1  0
 10 11  1  0
  7 12  1  0
 12 13  1  0
 13 14  2  0
 14 15  1  0
 15 16  2  0
 16 17  1  0
 17 18  2  0
 18 13  1  0
 18 19  1  0
 19 20  1  0
 20 21  1  0
 21 22  1  0
 22 23  1  0
 23 24  2  0
 23 25  1  0
 25 20  2  0
 25 26  1  0
 26 27  1  0
 27 28  2  0
 28 29  1  0
 29 30  2  0
 30 31  1  0
 31 32  2  0
 32 27  1  0
 32 33  1  0
 33  5  1  0
 33 34  1  0
 34 26  2  0
 34 35  1  0
 35 12  1  0
 35 19  2  0
M  END
>  <Classification>  (151) 
0

>  <pchembl>  (151) 
4.73

>  <InChI_steorem>  (151) 
InChI=1S/C28H26N4O3/c1-28-26(34-3)17(29-2)12-20(35-28)31-18-10-6-4-8-14(18)22-23-16(13-30-27(23)33)21-15-9-5-7-11-19(15)32(28)25(21)24(22)31/h4-11,17,20,26,29H,12-13H2,1-3H3,(H,30,33)

>  <source>  (151) 
ChEMBL25

>  <source_id>  (151) 
25

>  <optional_reference>  (151) 
10.1093/toxsci/kfq269

>  <optional_origin>  (151) 
None

>  <target>  (151) 
BSEP

$$$$

     RDKit          2D

 26 28  0  0  0  0  0  0  0  0999 V2000
    2.3238   -0.1256    0.0000 O   0  0  0  0  0  0  0  0  0  0  0  0
    1.2990   -0.7500    0.0000 C   0  0  0  0  0  0  0  0  0  0  0  0
    1.2990    0.7500    0.0000 C   0  0  0  0  0  0  0  0  0  0  0  0
    0.0000    1.5000    0.0000 C   0  0  0  0  0  0  0  0  0  0  0  0
   -1.2990    0.7500    0.0000 N   0  0  0  0  0  0  0  0  0  0  0  0
   -2.6003    1.4977    0.0000 C   0  0  0  0  0  0  0  0  0  0  0  0
   -3.8990    0.7455    0.0000 C   0  0  0  0  0  0  0  0  0  0  0  0
   -5.2003    1.4932    0.0000 C   0  0  0  0  0  0  0  0  0  0  0  0
   -6.4990    0.7409    0.0000 C   0  0  0  0  0  0  0  0  0  0  0  0
   -6.4969   -0.4591    0.0000 O   0  0  0  0  0  0  0  0  0  0  0  0
   -7.8003    1.4887    0.0000 C   0  0  0  0  0  0  0  0  0  0  0  0
   -9.0994    0.7387    0.0000 C   0  0  0  0  0  0  0  0  0  0  0  0
  -10.3984    1.4886    0.0000 C   0  0  0  0  0  0  0  0  0  0  0  0
  -10.3985    2.9886    0.0000 C   0  0  0  0  0  0  0  0  0  0  0  0
  -11.4377    3.5886    0.0000 F   0  0  0  0  0  0  0  0  0  0  0  0
   -9.0995    3.7387    0.0000 C   0  0  0  0  0  0  0  0  0  0  0  0
   -7.8004    2.9887    0.0000 C   0  0  0  0  0  0  0  0  0  0  0  0
   -1.2990   -0.7500    0.0000 C   0  0  0  0  0  0  0  0  0  0  0  0
    0.0000   -1.5000    0.0000 C   0  0  0  0  0  0  0  0  0  0  0  0
    1.2643   -2.2302    0.0000 C   0  0  0  0  0  0  0  0  0  0  0  0
    2.5453   -3.0105    0.0000 C   0  0  0  0  0  0  0  0  0  0  0  0
    2.5101   -4.5101    0.0000 C   0  0  0  0  0  0  0  0  0  0  0  0
    1.1938   -5.2294    0.0000 C   0  0  0  0  0  0  0  0  0  0  0  0
    1.1656   -6.4291    0.0000 Cl  0  0  0  0  0  0  0  0  0  0  0  0
   -0.0872   -4.4491    0.0000 C   0  0  0  0  0  0  0  0  0  0  0  0
   -0.0520   -2.9495    0.0000 C   0  0  0  0  0  0  0  0  0  0  0  0
  1  2  1  0
  2  3  1  0
  3  4  1  0
  4  5  1  0
  5  6  1  0
  6  7  1  0
  7  8  1  0
  8  9  1  0
  9 10  2  0
  9 11  1  0
 11 12  2  0
 12 13  1  0
 13 14  2  0
 14 15  1  0
 14 16  1  0
 16 17  2  0
 17 11  1  0
  5 18  1  0
 18 19  1  0
 19  2  1  0
  2 20  1  0
 20 21  2  0
 21 22  1  0
 22 23  2  0
 23 24  1  0
 23 25  1  0
 25 26  2  0
 26 20  1  0
M  END
>  <Classification>  (152) 
0

>  <pchembl>  (152) 
4.64

>  <InChI_steorem>  (152) 
InChI=1S/C21H23ClFNO2/c22-18-7-5-17(6-8-18)21(26)11-14-24(15-12-21)13-1-2-20(25)16-3-9-19(23)10-4-16/h3-10,26H,1-2,11-15H2

>  <source>  (152) 
ChEMBL25

>  <source_id>  (152) 
25

>  <optional_reference>  (152) 
10.1124/dmd.112.047068

>  <optional_origin>  (152) 
None

>  <target>  (152) 
BSEP

$$$$

     RDKit          2D

 29 31  0  0  0  0  0  0  0  0999 V2000
    7.5395   -1.3388    0.0000 C   0  0  0  0  0  0  0  0  0  0  0  0
    6.4990   -0.7409    0.0000 C   0  0  0  0  0  0  0  0  0  0  0  0
    5.2003   -1.4932    0.0000 C   0  0  0  0  0  0  0  0  0  0  0  0
    5.2024   -2.6932    0.0000 C   0  0  0  0  0  0  0  0  0  0  0  0
    3.8990   -0.7455    0.0000 C   0  0  0  0  0  0  0  0  0  0  0  0
    3.8969    0.4545    0.0000 O   0  0  0  0  0  0  0  0  0  0  0  0
    2.6003   -1.4977    0.0000 O   0  0  0  0  0  0  0  0  0  0  0  0
    1.2990   -0.7500    0.0000 C   0  0  0  0  0  0  0  0  0  0  0  0
    1.2990    0.7500    0.0000 C   0  0  0  0  0  0  0  0  0  0  0  0
    0.0000    1.5000    0.0000 C   0  0  0  0  0  0  0  0  0  0  0  0
    0.0000    2.7000    0.0000 C   0  0  0  0  0  0  0  0  0  0  0  0
   -1.2990    0.7500    0.0000 C   0  0  0  0  0  0  0  0  0  0  0  0
   -1.2990   -0.7500    0.0000 C   0  0  0  0  0  0  0  0  0  0  0  0
   -2.5981   -1.5000    0.0000 C   0  0  0  0  0  0  0  0  0  0  0  0
   -2.5981   -3.0000    0.0000 C   0  0  0  0  0  0  0  0  0  0  0  0
   -1.2990   -3.7500    0.0000 C   0  0  0  0  0  0  0  0  0  0  0  0
   -1.2990   -4.9500    0.0000 C   0  0  0  0  0  0  0  0  0  0  0  0
    0.0000   -3.0000    0.0000 C   0  0  0  0  0  0  0  0  0  0  0  0
    1.2982   -3.7531    0.0000 C   0  0  0  0  0  0  0  0  0  0  0  0
    1.2961   -5.2539    0.0000 C   0  0  0  0  0  0  0  0  0  0  0  0
    2.5943   -6.0070    0.0000 C   0  0  0  0  0  0  0  0  0  0  0  0
    2.5944   -7.5070    0.0000 C   0  0  0  0  0  0  0  0  0  0  0  0
    3.8934   -8.2570    0.0000 C   0  0  0  0  0  0  0  0  0  0  0  0
    3.8934   -9.4570    0.0000 O   0  0  0  0  0  0  0  0  0  0  0  0
    5.1924   -7.5071    0.0000 C   0  0  0  0  0  0  0  0  0  0  0  0
    5.1925   -6.0071    0.0000 C   0  0  0  0  0  0  0  0  0  0  0  0
    6.2317   -5.4071    0.0000 O   0  0  0  0  0  0  0  0  0  0  0  0
    3.8935   -5.2570    0.0000 O   0  0  0  0  0  0  0  0  0  0  0  0
    0.0000   -1.5000    0.0000 C   0  0  0  0  0  0  0  0  0  0  0  0
  1  2  1  0
  2  3  1  0
  3  4  1  0
  3  5  1  0
  5  6  2  0
  5  7  1  0
  8  7  1  0
  8  9  1  0
  9 10  1  0
 10 11  1  0
 10 12  1  0
 12 13  2  0
 13 14  1  0
 14 15  2  0
 15 16  1  0
 16 17  1  0
 16 18  1  0
 18 19  1  0
 19 20  1  0
 21 20  1  0
 21 22  1  0
 22 23  1  0
 23 24  1  0
 23 25  1  0
 25 26  1  0
 26 27  2  0
 26 28  1  0
 28 21  1  0
 18 29  1  0
 29  8  1  0
 29 13  1  0
M  END
>  <Classification>  (153) 
0

>  <pchembl>  (153) 
4.71

>  <InChI_steorem>  (153) 
InChI=1S/C24H36O5/c1-5-15(3)24(27)29-21-11-14(2)10-17-7-6-16(4)20(23(17)21)9-8-19-12-18(25)13-22(26)28-19/h6-7,10,14-16,18-21,23,25H,5,8-9,11-13H2,1-4H3

>  <source>  (153) 
ChEMBL25

>  <source_id>  (153) 
25

>  <optional_reference>  (153) 
10.1002/hep.27206

>  <optional_origin>  (153) 
None

>  <target>  (153) 
BSEP

$$$$

     RDKit          2D

 33 37  0  0  0  0  0  0  0  0999 V2000
    5.4245   -0.8861    0.0000 C   0  0  0  0  0  0  0  0  0  0  0  0
    4.9546   -1.9903    0.0000 C   0  0  0  0  0  0  0  0  0  0  0  0
    5.6470   -2.9704    0.0000 C   0  0  0  0  0  0  0  0  0  0  0  0
    4.2067   -3.2906    0.0000 O   0  0  0  0  0  0  0  0  0  0  0  0
    2.7390   -2.9810    0.0000 C   0  0  0  0  0  0  0  0  0  0  0  0
    1.8437   -3.7801    0.0000 O   0  0  0  0  0  0  0  0  0  0  0  0
    2.5987   -1.5004    0.0000 N   0  0  0  0  0  0  0  0  0  0  0  0
    1.2990   -0.7500    0.0000 C   0  0  0  0  0  0  0  0  0  0  0  0
    1.2990    0.7500    0.0000 C   0  0  0  0  0  0  0  0  0  0  0  0
    0.0000    1.5000    0.0000 C   0  0  0  0  0  0  0  0  0  0  0  0
   -1.2990    0.7500    0.0000 C   0  0  0  0  0  0  0  0  0  0  0  0
   -1.2990   -0.7500    0.0000 C   0  0  0  0  0  0  0  0  0  0  0  0
    0.0000   -1.5000    0.0000 C   0  0  0  0  0  0  0  0  0  0  0  0
   -2.5987    1.5004    0.0000 C   0  0  0  0  0  0  0  0  0  0  0  0
   -3.8991    0.7525    0.0000 C   0  0  0  0  0  0  0  0  0  0  0  0
   -5.1969    1.5045    0.0000 N   0  0  0  0  0  0  0  0  0  0  0  0
   -5.1945    3.0045    0.0000 C   0  0  0  0  0  0  0  0  0  0  0  0
   -6.2328    3.6062    0.0000 N   0  0  0  0  0  0  0  0  0  0  0  0
   -3.8943    3.7525    0.0000 C   0  0  0  0  0  0  0  0  0  0  0  0
   -2.5965    3.0004    0.0000 C   0  0  0  0  0  0  0  0  0  0  0  0
   -3.8919    5.2532    0.0000 C   0  0  0  0  0  0  0  0  0  0  0  0
   -5.1886    6.0075    0.0000 N   0  0  0  0  0  0  0  0  0  0  0  0
   -5.1838    7.5074    0.0000 C   0  0  0  0  0  0  0  0  0  0  0  0
   -3.8824    8.2533    0.0000 C   0  0  0  0  0  0  0  0  0  0  0  0
   -2.5858    7.4992    0.0000 C   0  0  0  0  0  0  0  0  0  0  0  0
   -2.5905    5.9992    0.0000 N   0  0  0  0  0  0  0  0  0  0  0  0
    3.9492   -0.8772    0.0000 C   0  0  0  0  0  0  0  0  0  0  0  0
    4.2501    0.5931    0.0000 C   0  0  0  0  0  0  0  0  0  0  0  0
    3.2134    1.6699    0.0000 C   0  0  0  0  0  0  0  0  0  0  0  0
    3.6300    3.1109    0.0000 C   0  0  0  0  0  0  0  0  0  0  0  0
    5.0862    3.4706    0.0000 C   0  0  0  0  0  0  0  0  0  0  0  0
    6.1259    2.3894    0.0000 C   0  0  0  0  0  0  0  0  0  0  0  0
    5.7093    0.9484    0.0000 C   0  0  0  0  0  0  0  0  0  0  0  0
  1  2  1  0
  2  3  1  0
  2  4  1  0
  4  5  1  0
  5  6  2  0
  5  7  1  0
  8  7  1  0
  8  9  1  0
  9 10  1  0
 10 11  1  0
 11 12  1  0
 12 13  1  0
 13  8  1  0
 11 14  1  0
 14 15  2  0
 15 16  1  0
 16 17  2  0
 17 18  1  0
 17 19  1  0
 19 20  2  0
 20 14  1  0
 19 21  1  0
 21 22  2  0
 22 23  1  0
 23 24  2  0
 24 25  1  0
 25 26  2  0
 26 21  1  0
  7 27  1  0
 27  2  1  0
 27 28  1  0
 28 29  2  0
 29 30  1  0
 30 31  2  0
 31 32  1  0
 32 33  2  0
 33 28  1  0
M  END
>  <Classification>  (154) 
0

>  <pchembl>  (154) 
4.96

>  <InChI_steorem>  (154) 
InChI=1S/C26H29N5O2/c1-26(2)22(18-7-4-3-5-8-18)31(25(32)33-26)20-11-9-17(10-12-20)19-15-21(23(27)30-16-19)24-28-13-6-14-29-24/h3-8,13-17,20,22H,9-12H2,1-2H3,(H2,27,30)

>  <source>  (154) 
ChEMBL25

>  <source_id>  (154) 
25

>  <optional_reference>  (154) 
10.1021/ml4003315

>  <optional_origin>  (154) 
None

>  <target>  (154) 
BSEP

$$$$

     RDKit          2D

 30 31  0  0  0  0  0  0  0  0999 V2000
   14.9749    1.0416    0.0000 C   0  0  0  0  0  0  0  0  0  0  0  0
   14.7321   -0.1336    0.0000 C   0  0  0  0  0  0  0  0  0  0  0  0
   13.3077   -0.6064    0.0000 N   0  0  0  0  0  0  0  0  0  0  0  0
   13.0040   -2.0761    0.0000 C   0  0  0  0  0  0  0  0  0  0  0  0
   13.9006   -2.8737    0.0000 O   0  0  0  0  0  0  0  0  0  0  0  0
   11.5796   -2.5489    0.0000 C   0  0  0  0  0  0  0  0  0  0  0  0
   11.2759   -4.0187    0.0000 C   0  0  0  0  0  0  0  0  0  0  0  0
    9.8515   -4.4915    0.0000 C   0  0  0  0  0  0  0  0  0  0  0  0
    9.5478   -5.9613    0.0000 C   0  0  0  0  0  0  0  0  0  0  0  0
    8.1234   -6.4341    0.0000 C   0  0  0  0  0  0  0  0  0  0  0  0
    7.0011   -5.4376    0.0000 C   0  0  0  0  0  0  0  0  0  0  0  0
    5.5792   -5.9096    0.0000 C   0  0  0  0  0  0  0  0  0  0  0  0
    4.3516   -5.0476    0.0000 C   0  0  0  0  0  0  0  0  0  0  0  0
    4.3323   -3.8478    0.0000 O   0  0  0  0  0  0  0  0  0  0  0  0
    3.1525   -5.9487    0.0000 C   0  0  0  0  0  0  0  0  0  0  0  0
    3.6389   -7.3677    0.0000 C   0  0  0  0  0  0  0  0  0  0  0  0
    2.9552   -8.3538    0.0000 O   0  0  0  0  0  0  0  0  0  0  0  0
    5.1256   -7.3260    0.0000 C   0  0  0  0  0  0  0  0  0  0  0  0
    6.0248   -8.5277    0.0000 C   0  0  0  0  0  0  0  0  0  0  0  0
    5.4345   -9.9076    0.0000 C   0  0  0  0  0  0  0  0  0  0  0  0
    6.3337  -11.1092    0.0000 C   0  0  0  0  0  0  0  0  0  0  0  0
    7.5252  -10.9667    0.0000 O   0  0  0  0  0  0  0  0  0  0  0  0
    5.7435  -12.4891    0.0000 C   0  0  0  0  0  0  0  0  0  0  0  0
    6.6426  -13.6908    0.0000 C   0  0  0  0  0  0  0  0  0  0  0  0
    6.0524  -15.0707    0.0000 C   0  0  0  0  0  0  0  0  0  0  0  0
    6.9493  -16.2730    0.0000 C   0  0  0  0  0  0  0  0  0  0  0  0
    6.3566  -17.6509    0.0000 C   0  0  0  0  0  0  0  0  0  0  0  0
    4.8669  -17.8266    0.0000 C   0  0  0  0  0  0  0  0  0  0  0  0
    3.9700  -16.6243    0.0000 C   0  0  0  0  0  0  0  0  0  0  0  0
    4.5627  -15.2463    0.0000 C   0  0  0  0  0  0  0  0  0  0  0  0
  1  2  1  0
  2  3  1  0
  3  4  1  0
  4  5  2  0
  4  6  1  0
  6  7  1  0
  7  8  1  0
  8  9  1  0
  9 10  2  3
 10 11  1  0
 12 11  1  0
 12 13  1  0
 13 14  1  0
 13 15  1  0
 15 16  1  0
 16 17  1  0
 16 18  1  0
 18 12  1  0
 18 19  1  0
 19 20  2  3
 20 21  1  0
 21 22  1  0
 21 23  1  0
 23 24  1  0
 24 25  1  0
 25 26  2  0
 26 27  1  0
 27 28  2  0
 28 29  1  0
 29 30  2  0
 30 25  1  0
M  END
>  <Classification>  (155) 
0

>  <pchembl>  (155) 
4.39

>  <InChI_steorem>  (155) 
InChI=1S/C25H37NO4/c1-2-26-25(30)13-9-4-3-8-12-21-22(24(29)18-23(21)28)17-16-20(27)15-14-19-10-6-5-7-11-19/h3,5-8,10-11,16-17,20-24,27-29H,2,4,9,12-15,18H2,1H3,(H,26,30)

>  <source>  (155) 
ChEMBL25

>  <source_id>  (155) 
25

>  <optional_reference>  (155) 
10.1093/toxsci/kft176

>  <optional_origin>  (155) 
None

>  <target>  (155) 
BSEP

$$$$

     RDKit          2D

 26 29  0  0  0  0  0  0  0  0999 V2000
    2.3910   -0.2524    0.0000 C   0  0  0  0  0  0  0  0  0  0  0  0
    1.2990   -0.7500    0.0000 C   0  0  0  0  0  0  0  0  0  0  0  0
    1.2990    0.7500    0.0000 C   0  0  0  0  0  0  0  0  0  0  0  0
    0.0000    1.5000    0.0000 C   0  0  0  0  0  0  0  0  0  0  0  0
    0.0000    2.7000    0.0000 O   0  0  0  0  0  0  0  0  0  0  0  0
   -1.2990    0.7500    0.0000 C   0  0  0  0  0  0  0  0  0  0  0  0
   -1.2990   -0.7500    0.0000 C   0  0  0  0  0  0  0  0  0  0  0  0
   -2.5981   -1.5000    0.0000 C   0  0  0  0  0  0  0  0  0  0  0  0
   -3.8971   -0.7500    0.0000 C   0  0  0  0  0  0  0  0  0  0  0  0
   -3.8971    0.7500    0.0000 C   0  0  0  0  0  0  0  0  0  0  0  0
   -5.1962    1.5000    0.0000 C   0  0  0  0  0  0  0  0  0  0  0  0
   -5.1962    3.0000    0.0000 C   0  0  0  0  0  0  0  0  0  0  0  0
   -6.2354    3.6000    0.0000 O   0  0  0  0  0  0  0  0  0  0  0  0
   -3.8971    3.7500    0.0000 C   0  0  0  0  0  0  0  0  0  0  0  0
   -2.5981    3.0000    0.0000 C   0  0  0  0  0  0  0  0  0  0  0  0
   -2.5981    1.5000    0.0000 C   0  0  0  0  0  0  0  0  0  0  0  0
   -1.5589    2.1000    0.0000 C   0  0  0  0  0  0  0  0  0  0  0  0
    0.0000   -1.5000    0.0000 C   0  0  0  0  0  0  0  0  0  0  0  0
    0.3326   -2.9571    0.0000 C   0  0  0  0  0  0  0  0  0  0  0  0
    1.8253   -3.1044    0.0000 C   0  0  0  0  0  0  0  0  0  0  0  0
    2.4266   -1.7302    0.0000 C   0  0  0  0  0  0  0  0  0  0  0  0
    2.7661   -0.5792    0.0000 O   0  0  0  0  0  0  0  0  0  0  0  0
    3.4182   -2.8395    0.0000 C   0  0  0  0  0  0  0  0  0  0  0  0
    4.5889   -2.5759    0.0000 O   0  0  0  0  0  0  0  0  0  0  0  0
    2.9720   -4.2725    0.0000 C   0  0  0  0  0  0  0  0  0  0  0  0
    3.7854   -5.1548    0.0000 O   0  0  0  0  0  0  0  0  0  0  0  0
  2  1  1  0
  2  3  1  0
  3  4  1  0
  4  5  1  0
  6  4  1  0
  6  7  1  0
  7  8  1  0
  8  9  1  0
  9 10  1  0
 10 11  2  0
 11 12  1  0
 12 13  2  0
 12 14  1  0
 14 15  2  0
 15 16  1  0
 16  6  1  0
 16 10  1  0
 16 17  1  0
  7 18  1  0
 18  2  1  0
 18 19  1  0
 19 20  1  0
 20 21  1  0
 21  2  1  0
 21 22  1  0
 21 23  1  0
 23 24  2  0
 23 25  1  0
 25 26  1  0
M  END
>  <Classification>  (156) 
0

>  <pchembl>  (156) 
4.04

>  <InChI_steorem>  (156) 
InChI=1S/C21H28O5/c1-19-7-5-13(23)9-12(19)3-4-14-15-6-8-21(26,17(25)11-22)20(15,2)10-16(24)18(14)19/h5,7,9,14-16,18,22,24,26H,3-4,6,8,10-11H2,1-2H3

>  <source>  (156) 
ChEMBL25

>  <source_id>  (156) 
25

>  <optional_reference>  (156) 
10.1124/dmd.112.047068

>  <optional_origin>  (156) 
None

>  <target>  (156) 
BSEP

$$$$

     RDKit          2D

 62 65  0  0  0  0  0  0  0  0999 V2000
   -7.2029    3.8264    0.0000 C   0  0  0  0  0  0  0  0  0  0  0  0
   -7.4259    2.6473    0.0000 C   0  0  0  0  0  0  0  0  0  0  0  0
   -8.5586    2.2512    0.0000 C   0  0  0  0  0  0  0  0  0  0  0  0
   -6.2900    1.6800    0.0000 C   0  0  0  0  0  0  0  0  0  0  0  0
   -5.0300    2.4100    0.0000 N   0  0  0  0  0  0  0  0  0  0  0  0
   -3.7600    1.6800    0.0000 C   0  0  0  0  0  0  0  0  0  0  0  0
   -3.7538    0.4800    0.0000 O   0  0  0  0  0  0  0  0  0  0  0  0
   -2.5200    2.4100    0.0000 C   0  0  0  0  0  0  0  0  0  0  0  0
   -2.5281    3.9112    0.0000 C   0  0  0  0  0  0  0  0  0  0  0  0
   -3.8314    4.6554    0.0000 C   0  0  0  0  0  0  0  0  0  0  0  0
   -3.8396    6.1562    0.0000 C   0  0  0  0  0  0  0  0  0  0  0  0
   -4.8817    6.7512    0.0000 O   0  0  0  0  0  0  0  0  0  0  0  0
   -2.8035    6.7615    0.0000 C   0  0  0  0  0  0  0  0  0  0  0  0
   -1.2700    1.6800    0.0000 C   0  0  0  0  0  0  0  0  0  0  0  0
   -1.2849    0.4801    0.0000 O   0  0  0  0  0  0  0  0  0  0  0  0
    0.0000    2.3800    0.0000 C   0  0  0  0  0  0  0  0  0  0  0  0
    0.0168    3.5799    0.0000 C   0  0  0  0  0  0  0  0  0  0  0  0
    1.1900    1.6800    0.0000 C   0  0  0  0  0  0  0  0  0  0  0  0
    1.1945    0.4800    0.0000 O   0  0  0  0  0  0  0  0  0  0  0  0
    2.4100    2.4100    0.0000 C   0  0  0  0  0  0  0  0  0  0  0  0
    3.8100    1.6400    0.0000 C   0  0  0  0  0  0  0  0  0  0  0  0
    5.0700    2.3700    0.0000 C   0  0  0  0  0  0  0  0  0  0  0  0
    6.3400    1.6400    0.0000 C   0  0  0  0  0  0  0  0  0  0  0  0
    8.8978    3.1298    0.0000 C   0  0  0  0  0  0  0  0  0  0  0  0
    5.0700   -2.0200    0.0000 C   0  0  0  0  0  0  0  0  0  0  0  0
    3.8100   -1.2100    0.0000 O   0  0  0  0  0  0  0  0  0  0  0  0
    2.3400   -1.8900    0.0000 C   0  0  0  0  0  0  0  0  0  0  0  0
    2.3030   -3.0894    0.0000 O   0  0  0  0  0  0  0  0  0  0  0  0
    1.2100   -1.2800    0.0000 C   0  0  0  0  0  0  0  0  0  0  0  0
    1.2100    0.2000    0.0000 C   0  0  0  0  0  0  0  0  0  0  0  0
    0.0000    0.9400    0.0000 C   0  0  0  0  0  0  0  0  0  0  0  0
   -1.3100    0.2000    0.0000 C   0  0  0  0  0  0  0  0  0  0  0  0
   -1.3000   -1.3000    0.0000 N   0  0  0  0  0  0  0  0  0  0  0  0
    0.0000   -2.0200    0.0000 N   0  0  0  0  0  0  0  0  0  0  0  0
   -2.5400   -1.9300    0.0000 C   0  0  0  0  0  0  0  0  0  0  0  0
   -2.5558   -3.1299    0.0000 O   0  0  0  0  0  0  0  0  0  0  0  0
   -3.7400   -1.2800    0.0000 C   0  0  0  0  0  0  0  0  0  0  0  0
   -3.7060    0.2219    0.0000 C   0  0  0  0  0  0  0  0  0  0  0  0
   -2.3898    0.9430    0.0000 C   0  0  0  0  0  0  0  0  0  0  0  0
   -2.3534    2.4426    0.0000 C   0  0  0  0  0  0  0  0  0  0  0  0
   -1.0367    3.1610    0.0000 C   0  0  0  0  0  0  0  0  0  0  0  0
   -1.0077    4.3607    0.0000 O   0  0  0  0  0  0  0  0  0  0  0  0
    0.2439    2.3799    0.0000 C   0  0  0  0  0  0  0  0  0  0  0  0
    0.2077    0.8803    0.0000 C   0  0  0  0  0  0  0  0  0  0  0  0
    1.2321    0.2554    0.0000 F   0  0  0  0  0  0  0  0  0  0  0  0
   -1.1091    0.1619    0.0000 C   0  0  0  0  0  0  0  0  0  0  0  0
   -5.0300   -1.9800    0.0000 N   0  0  0  0  0  0  0  0  0  0  0  0
   -6.2900   -1.2800    0.0000 C   0  0  0  0  0  0  0  0  0  0  0  0
   -7.3242   -1.8886    0.0000 O   0  0  0  0  0  0  0  0  0  0  0  0
    5.0289   -3.5202    0.0000 C   0  0  0  0  0  0  0  0  0  0  0  0
    3.7097   -4.2358    0.0000 C   0  0  0  0  0  0  0  0  0  0  0  0
    3.6689   -5.7361    0.0000 C   0  0  0  0  0  0  0  0  0  0  0  0
    2.3496   -6.4517    0.0000 C   0  0  0  0  0  0  0  0  0  0  0  0
    2.3088   -7.9520    0.0000 C   0  0  0  0  0  0  0  0  0  0  0  0
    3.3316   -8.5797    0.0000 O   0  0  0  0  0  0  0  0  0  0  0  0
    0.9896   -8.6676    0.0000 N   0  0  0  0  0  0  0  0  0  0  0  0
    0.9466  -10.1670    0.0000 C   0  0  0  0  0  0  0  0  0  0  0  0
   -0.3733  -10.8795    0.0000 C   0  0  0  0  0  0  0  0  0  0  0  0
   -1.6504  -10.0927    0.0000 C   0  0  0  0  0  0  0  0  0  0  0  0
   -1.6075   -8.5933    0.0000 C   0  0  0  0  0  0  0  0  0  0  0  0
   -0.2876   -7.8808    0.0000 O   0  0  0  0  0  0  0  0  0  0  0  0
    6.0516   -4.1479    0.0000 C   0  0  0  0  0  0  0  0  0  0  0  0
  1  2  1  0
  2  3  1  0
  4  2  1  0
  4  5  1  0
  5  6  1  0
  6  7  2  0
  6  8  1  0
  8  9  1  0
  9 10  1  0
 10 11  1  0
 11 12  2  0
 11 13  1  0
  8 14  1  0
 14 15  1  0
 14 16  1  0
 16 17  1  0
 16 18  1  0
 18 19  1  0
 18 20  1  0
 20 21  2  0
 21 22  1  0
 22 23  2  0
 23 24  1  0
 24 25  1  0
 25 26  1  0
 26 27  1  0
 27 28  2  0
 27 29  1  0
 29 30  1  0
 30 31  1  0
 31 32  1  0
 32 33  1  0
 33 34  1  0
 34 29  1  0
 33 35  1  0
 35 36  2  0
 35 37  1  0
 37 38  1  0
 38 39  1  0
 39 40  2  0
 40 41  1  0
 41 42  1  0
 41 43  2  0
 43 44  1  0
 44 45  1  0
 44 46  2  0
 46 39  1  0
 37 47  1  0
 47 48  1  0
 48  4  1  0
 48 49  2  0
 25 50  1  0
 50 51  2  3
 51 52  1  0
 52 53  2  3
 53 54  1  0
 54 55  2  0
 54 56  1  0
 56 57  1  0
 57 58  1  0
 58 59  1  0
 59 60  1  0
 60 61  1  0
 61 56  1  0
 50 62  1  0
M  END
>  <Classification>  (157) 
0

>  <pchembl>  (157) 
4.91

>  <InChI_steorem>  (157) 
InChI=1S/C45H62FN5O11/c1-27(2)40-43(58)47-36(25-31-23-32(46)26-33(53)24-31)44(59)50-20-12-14-35(49-50)45(60)62-38(28(3)13-11-17-39(55)51-21-9-10-22-61-51)16-8-6-7-15-37(54)30(5)41(56)34(42(57)48-40)19-18-29(4)52/h6-8,11,13,15,17,23-24,26-27,30,34-38,40-41,49,53-54,56H,9-10,12,14,16,18-22,25H2,1-5H3,(H,47,58)(H,48,57)

>  <source>  (157) 
ChEMBL25

>  <source_id>  (157) 
25

>  <optional_reference>  (157) 
None

>  <optional_origin>  (157) 
None

>  <target>  (157) 
BSEP

$$$$

     RDKit          2D

 36 40  0  0  0  0  0  0  0  0999 V2000
    3.6375   -0.9049    0.0000 C   0  0  0  0  0  0  0  0  0  0  0  0
    2.5973   -1.5031    0.0000 C   0  0  0  0  0  0  0  0  0  0  0  0
    2.5956   -2.7031    0.0000 O   0  0  0  0  0  0  0  0  0  0  0  0
    1.2990   -0.7500    0.0000 N   0  0  0  0  0  0  0  0  0  0  0  0
    1.2990    0.7500    0.0000 C   0  0  0  0  0  0  0  0  0  0  0  0
    0.0000    1.5000    0.0000 C   0  0  0  0  0  0  0  0  0  0  0  0
   -1.2990    0.7500    0.0000 N   0  0  0  0  0  0  0  0  0  0  0  0
   -1.2990   -0.7500    0.0000 C   0  0  0  0  0  0  0  0  0  0  0  0
    0.0000   -1.5000    0.0000 C   0  0  0  0  0  0  0  0  0  0  0  0
   -2.5987    1.5004    0.0000 C   0  0  0  0  0  0  0  0  0  0  0  0
   -2.6012    3.0004    0.0000 C   0  0  0  0  0  0  0  0  0  0  0  0
   -3.9015    3.7484    0.0000 C   0  0  0  0  0  0  0  0  0  0  0  0
   -5.1993    2.9963    0.0000 C   0  0  0  0  0  0  0  0  0  0  0  0
   -6.5018    3.7420    0.0000 O   0  0  0  0  0  0  0  0  0  0  0  0
   -7.7993    2.9876    0.0000 C   0  0  0  0  0  0  0  0  0  0  0  0
   -9.1017    3.7333    0.0000 C   0  0  0  0  0  0  0  0  0  0  0  0
  -10.4521    3.1101    0.0000 C   0  0  0  0  0  0  0  0  0  0  0  0
  -11.4576    4.2232    0.0000 O   0  0  0  0  0  0  0  0  0  0  0  0
  -10.7097    5.5235    0.0000 C   0  0  0  0  0  0  0  0  0  0  0  0
  -12.1915    5.6529    0.0000 C   0  0  0  0  0  0  0  0  0  0  0  0
  -13.0723    4.4376    0.0000 N   0  0  0  0  0  0  0  0  0  0  0  0
  -14.5587    4.4336    0.0000 C   0  0  0  0  0  0  0  0  0  0  0  0
  -15.0012    3.0003    0.0000 C   0  0  0  0  0  0  0  0  0  0  0  0
  -13.7748    2.1366    0.0000 N   0  0  0  0  0  0  0  0  0  0  0  0
  -12.5744    3.0360    0.0000 C   0  0  0  0  0  0  0  0  0  0  0  0
   -9.2420    5.2139    0.0000 O   0  0  0  0  0  0  0  0  0  0  0  0
   -9.8181    6.7146    0.0000 C   0  0  0  0  0  0  0  0  0  0  0  0
   -8.3287    6.5365    0.0000 C   0  0  0  0  0  0  0  0  0  0  0  0
   -7.4298    7.7374    0.0000 C   0  0  0  0  0  0  0  0  0  0  0  0
   -8.0203    9.1162    0.0000 C   0  0  0  0  0  0  0  0  0  0  0  0
   -7.3012   10.0769    0.0000 Cl  0  0  0  0  0  0  0  0  0  0  0  0
   -9.5097    9.2943    0.0000 C   0  0  0  0  0  0  0  0  0  0  0  0
  -10.4086    8.0934    0.0000 C   0  0  0  0  0  0  0  0  0  0  0  0
  -11.6001    8.2359    0.0000 Cl  0  0  0  0  0  0  0  0  0  0  0  0
   -5.1969    1.4963    0.0000 C   0  0  0  0  0  0  0  0  0  0  0  0
   -3.8967    0.7484    0.0000 C   0  0  0  0  0  0  0  0  0  0  0  0
  1  2  1  0
  2  3  2  0
  2  4  1  0
  4  5  1  0
  5  6  1  0
  6  7  1  0
  7  8  1  0
  8  9  1  0
  9  4  1  0
  7 10  1  0
 10 11  2  0
 11 12  1  0
 12 13  2  0
 13 14  1  0
 14 15  1  0
 15 16  1  0
 16 17  1  0
 17 18  1  0
 18 19  1  0
 19 20  1  0
 20 21  1  0
 21 22  1  0
 22 23  2  0
 23 24  1  0
 24 25  2  0
 25 21  1  0
 19 26  1  0
 26 16  1  0
 19 27  1  0
 27 28  2  0
 28 29  1  0
 29 30  2  0
 30 31  1  0
 30 32  1  0
 32 33  2  0
 33 27  1  0
 33 34  1  0
 13 35  1  0
 35 36  2  0
 36 10  1  0
M  END
>  <Classification>  (158) 
0

>  <pchembl>  (158) 
4.18

>  <InChI_steorem>  (158) 
InChI=1S/C26H28Cl2N4O4/c1-19(33)31-10-12-32(13-11-31)21-3-5-22(6-4-21)34-15-23-16-35-26(36-23,17-30-9-8-29-18-30)24-7-2-20(27)14-25(24)28/h2-9,14,18,23H,10-13,15-17H2,1H3

>  <source>  (158) 
ChEMBL25

>  <source_id>  (158) 
25

>  <optional_reference>  (158) 
10.1023/a:1023278211849

>  <optional_origin>  (158) 
None

>  <target>  (158) 
BSEP

$$$$

     RDKit          2D

 25 27  0  0  0  0  0  0  0  0999 V2000
    2.8509   -5.8560    0.0000 C   0  0  0  0  0  0  0  0  0  0  0  0
    3.8912   -5.2578    0.0000 N   0  0  0  0  0  0  0  0  0  0  0  0
    3.8933   -3.7570    0.0000 C   0  0  0  0  0  0  0  0  0  0  0  0
    2.5951   -3.0039    0.0000 C   0  0  0  0  0  0  0  0  0  0  0  0
    2.5973   -1.5031    0.0000 O   0  0  0  0  0  0  0  0  0  0  0  0
    1.2990   -0.7500    0.0000 C   0  0  0  0  0  0  0  0  0  0  0  0
    1.2990    0.7500    0.0000 C   0  0  0  0  0  0  0  0  0  0  0  0
    0.0000    1.5000    0.0000 C   0  0  0  0  0  0  0  0  0  0  0  0
   -1.2990    0.7500    0.0000 C   0  0  0  0  0  0  0  0  0  0  0  0
   -2.6003    1.4977    0.0000 C   0  0  0  0  0  0  0  0  0  0  0  0
   -3.8990    0.7455    0.0000 C   0  0  0  0  0  0  0  0  0  0  0  0
   -4.0317   -0.7359    0.0000 S   0  0  0  0  0  0  0  0  0  0  0  0
   -5.4979   -1.0529    0.0000 C   0  0  0  0  0  0  0  0  0  0  0  0
   -5.9821   -2.1508    0.0000 O   0  0  0  0  0  0  0  0  0  0  0  0
   -6.2524    0.2436    0.0000 N   0  0  0  0  0  0  0  0  0  0  0  0
   -5.2526    1.3618    0.0000 C   0  0  0  0  0  0  0  0  0  0  0  0
   -5.4992    2.5362    0.0000 O   0  0  0  0  0  0  0  0  0  0  0  0
   -1.2990   -0.7500    0.0000 C   0  0  0  0  0  0  0  0  0  0  0  0
    0.0000   -1.5000    0.0000 C   0  0  0  0  0  0  0  0  0  0  0  0
    5.1894   -6.0109    0.0000 C   0  0  0  0  0  0  0  0  0  0  0  0
    5.1895   -7.5109    0.0000 C   0  0  0  0  0  0  0  0  0  0  0  0
    6.4885   -8.2610    0.0000 C   0  0  0  0  0  0  0  0  0  0  0  0
    7.7875   -7.5110    0.0000 C   0  0  0  0  0  0  0  0  0  0  0  0
    7.7876   -6.0110    0.0000 C   0  0  0  0  0  0  0  0  0  0  0  0
    6.4885   -5.2610    0.0000 N   0  0  0  0  0  0  0  0  0  0  0  0
  1  2  1  0
  2  3  1  0
  3  4  1  0
  4  5  1  0
  5  6  1  0
  6  7  2  0
  7  8  1  0
  8  9  2  0
  9 10  1  0
 10 11  1  0
 11 12  1  0
 12 13  1  0
 13 14  2  0
 13 15  1  0
 15 16  1  0
 16 11  1  0
 16 17  2  0
  9 18  1  0
 18 19  2  0
 19  6  1  0
  2 20  1  0
 20 21  2  0
 21 22  1  0
 22 23  2  0
 23 24  1  0
 24 25  2  0
 25 20  1  0
M  END
>  <Classification>  (159) 
1

>  <pchembl>  (159) 
5.19

>  <InChI_steorem>  (159) 
InChI=1S/C18H19N3O3S/c1-21(16-4-2-3-9-19-16)10-11-24-14-7-5-13(6-8-14)12-15-17(22)20-18(23)25-15/h2-9,15H,10-12H2,1H3,(H,20,22,23)

>  <source>  (159) 
ChEMBL25

>  <source_id>  (159) 
25

>  <optional_reference>  (159) 
10.1124/dmd.111.040758

>  <optional_origin>  (159) 
None

>  <target>  (159) 
BSEP

$$$$

     RDKit          2D

 33 36  0  0  0  0  0  0  0  0999 V2000
    1.0531   -8.6175    0.0000 C   0  0  0  0  0  0  0  0  0  0  0  0
    2.2459   -8.7488    0.0000 C   0  0  0  0  0  0  0  0  0  0  0  0
    3.1332   -7.5416    0.0000 C   0  0  0  0  0  0  0  0  0  0  0  0
    2.6747   -6.1134    0.0000 N   0  0  0  0  0  0  0  0  0  0  0  0
    3.8912   -5.2578    0.0000 N   0  0  0  0  0  0  0  0  0  0  0  0
    3.8933   -3.7570    0.0000 C   0  0  0  0  0  0  0  0  0  0  0  0
    2.5951   -3.0039    0.0000 C   0  0  0  0  0  0  0  0  0  0  0  0
    2.5973   -1.5031    0.0000 C   0  0  0  0  0  0  0  0  0  0  0  0
    1.2990   -0.7500    0.0000 N   0  0  0  0  0  0  0  0  0  0  0  0
    1.2990    0.7500    0.0000 C   0  0  0  0  0  0  0  0  0  0  0  0
    0.0000    1.5000    0.0000 C   0  0  0  0  0  0  0  0  0  0  0  0
   -1.2990    0.7500    0.0000 N   0  0  0  0  0  0  0  0  0  0  0  0
   -1.2990   -0.7500    0.0000 C   0  0  0  0  0  0  0  0  0  0  0  0
    0.0000   -1.5000    0.0000 C   0  0  0  0  0  0  0  0  0  0  0  0
   -2.5987    1.5004    0.0000 C   0  0  0  0  0  0  0  0  0  0  0  0
   -2.6012    3.0004    0.0000 C   0  0  0  0  0  0  0  0  0  0  0  0
   -3.9015    3.7484    0.0000 C   0  0  0  0  0  0  0  0  0  0  0  0
   -5.1993    2.9963    0.0000 C   0  0  0  0  0  0  0  0  0  0  0  0
   -5.1969    1.4963    0.0000 C   0  0  0  0  0  0  0  0  0  0  0  0
   -6.2352    0.8946    0.0000 Cl  0  0  0  0  0  0  0  0  0  0  0  0
   -3.8967    0.7484    0.0000 C   0  0  0  0  0  0  0  0  0  0  0  0
    5.1017   -6.1218    0.0000 C   0  0  0  0  0  0  0  0  0  0  0  0
    6.2421   -5.7482    0.0000 O   0  0  0  0  0  0  0  0  0  0  0  0
    4.6332   -7.5468    0.0000 N   0  0  0  0  0  0  0  0  0  0  0  0
    5.5071   -8.7638    0.0000 C   0  0  0  0  0  0  0  0  0  0  0  0
    4.8900  -10.1319    0.0000 C   0  0  0  0  0  0  0  0  0  0  0  0
    5.7654  -11.3509    0.0000 O   0  0  0  0  0  0  0  0  0  0  0  0
    5.1482  -12.7190    0.0000 C   0  0  0  0  0  0  0  0  0  0  0  0
    6.0214  -13.9387    0.0000 C   0  0  0  0  0  0  0  0  0  0  0  0
    5.4018  -15.3047    0.0000 C   0  0  0  0  0  0  0  0  0  0  0  0
    3.9089  -15.4511    0.0000 C   0  0  0  0  0  0  0  0  0  0  0  0
    3.0357  -14.2315    0.0000 C   0  0  0  0  0  0  0  0  0  0  0  0
    3.6553  -12.8655    0.0000 C   0  0  0  0  0  0  0  0  0  0  0  0
  1  2  1  0
  2  3  1  0
  3  4  2  0
  4  5  1  0
  5  6  1  0
  6  7  1  0
  7  8  1  0
  8  9  1  0
  9 10  1  0
 10 11  1  0
 11 12  1  0
 12 13  1  0
 13 14  1  0
 14  9  1  0
 12 15  1  0
 15 16  2  0
 16 17  1  0
 17 18  2  0
 18 19  1  0
 19 20  1  0
 19 21  2  0
 21 15  1  0
  5 22  1  0
 22 23  2  0
 22 24  1  0
 24  3  1  0
 24 25  1  0
 25 26  1  0
 26 27  1  0
 27 28  1  0
 28 29  2  0
 29 30  1  0
 30 31  2  0
 31 32  1  0
 32 33  2  0
 33 28  1  0
M  END
>  <Classification>  (160) 
1

>  <pchembl>  (160) 
5.38

>  <InChI_steorem>  (160) 
InChI=1S/C25H32ClN5O2/c1-2-24-27-31(25(32)30(24)18-19-33-23-10-4-3-5-11-23)13-7-12-28-14-16-29(17-15-28)22-9-6-8-21(26)20-22/h3-6,8-11,20H,2,7,12-19H2,1H3

>  <source>  (160) 
ChEMBL25

>  <source_id>  (160) 
25

>  <optional_reference>  (160) 
10.1124/dmd.111.040758

>  <optional_origin>  (160) 
None

>  <target>  (160) 
BSEP

$$$$

     RDKit          2D

 86 86  0  0  0  0  0  0  0  0999 V2000
    2.7490    9.6727    0.0000 C   0  0  0  0  0  0  0  0  0  0  0  0
    3.4920    8.7304    0.0000 C   0  0  0  0  0  0  0  0  0  0  0  0
    2.9324    7.3249    0.0000 C   0  0  0  0  0  0  0  0  0  0  0  0
    1.4932    7.7475    0.0000 N   0  0  0  0  0  0  0  0  0  0  0  0
    0.0000    7.8901    0.0000 C   0  0  0  0  0  0  0  0  0  0  0  0
    0.0000    9.0901    0.0000 O   0  0  0  0  0  0  0  0  0  0  0  0
   -1.4932    7.7475    0.0000 C   0  0  0  0  0  0  0  0  0  0  0  0
   -1.7824    9.2323    0.0000 C   0  0  0  0  0  0  0  0  0  0  0  0
   -0.8768   10.0197    0.0000 O   0  0  0  0  0  0  0  0  0  0  0  0
   -3.2013    9.7213    0.0000 C   0  0  0  0  0  0  0  0  0  0  0  0
   -4.1070    8.9340    0.0000 C   0  0  0  0  0  0  0  0  0  0  0  0
   -3.4882   11.1945    0.0000 C   0  0  0  0  0  0  0  0  0  0  0  0
   -4.9072   11.6835    0.0000 C   0  0  0  0  0  0  0  0  0  0  0  0
   -5.1941   13.1566    0.0000 C   0  0  0  0  0  0  0  0  0  0  0  0
   -6.3286   13.5476    0.0000 C   0  0  0  0  0  0  0  0  0  0  0  0
   -2.9325    7.3249    0.0000 N   0  0  0  0  0  0  0  0  0  0  0  0
   -3.3785    8.4389    0.0000 C   0  0  0  0  0  0  0  0  0  0  0  0
   -4.2657    6.6375    0.0000 C   0  0  0  0  0  0  0  0  0  0  0  0
   -4.9145    7.6470    0.0000 O   0  0  0  0  0  0  0  0  0  0  0  0
   -5.4448    5.7103    0.0000 C   0  0  0  0  0  0  0  0  0  0  0  0
   -6.4908    6.8031    0.0000 C   0  0  0  0  0  0  0  0  0  0  0  0
   -7.6566    6.5187    0.0000 C   0  0  0  0  0  0  0  0  0  0  0  0
   -6.1546    7.9550    0.0000 C   0  0  0  0  0  0  0  0  0  0  0  0
   -6.4271    4.5767    0.0000 N   0  0  0  0  0  0  0  0  0  0  0  0
   -7.4046    5.2727    0.0000 C   0  0  0  0  0  0  0  0  0  0  0  0
   -7.1771    3.2776    0.0000 C   0  0  0  0  0  0  0  0  0  0  0  0
   -8.2687    3.7761    0.0000 O   0  0  0  0  0  0  0  0  0  0  0  0
   -7.6677    1.8601    0.0000 C   0  0  0  0  0  0  0  0  0  0  0  0
   -9.1385    2.2139    0.0000 C   0  0  0  0  0  0  0  0  0  0  0  0
  -10.1727    1.1264    0.0000 C   0  0  0  0  0  0  0  0  0  0  0  0
  -11.3395    1.4070    0.0000 C   0  0  0  0  0  0  0  0  0  0  0  0
   -9.8328   -0.0245    0.0000 C   0  0  0  0  0  0  0  0  0  0  0  0
   -7.8812    0.3754    0.0000 N   0  0  0  0  0  0  0  0  0  0  0  0
   -9.0798    0.4325    0.0000 C   0  0  0  0  0  0  0  0  0  0  0  0
   -7.8098   -1.1229    0.0000 C   0  0  0  0  0  0  0  0  0  0  0  0
   -8.9976   -1.2937    0.0000 O   0  0  0  0  0  0  0  0  0  0  0  0
   -7.4561   -2.5806    0.0000 C   0  0  0  0  0  0  0  0  0  0  0  0
   -8.8847   -3.0782    0.0000 C   0  0  0  0  0  0  0  0  0  0  0  0
   -9.1668   -4.5522    0.0000 C   0  0  0  0  0  0  0  0  0  0  0  0
  -10.3000   -4.9469    0.0000 C   0  0  0  0  0  0  0  0  0  0  0  0
   -8.2586   -5.3366    0.0000 C   0  0  0  0  0  0  0  0  0  0  0  0
   -6.8330   -3.9451    0.0000 N   0  0  0  0  0  0  0  0  0  0  0  0
   -7.8722   -4.5451    0.0000 C   0  0  0  0  0  0  0  0  0  0  0  0
   -5.9629   -5.1669    0.0000 C   0  0  0  0  0  0  0  0  0  0  0  0
   -6.8698   -5.9528    0.0000 O   0  0  0  0  0  0  0  0  0  0  0  0
   -4.8773   -6.2020    0.0000 C   0  0  0  0  0  0  0  0  0  0  0  0
   -5.6191   -7.1453    0.0000 C   0  0  0  0  0  0  0  0  0  0  0  0
   -3.6154   -7.0130    0.0000 N   0  0  0  0  0  0  0  0  0  0  0  0
   -2.2229   -7.5705    0.0000 C   0  0  0  0  0  0  0  0  0  0  0  0
   -2.5609   -8.7219    0.0000 O   0  0  0  0  0  0  0  0  0  0  0  0
   -0.7500   -7.8544    0.0000 C   0  0  0  0  0  0  0  0  0  0  0  0
   -0.8640   -9.0489    0.0000 C   0  0  0  0  0  0  0  0  0  0  0  0
    0.7500   -7.8544    0.0000 N   0  0  0  0  0  0  0  0  0  0  0  0
    2.2229   -7.5705    0.0000 C   0  0  0  0  0  0  0  0  0  0  0  0
    2.5610   -8.7219    0.0000 O   0  0  0  0  0  0  0  0  0  0  0  0
    3.6155   -7.0130    0.0000 C   0  0  0  0  0  0  0  0  0  0  0  0
    4.3112   -8.3562    0.0000 C   0  0  0  0  0  0  0  0  0  0  0  0
    5.8105   -8.4257    0.0000 C   0  0  0  0  0  0  0  0  0  0  0  0
    6.3624   -9.4912    0.0000 C   0  0  0  0  0  0  0  0  0  0  0  0
    6.4576   -7.4151    0.0000 C   0  0  0  0  0  0  0  0  0  0  0  0
    4.8773   -6.2020    0.0000 N   0  0  0  0  0  0  0  0  0  0  0  0
    5.6191   -7.1453    0.0000 C   0  0  0  0  0  0  0  0  0  0  0  0
    5.9629   -5.1669    0.0000 C   0  0  0  0  0  0  0  0  0  0  0  0
    6.8698   -5.9527    0.0000 O   0  0  0  0  0  0  0  0  0  0  0  0
    6.8330   -3.9450    0.0000 C   0  0  0  0  0  0  0  0  0  0  0  0
    7.4561   -2.5806    0.0000 N   0  0  0  0  0  0  0  0  0  0  0  0
    7.8098   -1.1229    0.0000 C   0  0  0  0  0  0  0  0  0  0  0  0
    8.9976   -1.2936    0.0000 O   0  0  0  0  0  0  0  0  0  0  0  0
    7.8812    0.3754    0.0000 C   0  0  0  0  0  0  0  0  0  0  0  0
    9.3920    0.4503    0.0000 C   0  0  0  0  0  0  0  0  0  0  0  0
    9.9405    1.5177    0.0000 C   0  0  0  0  0  0  0  0  0  0  0  0
   10.0425   -0.5581    0.0000 C   0  0  0  0  0  0  0  0  0  0  0  0
    7.6677    1.8602    0.0000 N   0  0  0  0  0  0  0  0  0  0  0  0
    9.1371    2.2196    0.0000 C   0  0  0  0  0  0  0  0  0  0  0  0
    9.4737    3.3715    0.0000 C   0  0  0  0  0  0  0  0  0  0  0  0
    7.1771    3.2777    0.0000 C   0  0  0  0  0  0  0  0  0  0  0  0
    8.2686    3.7762    0.0000 O   0  0  0  0  0  0  0  0  0  0  0  0
    6.4271    4.5767    0.0000 C   0  0  0  0  0  0  0  0  0  0  0  0
    7.4046    5.2728    0.0000 C   0  0  0  0  0  0  0  0  0  0  0  0
    5.4448    5.7103    0.0000 N   0  0  0  0  0  0  0  0  0  0  0  0
    6.2729    6.5788    0.0000 C   0  0  0  0  0  0  0  0  0  0  0  0
    4.2657    6.6376    0.0000 C   0  0  0  0  0  0  0  0  0  0  0  0
    4.9145    7.6471    0.0000 O   0  0  0  0  0  0  0  0  0  0  0  0
    8.1446   -4.6989    0.0000 C   0  0  0  0  0  0  0  0  0  0  0  0
    9.1830   -4.0975    0.0000 C   0  0  0  0  0  0  0  0  0  0  0  0
    8.1465   -5.8989    0.0000 C   0  0  0  0  0  0  0  0  0  0  0  0
  1  2  1  0
  2  3  1  0
  3  4  1  0
  4  5  1  0
  5  6  2  0
  5  7  1  0
  7  8  1  0
  8  9  1  0
  8 10  1  0
 10 11  1  0
 10 12  1  0
 12 13  1  0
 13 14  2  3
 14 15  1  0
  7 16  1  0
 16 17  1  0
 16 18  1  0
 18 19  2  0
 18 20  1  0
 20 21  1  0
 21 22  1  0
 21 23  1  0
 20 24  1  0
 24 25  1  0
 24 26  1  0
 26 27  2  0
 26 28  1  0
 28 29  1  0
 29 30  1  0
 30 31  1  0
 30 32  1  0
 28 33  1  0
 33 34  1  0
 33 35  1  0
 35 36  2  0
 35 37  1  0
 37 38  1  0
 38 39  1  0
 39 40  1  0
 39 41  1  0
 37 42  1  0
 42 43  1  0
 42 44  1  0
 44 45  2  0
 44 46  1  0
 46 47  1  0
 46 48  1  0
 48 49  1  0
 49 50  2  0
 49 51  1  0
 51 52  1  0
 51 53  1  0
 53 54  1  0
 54 55  2  0
 54 56  1  0
 56 57  1  0
 57 58  1  0
 58 59  1  0
 58 60  1  0
 56 61  1  0
 61 62  1  0
 61 63  1  0
 63 64  2  0
 63 65  1  0
 65 66  1  0
 66 67  1  0
 67 68  2  0
 67 69  1  0
 69 70  1  0
 70 71  1  0
 70 72  1  0
 69 73  1  0
 73 74  1  0
 74 75  1  0
 73 76  1  0
 76 77  2  0
 76 78  1  0
 78 79  1  0
 78 80  1  0
 80 81  1  0
 80 82  1  0
 82  3  1  0
 82 83  2  0
 65 84  1  0
 84 85  1  0
 84 86  1  0
M  END
>  <Classification>  (161) 
1

>  <pchembl>  (161) 
6.75

>  <InChI_steorem>  (161) 
InChI=1S/C63H113N11O12/c1-26-29-30-40(16)52(75)51-56(79)66-44(27-2)59(82)68(20)43(19)58(81)74(28-3)49(38(12)13)55(78)67-48(37(10)11)62(85)69(21)45(31-34(4)5)54(77)64-41(17)53(76)65-42(18)57(80)70(22)46(32-35(6)7)60(83)71(23)47(33-36(8)9)61(84)72(24)50(39(14)15)63(86)73(51)25/h26,29,34-52,75H,27-28,30-33H2,1-25H3,(H,64,77)(H,65,76)(H,66,79)(H,67,78)

>  <source>  (161) 
ChEMBL25

>  <source_id>  (161) 
25

>  <optional_reference>  (161) 
None

>  <optional_origin>  (161) 
None

>  <target>  (161) 
BSEP

$$$$

     RDKit          2D

 22 25  0  0  0  0  0  0  0  0999 V2000
    7.2889   -1.4403    0.0000 C   0  0  0  0  0  0  0  0  0  0  0  0
    6.1069   -1.2335    0.0000 N   0  0  0  0  0  0  0  0  0  0  0  0
    5.5920    0.1754    0.0000 C   0  0  0  0  0  0  0  0  0  0  0  0
    4.1145    0.4339    0.0000 C   0  0  0  0  0  0  0  0  0  0  0  0
    3.1484   -0.7186    0.0000 N   0  0  0  0  0  0  0  0  0  0  0  0
    3.6667   -2.1252    0.0000 C   0  0  0  0  0  0  0  0  0  0  0  0
    5.1442   -2.3838    0.0000 C   0  0  0  0  0  0  0  0  0  0  0  0
    1.6852   -0.3846    0.0000 C   0  0  0  0  0  0  0  0  0  0  0  0
    1.3514    1.0778    0.0000 N   0  0  0  0  0  0  0  0  0  0  0  0
    0.0000    1.7286    0.0000 C   0  0  0  0  0  0  0  0  0  0  0  0
    0.1115    3.2255    0.0000 C   0  0  0  0  0  0  0  0  0  0  0  0
   -1.1278    4.0705    0.0000 C   0  0  0  0  0  0  0  0  0  0  0  0
   -2.4793    3.4196    0.0000 C   0  0  0  0  0  0  0  0  0  0  0  0
   -2.5914    1.9238    0.0000 C   0  0  0  0  0  0  0  0  0  0  0  0
   -1.3515    1.0777    0.0000 C   0  0  0  0  0  0  0  0  0  0  0  0
   -1.6852   -0.3847    0.0000 N   0  0  0  0  0  0  0  0  0  0  0  0
   -0.7500   -1.5574    0.0000 C   0  0  0  0  0  0  0  0  0  0  0  0
   -1.2135   -2.9844    0.0000 S   0  0  0  0  0  0  0  0  0  0  0  0
    0.0000   -3.8661    0.0000 C   0  0  0  0  0  0  0  0  0  0  0  0
    0.0000   -5.0661    0.0000 C   0  0  0  0  0  0  0  0  0  0  0  0
    1.2135   -2.9844    0.0000 C   0  0  0  0  0  0  0  0  0  0  0  0
    0.7500   -1.5574    0.0000 C   0  0  0  0  0  0  0  0  0  0  0  0
  1  2  1  0
  2  3  1  0
  3  4  1  0
  4  5  1  0
  5  6  1  0
  6  7  1  0
  7  2  1  0
  5  8  1  0
  8  9  2  0
  9 10  1  0
 10 11  2  0
 11 12  1  0
 12 13  2  0
 13 14  1  0
 14 15  2  0
 15 10  1  0
 15 16  1  0
 16 17  1  0
 17 18  1  0
 18 19  1  0
 19 20  1  0
 19 21  2  0
 21 22  1  0
 22  8  1  0
 22 17  2  0
M  END
>  <Classification>  (162) 
0

>  <pchembl>  (162) 
4.26

>  <InChI_steorem>  (162) 
InChI=1S/C17H20N4S/c1-12-11-13-16(21-9-7-20(2)8-10-21)18-14-5-3-4-6-15(14)19-17(13)22-12/h3-6,11,19H,7-10H2,1-2H3

>  <source>  (162) 
ChEMBL25

>  <source_id>  (162) 
25

>  <optional_reference>  (162) 
10.1124/dmd.112.047068

>  <optional_origin>  (162) 
None

>  <target>  (162) 
BSEP

$$$$

     RDKit          2D

 27 28  0  0  0  0  0  0  0  0999 V2000
    9.0759  -13.9726    0.0000 C   0  0  0  0  0  0  0  0  0  0  0  0
    9.0776  -12.7726    0.0000 C   0  0  0  0  0  0  0  0  0  0  0  0
    7.7794  -12.0195    0.0000 C   0  0  0  0  0  0  0  0  0  0  0  0
    7.7815  -10.5187    0.0000 C   0  0  0  0  0  0  0  0  0  0  0  0
    6.4833   -9.7656    0.0000 C   0  0  0  0  0  0  0  0  0  0  0  0
    6.4855   -8.2648    0.0000 C   0  0  0  0  0  0  0  0  0  0  0  0
    5.1873   -7.5117    0.0000 C   0  0  0  0  0  0  0  0  0  0  0  0
    5.1894   -6.0109    0.0000 C   0  0  0  0  0  0  0  0  0  0  0  0
    3.8912   -5.2578    0.0000 C   0  0  0  0  0  0  0  0  0  0  0  0
    3.8933   -3.7570    0.0000 C   0  0  0  0  0  0  0  0  0  0  0  0
    2.5951   -3.0039    0.0000 C   0  0  0  0  0  0  0  0  0  0  0  0
    2.5973   -1.5031    0.0000 C   0  0  0  0  0  0  0  0  0  0  0  0
    1.2990   -0.7500    0.0000 C   0  0  0  0  0  0  0  0  0  0  0  0
    1.2990    0.7500    0.0000 C   0  0  0  0  0  0  0  0  0  0  0  0
    0.0000    1.5000    0.0000 C   0  0  0  0  0  0  0  0  0  0  0  0
   -1.2990    0.7500    0.0000 C   0  0  0  0  0  0  0  0  0  0  0  0
   -1.2990   -0.7500    0.0000 C   0  0  0  0  0  0  0  0  0  0  0  0
    0.0000   -1.5000    0.0000 C   0  0  0  0  0  0  0  0  0  0  0  0
   -2.5988    1.5004    0.0000 S   0  0  0  0  0  0  0  0  0  0  0  0
   -3.6378    0.9001    0.0000 O   0  0  0  0  0  0  0  0  0  0  0  0
   -3.6383    2.0999    0.0000 O   0  0  0  0  0  0  0  0  0  0  0  0
   -2.5998    3.0012    0.0000 N   0  0  0  0  0  0  0  0  0  0  0  0
   -3.8995    3.7516    0.0000 C   0  0  0  0  0  0  0  0  0  0  0  0
   -4.0404    5.2322    0.0000 N   0  0  0  0  0  0  0  0  0  0  0  0
   -5.5083    5.5410    0.0000 N   0  0  0  0  0  0  0  0  0  0  0  0
   -6.2556    4.2405    0.0000 C   0  0  0  0  0  0  0  0  0  0  0  0
   -5.2496    3.1278    0.0000 S   0  0  0  0  0  0  0  0  0  0  0  0
  1  2  1  0
  2  3  1  0
  3  4  1  0
  4  5  1  0
  5  6  1  0
  6  7  1  0
  7  8  1  0
  8  9  1  0
  9 10  1  0
 10 11  1  0
 11 12  1  0
 12 13  1  0
 13 14  2  0
 14 15  1  0
 15 16  2  0
 16 17  1  0
 17 18  2  0
 18 13  1  0
 16 19  1  0
 19 20  2  0
 19 21  2  0
 19 22  1  0
 22 23  1  0
 23 24  2  0
 24 25  1  0
 25 26  2  0
 26 27  1  0
 27 23  1  0
M  END
>  <Classification>  (163) 
0

>  <pchembl>  (163) 
4.68

>  <InChI_steorem>  (163) 
InChI=1S/C20H31N3O2S2/c1-2-3-4-5-6-7-8-9-10-11-12-18-13-15-19(16-14-18)27(24,25)23-20-22-21-17-26-20/h13-17H,2-12H2,1H3,(H,22,23)

>  <source>  (163) 
ChEMBL25

>  <source_id>  (163) 
25

>  <optional_reference>  (163) 
10.1124/dmd.112.047068

>  <optional_origin>  (163) 
None

>  <target>  (163) 
BSEP

$$$$

     RDKit          2D

 36 41  0  0  0  0  0  0  0  0999 V2000
    3.0955    2.3548    0.0000 C   0  0  0  0  0  0  0  0  0  0  0  0
    2.7248    1.2135    0.0000 N   0  0  0  0  0  0  0  0  0  0  0  0
    3.6065    0.0000    0.0000 C   0  0  0  0  0  0  0  0  0  0  0  0
    4.8065    0.0000    0.0000 O   0  0  0  0  0  0  0  0  0  0  0  0
    2.7248   -1.2135    0.0000 N   0  0  0  0  0  0  0  0  0  0  0  0
    3.1884   -2.6409    0.0000 C   0  0  0  0  0  0  0  0  0  0  0  0
    4.6235   -3.0601    0.0000 C   0  0  0  0  0  0  0  0  0  0  0  0
    4.9782   -4.5176    0.0000 C   0  0  0  0  0  0  0  0  0  0  0  0
    3.8933   -5.5535    0.0000 C   0  0  0  0  0  0  0  0  0  0  0  0
    2.4538   -5.1320    0.0000 C   0  0  0  0  0  0  0  0  0  0  0  0
    2.0991   -3.6745    0.0000 C   0  0  0  0  0  0  0  0  0  0  0  0
    4.2482   -7.0118    0.0000 C   0  0  0  0  0  0  0  0  0  0  0  0
    3.3801   -7.8402    0.0000 C   0  0  0  0  0  0  0  0  0  0  0  0
    4.5314   -8.1779    0.0000 C   0  0  0  0  0  0  0  0  0  0  0  0
    5.6883   -7.4345    0.0000 C   0  0  0  0  0  0  0  0  0  0  0  0
    6.8397   -7.7724    0.0000 N   0  0  0  0  0  0  0  0  0  0  0  0
    1.2990   -0.7500    0.0000 C   0  0  0  0  0  0  0  0  0  0  0  0
    1.2990    0.7500    0.0000 C   0  0  0  0  0  0  0  0  0  0  0  0
    0.0000    1.5000    0.0000 C   0  0  0  0  0  0  0  0  0  0  0  0
   -1.2990    0.7500    0.0000 N   0  0  0  0  0  0  0  0  0  0  0  0
   -1.2990   -0.7500    0.0000 C   0  0  0  0  0  0  0  0  0  0  0  0
   -2.5981   -1.5000    0.0000 C   0  0  0  0  0  0  0  0  0  0  0  0
   -2.5981   -3.0000    0.0000 C   0  0  0  0  0  0  0  0  0  0  0  0
   -1.2990   -3.7500    0.0000 C   0  0  0  0  0  0  0  0  0  0  0  0
    0.0000   -3.0000    0.0000 C   0  0  0  0  0  0  0  0  0  0  0  0
    0.0000   -1.5000    0.0000 C   0  0  0  0  0  0  0  0  0  0  0  0
   -1.2990   -5.2508    0.0000 C   0  0  0  0  0  0  0  0  0  0  0  0
   -2.5969   -6.0029    0.0000 C   0  0  0  0  0  0  0  0  0  0  0  0
   -2.5945   -7.5029    0.0000 N   0  0  0  0  0  0  0  0  0  0  0  0
   -1.2942   -8.2509    0.0000 C   0  0  0  0  0  0  0  0  0  0  0  0
   -1.2919   -9.7509    0.0000 C   0  0  0  0  0  0  0  0  0  0  0  0
    0.0084  -10.4988    0.0000 C   0  0  0  0  0  0  0  0  0  0  0  0
    1.3062   -9.7467    0.0000 C   0  0  0  0  0  0  0  0  0  0  0  0
    1.3038   -8.2467    0.0000 C   0  0  0  0  0  0  0  0  0  0  0  0
    0.0036   -7.4988    0.0000 C   0  0  0  0  0  0  0  0  0  0  0  0
    0.0012   -5.9988    0.0000 C   0  0  0  0  0  0  0  0  0  0  0  0
  1  2  1  0
  2  3  1  0
  3  4  2  0
  3  5  1  0
  5  6  1  0
  6  7  2  0
  7  8  1  0
  8  9  2  0
  9 10  1  0
 10 11  2  0
 11  6  1  0
  9 12  1  0
 12 13  1  0
 12 14  1  0
 12 15  1  0
 15 16  3  0
  5 17  1  0
 17 18  2  0
 18  2  1  0
 18 19  1  0
 19 20  2  0
 20 21  1  0
 21 22  2  0
 22 23  1  0
 23 24  2  0
 24 25  1  0
 25 26  2  0
 26 17  1  0
 26 21  1  0
 24 27  1  0
 27 28  2  0
 28 29  1  0
 29 30  2  0
 30 31  1  0
 31 32  2  0
 32 33  1  0
 33 34  2  0
 34 35  1  0
 35 30  1  0
 35 36  2  0
 36 27  1  0
M  END
>  <Classification>  (164) 
1

>  <pchembl>  (164) 
5.1

>  <InChI_steorem>  (164) 
InChI=1S/C30H23N5O/c1-30(2,18-31)22-9-11-23(12-10-22)35-28-24-15-19(21-14-20-6-4-5-7-25(20)32-16-21)8-13-26(24)33-17-27(28)34(3)29(35)36/h4-17H,1-3H3

>  <source>  (164) 
ChEMBL25

>  <source_id>  (164) 
25

>  <optional_reference>  (164) 
10.1093/toxsci/kft176

>  <optional_origin>  (164) 
None

>  <target>  (164) 
BSEP

$$$$

     RDKit          2D

 25 27  0  0  0  0  0  0  0  0999 V2000
    2.5956   -2.7031    0.0000 C   0  0  0  0  0  0  0  0  0  0  0  0
    2.5973   -1.5031    0.0000 O   0  0  0  0  0  0  0  0  0  0  0  0
    1.2990   -0.7500    0.0000 C   0  0  0  0  0  0  0  0  0  0  0  0
    1.2990    0.7500    0.0000 C   0  0  0  0  0  0  0  0  0  0  0  0
    0.0000    1.5000    0.0000 C   0  0  0  0  0  0  0  0  0  0  0  0
   -1.2990    0.7500    0.0000 C   0  0  0  0  0  0  0  0  0  0  0  0
   -1.2990   -0.7500    0.0000 C   0  0  0  0  0  0  0  0  0  0  0  0
    0.0000   -1.5000    0.0000 C   0  0  0  0  0  0  0  0  0  0  0  0
   -2.7248   -1.2135    0.0000 C   0  0  0  0  0  0  0  0  0  0  0  0
   -3.1904   -2.6376    0.0000 C   0  0  0  0  0  0  0  0  0  0  0  0
   -4.6588   -2.9478    0.0000 C   0  0  0  0  0  0  0  0  0  0  0  0
   -5.0318   -4.0884    0.0000 O   0  0  0  0  0  0  0  0  0  0  0  0
   -5.4604   -2.0548    0.0000 O   0  0  0  0  0  0  0  0  0  0  0  0
   -3.6065    0.0000    0.0000 C   0  0  0  0  0  0  0  0  0  0  0  0
   -4.8065    0.0000    0.0000 C   0  0  0  0  0  0  0  0  0  0  0  0
   -2.7248    1.2135    0.0000 N   0  0  0  0  0  0  0  0  0  0  0  0
   -3.1905    2.6376    0.0000 C   0  0  0  0  0  0  0  0  0  0  0  0
   -2.3889    3.5306    0.0000 O   0  0  0  0  0  0  0  0  0  0  0  0
   -4.6589    2.9478    0.0000 C   0  0  0  0  0  0  0  0  0  0  0  0
   -5.1272    4.3728    0.0000 C   0  0  0  0  0  0  0  0  0  0  0  0
   -6.5954    4.6799    0.0000 C   0  0  0  0  0  0  0  0  0  0  0  0
   -7.5954    3.5619    0.0000 C   0  0  0  0  0  0  0  0  0  0  0  0
   -8.7700    3.8075    0.0000 Cl  0  0  0  0  0  0  0  0  0  0  0  0
   -7.1272    2.1368    0.0000 C   0  0  0  0  0  0  0  0  0  0  0  0
   -5.6590    1.8298    0.0000 C   0  0  0  0  0  0  0  0  0  0  0  0
  1  2  1  0
  2  3  1  0
  3  4  2  0
  4  5  1  0
  5  6  2  0
  6  7  1  0
  7  8  2  0
  8  3  1  0
  7  9  1  0
  9 10  1  0
 10 11  1  0
 11 12  2  0
 11 13  1  0
  9 14  2  0
 14 15  1  0
 14 16  1  0
 16  6  1  0
 16 17  1  0
 17 18  2  0
 17 19  1  0
 19 20  2  0
 20 21  1  0
 21 22  2  0
 22 23  1  0
 22 24  1  0
 24 25  2  0
 25 19  1  0
M  END
>  <Classification>  (165) 
0

>  <pchembl>  (165) 
4.38

>  <InChI_steorem>  (165) 
InChI=1S/C19H16ClNO4/c1-11-15(10-18(22)23)16-9-14(25-2)7-8-17(16)21(11)19(24)12-3-5-13(20)6-4-12/h3-9H,10H2,1-2H3,(H,22,23)

>  <source>  (165) 
ChEMBL25

>  <source_id>  (165) 
25

>  <optional_reference>  (165) 
10.1093/toxsci/kfq269

>  <optional_origin>  (165) 
None

>  <target>  (165) 
BSEP

$$$$

     RDKit          2D

 27 30  0  0  0  0  0  0  0  0999 V2000
    9.9860   -4.2950    0.0000 C   0  0  0  0  0  0  0  0  0  0  0  0
    9.5757   -3.1673    0.0000 C   0  0  0  0  0  0  0  0  0  0  0  0
    8.0979   -2.9056    0.0000 O   0  0  0  0  0  0  0  0  0  0  0  0
    7.5847   -1.4952    0.0000 C   0  0  0  0  0  0  0  0  0  0  0  0
    8.3565   -0.5763    0.0000 O   0  0  0  0  0  0  0  0  0  0  0  0
    6.1069   -1.2335    0.0000 N   0  0  0  0  0  0  0  0  0  0  0  0
    5.5920    0.1754    0.0000 C   0  0  0  0  0  0  0  0  0  0  0  0
    4.1145    0.4339    0.0000 C   0  0  0  0  0  0  0  0  0  0  0  0
    3.1484   -0.7186    0.0000 C   0  0  0  0  0  0  0  0  0  0  0  0
    1.6852   -0.3846    0.0000 C   0  0  0  0  0  0  0  0  0  0  0  0
    1.3514    1.0778    0.0000 C   0  0  0  0  0  0  0  0  0  0  0  0
    2.5913    1.9239    0.0000 C   0  0  0  0  0  0  0  0  0  0  0  0
    2.4792    3.4197    0.0000 C   0  0  0  0  0  0  0  0  0  0  0  0
    1.1278    4.0705    0.0000 C   0  0  0  0  0  0  0  0  0  0  0  0
    1.0381    5.2671    0.0000 Cl  0  0  0  0  0  0  0  0  0  0  0  0
   -0.1116    3.2255    0.0000 C   0  0  0  0  0  0  0  0  0  0  0  0
    0.0000    1.7286    0.0000 C   0  0  0  0  0  0  0  0  0  0  0  0
   -1.3515    1.0777    0.0000 C   0  0  0  0  0  0  0  0  0  0  0  0
   -1.6852   -0.3847    0.0000 C   0  0  0  0  0  0  0  0  0  0  0  0
   -0.7500   -1.5574    0.0000 C   0  0  0  0  0  0  0  0  0  0  0  0
   -1.5000   -2.8577    0.0000 C   0  0  0  0  0  0  0  0  0  0  0  0
   -0.7500   -4.1567    0.0000 C   0  0  0  0  0  0  0  0  0  0  0  0
    0.7500   -4.1567    0.0000 C   0  0  0  0  0  0  0  0  0  0  0  0
    1.5000   -2.8577    0.0000 N   0  0  0  0  0  0  0  0  0  0  0  0
    0.7500   -1.5574    0.0000 C   0  0  0  0  0  0  0  0  0  0  0  0
    3.6667   -2.1252    0.0000 C   0  0  0  0  0  0  0  0  0  0  0  0
    5.1442   -2.3838    0.0000 C   0  0  0  0  0  0  0  0  0  0  0  0
  1  2  1  0
  2  3  1  0
  3  4  1  0
  4  5  2  0
  4  6  1  0
  6  7  1  0
  7  8  1  0
  8  9  1  0
  9 10  2  3
 10 11  1  0
 11 12  2  0
 12 13  1  0
 13 14  2  0
 14 15  1  0
 14 16  1  0
 16 17  2  0
 17 11  1  0
 17 18  1  0
 18 19  1  0
 19 20  1  0
 20 21  2  0
 21 22  1  0
 22 23  2  0
 23 24  1  0
 24 25  2  0
 25 10  1  0
 25 20  1  0
  9 26  1  0
 26 27  1  0
 27  6  1  0
M  END
>  <Classification>  (166) 
0

>  <pchembl>  (166) 
4.92

>  <InChI_steorem>  (166) 
InChI=1S/C22H23ClN2O2/c1-2-27-22(26)25-12-9-15(10-13-25)20-19-8-7-18(23)14-17(19)6-5-16-4-3-11-24-21(16)20/h3-4,7-8,11,14H,2,5-6,9-10,12-13H2,1H3

>  <source>  (166) 
ChEMBL25

>  <source_id>  (166) 
25

>  <optional_reference>  (166) 
10.1093/toxsci/kft176

>  <optional_origin>  (166) 
None

>  <target>  (166) 
BSEP

$$$$

     RDKit          2D

 23 26  0  0  0  0  0  0  0  0999 V2000
    1.7486   -0.5188    0.0000 C   0  0  0  0  0  0  0  0  0  0  0  0
    2.5607   -0.3736    0.0000 C   0  0  0  0  0  0  0  0  0  0  0  0
    2.8410    0.4023    0.0000 C   0  0  0  0  0  0  0  0  0  0  0  0
    3.6531    0.5475    0.0000 O   0  0  0  0  0  0  0  0  0  0  0  0
    2.3092    1.0330    0.0000 C   0  0  0  0  0  0  0  0  0  0  0  0
    1.4971    0.8878    0.0000 C   0  0  0  0  0  0  0  0  0  0  0  0
    0.9653    1.5185    0.0000 C   0  0  0  0  0  0  0  0  0  0  0  0
    0.1531    1.3733    0.0000 C   0  0  0  0  0  0  0  0  0  0  0  0
   -0.1272    0.5974    0.0000 C   0  0  0  0  0  0  0  0  0  0  0  0
    0.4047   -0.0334    0.0000 C   0  0  0  0  0  0  0  0  0  0  0  0
    1.2168    0.1119    0.0000 C   0  0  0  0  0  0  0  0  0  0  0  0
    0.1244   -0.8093    0.0000 C   0  0  0  0  0  0  0  0  0  0  0  0
   -0.6878   -0.9545    0.0000 C   0  0  0  0  0  0  0  0  0  0  0  0
   -1.2196   -0.3238    0.0000 C   0  0  0  0  0  0  0  0  0  0  0  0
   -0.9393    0.4521    0.0000 C   0  0  0  0  0  0  0  0  0  0  0  0
   -1.5906    0.9585    0.0000 C   0  0  0  0  0  0  0  0  0  0  0  0
   -2.2735    0.4955    0.0000 C   0  0  0  0  0  0  0  0  0  0  0  0
   -2.0441   -0.2970    0.0000 C   0  0  0  0  0  0  0  0  0  0  0  0
   -1.5795   -1.0662    0.0000 C   0  0  0  0  0  0  0  0  0  0  0  0
    0.9365   -0.6641    0.0000 C   0  0  0  0  0  0  0  0  0  0  0  0
   -2.5505   -0.9483    0.0000 C   0  0  0  0  0  0  0  0  0  0  0  0
   -2.2396   -1.7125    0.0000 O   0  0  0  0  0  0  0  0  0  0  0  0
   -3.3677   -0.8355    0.0000 C   0  0  0  0  0  0  0  0  0  0  0  0
  1  2  1  0
  1 11  1  0
  2  3  1  0
  3  4  2  0
  3  5  1  0
  5  6  2  0
  6  7  1  0
 11  6  1  0
  7  8  1  0
  9  8  1  0
  9 10  1  0
 15  9  1  0
 11 10  1  0
 10 12  1  0
 11 20  1  0
 12 13  1  0
 13 14  1  0
 14 15  1  0
 14 18  1  0
 14 19  1  0
 15 16  1  0
 16 17  1  0
 17 18  1  0
 18 21  1  0
 21 22  2  0
 21 23  1  0
M  END
>  <Classification>  (167) 
0

>  <pchembl>  (167) 
4.76

>  <InChI_steorem>  (167) 
InChI=1S/C21H30O2/c1-13(22)17-6-7-18-16-5-4-14-12-15(23)8-10-20(14,2)19(16)9-11-21(17,18)3/h12,16-19H,4-11H2,1-3H3

>  <source>  (167) 
ChEMBL25

>  <source_id>  (167) 
25

>  <optional_reference>  (167) 
10.1023/a:1023278211849

>  <optional_origin>  (167) 
None

>  <target>  (167) 
BSEP

$$$$

     RDKit          2D

 24 27  0  0  0  0  0  0  0  0999 V2000
    1.9595   -0.4671    0.0000 C   0  0  0  0  0  0  0  0  0  0  0  0
    2.7716   -0.3218    0.0000 C   0  0  0  0  0  0  0  0  0  0  0  0
    3.0519    0.4541    0.0000 C   0  0  0  0  0  0  0  0  0  0  0  0
    2.5201    1.0848    0.0000 C   0  0  0  0  0  0  0  0  0  0  0  0
    1.7080    0.9396    0.0000 C   0  0  0  0  0  0  0  0  0  0  0  0
    1.1761    1.5703    0.0000 C   0  0  0  0  0  0  0  0  0  0  0  0
    0.3640    1.4251    0.0000 C   0  0  0  0  0  0  0  0  0  0  0  0
    0.0837    0.6491    0.0000 C   0  0  0  0  0  0  0  0  0  0  0  0
    0.6155    0.0184    0.0000 C   0  0  0  0  0  0  0  0  0  0  0  0
    1.4277    0.1637    0.0000 C   0  0  0  0  0  0  0  0  0  0  0  0
    0.3352   -0.7575    0.0000 C   0  0  0  0  0  0  0  0  0  0  0  0
   -0.4769   -0.9027    0.0000 C   0  0  0  0  0  0  0  0  0  0  0  0
   -1.0087   -0.2720    0.0000 C   0  0  0  0  0  0  0  0  0  0  0  0
   -0.7284    0.5039    0.0000 C   0  0  0  0  0  0  0  0  0  0  0  0
   -1.3797    1.0103    0.0000 C   0  0  0  0  0  0  0  0  0  0  0  0
   -2.0626    0.5473    0.0000 C   0  0  0  0  0  0  0  0  0  0  0  0
   -1.8333   -0.2452    0.0000 C   0  0  0  0  0  0  0  0  0  0  0  0
   -1.3686   -1.0144    0.0000 C   0  0  0  0  0  0  0  0  0  0  0  0
    1.1474   -0.6123    0.0000 C   0  0  0  0  0  0  0  0  0  0  0  0
   -2.3396   -0.8965    0.0000 C   0  0  0  0  0  0  0  0  0  0  0  0
   -3.1569   -0.7837    0.0000 C   0  0  0  0  0  0  0  0  0  0  0  0
    3.8640    0.5993    0.0000 O   0  0  0  0  0  0  0  0  0  0  0  0
   -2.0287   -1.6607    0.0000 O   0  0  0  0  0  0  0  0  0  0  0  0
   -3.6632   -1.4350    0.0000 O   0  0  0  0  0  0  0  0  0  0  0  0
  1  2  1  0
  1 10  1  0
  2  3  1  0
  3  4  1  0
  3 22  2  0
  4  5  2  0
  5  6  1  0
 10  5  1  0
  6  7  1  0
  8  7  1  0
  8  9  1  0
 14  8  1  0
 10  9  1  0
  9 11  1  0
 10 19  1  0
 11 12  1  0
 12 13  1  0
 13 14  1  0
 13 17  1  0
 13 18  1  0
 14 15  1  0
 15 16  1  0
 16 17  1  0
 17 20  1  0
 20 21  1  0
 20 23  2  0
 21 24  1  0
M  END
>  <Classification>  (168) 
0

>  <pchembl>  (168) 
4.77

>  <InChI_steorem>  (168) 
InChI=1S/C21H30O3/c1-20-9-7-14(23)11-13(20)3-4-15-16-5-6-18(19(24)12-22)21(16,2)10-8-17(15)20/h11,15-18,22H,3-10,12H2,1-2H3

>  <source>  (168) 
ChEMBL25

>  <source_id>  (168) 
25

>  <optional_reference>  (168) 
10.1124/dmd.112.047068

>  <optional_origin>  (168) 
None

>  <target>  (168) 
BSEP

$$$$

     RDKit          2D

 29 31  0  0  0  0  0  0  0  0999 V2000
   -3.9880    2.7555    0.0000 C   0  0  0  0  0  0  0  0  0  0  0  0
   -3.1810    2.5839    0.0000 C   0  0  0  0  0  0  0  0  0  0  0  0
   -2.6290    3.1970    0.0000 C   0  0  0  0  0  0  0  0  0  0  0  0
   -2.9261    1.7993    0.0000 C   0  0  0  0  0  0  0  0  0  0  0  0
   -3.4781    1.1862    0.0000 C   0  0  0  0  0  0  0  0  0  0  0  0
   -2.1191    1.6278    0.0000 C   0  0  0  0  0  0  0  0  0  0  0  0
   -1.5671    2.2409    0.0000 C   0  0  0  0  0  0  0  0  0  0  0  0
   -0.7601    2.0694    0.0000 C   0  0  0  0  0  0  0  0  0  0  0  0
   -0.2081    2.6825    0.0000 C   0  0  0  0  0  0  0  0  0  0  0  0
   -0.5052    1.2847    0.0000 C   0  0  0  0  0  0  0  0  0  0  0  0
   -0.9901    0.6173    0.0000 C   0  0  0  0  0  0  0  0  0  0  0  0
   -0.5052   -0.0501    0.0000 C   0  0  0  0  0  0  0  0  0  0  0  0
    0.2795    0.2048    0.0000 C   0  0  0  0  0  0  0  0  0  0  0  0
    0.2795    1.0298    0.0000 C   0  0  0  0  0  0  0  0  0  0  0  0
    0.1932    1.8503    0.0000 C   0  0  0  0  0  0  0  0  0  0  0  0
    0.9939    1.4423    0.0000 C   0  0  0  0  0  0  0  0  0  0  0  0
    1.7084    1.0298    0.0000 C   0  0  0  0  0  0  0  0  0  0  0  0
    1.7084    0.2048    0.0000 C   0  0  0  0  0  0  0  0  0  0  0  0
    0.9939   -0.2077    0.0000 C   0  0  0  0  0  0  0  0  0  0  0  0
    0.9939   -1.0327    0.0000 C   0  0  0  0  0  0  0  0  0  0  0  0
    1.7084   -1.4452    0.0000 C   0  0  0  0  0  0  0  0  0  0  0  0
    1.7084   -2.2702    0.0000 C   0  0  0  0  0  0  0  0  0  0  0  0
    2.4229   -2.6827    0.0000 C   0  0  0  0  0  0  0  0  0  0  0  0
    2.4229   -3.5077    0.0000 C   0  0  0  0  0  0  0  0  0  0  0  0
    3.1373   -3.9202    0.0000 O   0  0  0  0  0  0  0  0  0  0  0  0
    1.7084   -3.9202    0.0000 C   0  0  0  0  0  0  0  0  0  0  0  0
    0.9939   -3.5077    0.0000 C   0  0  0  0  0  0  0  0  0  0  0  0
    0.9939   -2.6827    0.0000 C   0  0  0  0  0  0  0  0  0  0  0  0
    0.2795   -2.2702    0.0000 C   0  0  0  0  0  0  0  0  0  0  0  0
  1  2  1  0
  3  2  1  0
  2  4  1  0
  4  5  1  0
  6  4  1  0
  6  7  2  3
  7  8  1  0
  8  9  1  0
 10  8  1  0
 11 10  1  0
 10 14  1  0
 12 11  1  0
 13 12  1  0
 13 14  1  0
 19 13  1  0
 14 15  1  0
 14 16  1  0
 17 16  1  0
 17 18  1  0
 18 19  1  0
 20 19  2  3
 21 20  1  0
 21 22  2  3
 23 22  1  0
 28 22  1  0
 23 24  1  0
 24 25  1  0
 26 24  1  0
 27 26  1  0
 27 28  1  0
 29 28  2  0
M  END
>  <Classification>  (169) 
0

>  <pchembl>  (169) 
4.12

>  <InChI_steorem>  (169) 
InChI=1S/C28H44O/c1-19(2)20(3)9-10-22(5)26-15-16-27-23(8-7-17-28(26,27)6)12-13-24-18-25(29)14-11-21(24)4/h9-10,12-13,19-20,22,25-27,29H,4,7-8,11,14-18H2,1-3,5-6H3

>  <source>  (169) 
ChEMBL25

>  <source_id>  (169) 
25

>  <optional_reference>  (169) 
10.1093/toxsci/kft176

>  <optional_origin>  (169) 
None

>  <target>  (169) 
BSEP

$$$$

     RDKit          2D

 31 35  0  0  0  0  0  0  0  0999 V2000
    5.9750   -4.1792    0.0000 C   0  0  0  0  0  0  0  0  0  0  0  0
    5.2917   -4.4000    0.0000 C   0  0  0  0  0  0  0  0  0  0  0  0
    3.4542   -5.4792    0.0000 C   0  0  0  0  0  0  0  0  0  0  0  0
    5.3125   -5.1167    0.0000 C   0  0  0  0  0  0  0  0  0  0  0  0
    3.4667   -6.2000    0.0000 C   0  0  0  0  0  0  0  0  0  0  0  0
    4.6917   -5.4792    0.0000 C   0  0  0  0  0  0  0  0  0  0  0  0
    4.0750   -5.1167    0.0000 C   0  0  0  0  0  0  0  0  0  0  0  0
    6.4000   -4.7625    0.0000 C   0  0  0  0  0  0  0  0  0  0  0  0
    6.3667   -3.6167    0.0000 O   0  0  0  0  0  0  0  0  0  0  0  0
    4.6875   -4.0417    0.0000 C   0  0  0  0  0  0  0  0  0  0  0  0
    7.0542   -3.8042    0.0000 C   0  0  0  0  0  0  0  0  0  0  0  0
    4.0750   -4.4000    0.0000 C   0  0  0  0  0  0  0  0  0  0  0  0
    7.0667   -4.5250    0.0000 O   0  0  0  0  0  0  0  0  0  0  0  0
    5.9792   -5.3375    0.0000 C   0  0  0  0  0  0  0  0  0  0  0  0
    4.6917   -6.2000    0.0000 C   0  0  0  0  0  0  0  0  0  0  0  0
    4.0875   -6.5542    0.0000 C   0  0  0  0  0  0  0  0  0  0  0  0
    2.8542   -6.5542    0.0000 C   0  0  0  0  0  0  0  0  0  0  0  0
    5.9667   -3.4667    0.0000 C   0  0  0  0  0  0  0  0  0  0  0  0
    2.8417   -5.1167    0.0000 C   0  0  0  0  0  0  0  0  0  0  0  0
    2.2292   -6.2000    0.0000 C   0  0  0  0  0  0  0  0  0  0  0  0
    5.3542   -3.1292    0.0000 O   0  0  0  0  0  0  0  0  0  0  0  0
    1.6167   -6.5542    0.0000 O   0  0  0  0  0  0  0  0  0  0  0  0
    5.2667   -3.6542    0.0000 C   0  0  0  0  0  0  0  0  0  0  0  0
    2.2167   -5.4792    0.0000 C   0  0  0  0  0  0  0  0  0  0  0  0
    3.4375   -4.7417    0.0000 C   0  0  0  0  0  0  0  0  0  0  0  0
    4.0875   -7.2667    0.0000 F   0  0  0  0  0  0  0  0  0  0  0  0
    3.4542   -4.0417    0.0000 O   0  0  0  0  0  0  0  0  0  0  0  0
    6.5667   -3.1000    0.0000 C   0  0  0  0  0  0  0  0  0  0  0  0
    7.7042   -3.7917    0.0000 C   0  0  0  0  0  0  0  0  0  0  0  0
    7.3292   -3.1667    0.0000 C   0  0  0  0  0  0  0  0  0  0  0  0
    6.5542   -2.3875    0.0000 O   0  0  0  0  0  0  0  0  0  0  0  0
  2  1  1  0
  3  7  1  0
  4  2  1  0
  5  3  1  0
  6  4  1  0
  7 12  1  0
  8  1  1  0
  1  9  1  0
 10  2  1  0
 11  9  1  0
 12 10  1  0
  8 13  1  0
 14  8  1  0
 15  6  1  0
 16 15  1  0
 17  5  2  0
  1 18  1  0
 19  3  1  0
 20 24  1  0
 21 18  2  0
 22 20  2  0
  2 23  1  0
 24 19  1  0
  3 25  1  0
 16 26  1  0
 12 27  1  0
 28 18  1  0
 29 11  1  0
 30 11  1  0
 31 28  1  0
 14  4  1  0
 11 13  1  0
  7  6  1  0
  5 16  1  0
 20 17  1  0
M  END
>  <Classification>  (170) 
0

>  <pchembl>  (170) 
4.15

>  <InChI_steorem>  (170) 
InChI=1S/C24H33FO6/c1-21(2)30-19-9-14-13-8-16(25)15-7-12(27)5-6-22(15,3)20(13)17(28)10-23(14,4)24(19,31-21)18(29)11-26/h7,13-14,16-17,19-20,26,28H,5-6,8-11H2,1-4H3

>  <source>  (170) 
ChEMBL25

>  <source_id>  (170) 
25

>  <optional_reference>  (170) 
10.1124/dmd.112.047068

>  <optional_origin>  (170) 
None

>  <target>  (170) 
BSEP

$$$$

     RDKit          2D

 68 71  0  0  0  0  0  0  0  0999 V2000
   14.9835  -12.6841    0.0000 C   0  0  0  0  0  0  0  0  0  0  0  0
   14.9835  -13.5139    0.0000 C   0  0  0  0  0  0  0  0  0  0  0  0
   15.7010  -12.2741    0.0000 C   0  0  0  0  0  0  0  0  0  0  0  0
   15.7010  -11.4491    0.0000 N   0  0  0  0  0  0  0  0  0  0  0  0
   17.1264  -11.4394    0.0000 C   0  0  0  0  0  0  0  0  0  0  0  0
   21.4122  -12.2692    0.0000 C   0  0  0  0  0  0  0  0  0  0  0  0
   17.8391  -11.0294    0.0000 O   0  0  0  0  0  0  0  0  0  0  0  0
   22.1298  -12.6841    0.0000 C   0  0  0  0  0  0  0  0  0  0  0  0
   20.6996  -11.0294    0.0000 C   0  0  0  0  0  0  0  0  0  0  0  0
   16.4089  -11.0294    0.0000 C   0  0  0  0  0  0  0  0  0  0  0  0
   15.6913  -13.9240    0.0000 O   0  0  0  0  0  0  0  0  0  0  0  0
   21.4122  -11.4394    0.0000 C   0  0  0  0  0  0  0  0  0  0  0  0
   20.6996  -10.2093    0.0000 C   0  0  0  0  0  0  0  0  0  0  0  0
   17.8391  -10.2093    0.0000 C   0  0  0  0  0  0  0  0  0  0  0  0
   19.2742  -10.2093    0.0000 C   0  0  0  0  0  0  0  0  0  0  0  0
   18.5469   -9.7943    0.0000 C   0  0  0  0  0  0  0  0  0  0  0  0
   22.1201  -13.5139    0.0000 C   0  0  0  0  0  0  0  0  0  0  0  0
   19.9820   -9.7943    0.0000 C   0  0  0  0  0  0  0  0  0  0  0  0
   17.8391  -15.1590    0.0000 C   0  0  0  0  0  0  0  0  0  0  0  0
   17.1264  -14.7441    0.0000 C   0  0  0  0  0  0  0  0  0  0  0  0
   14.2708  -12.2741    0.0000 O   0  0  0  0  0  0  0  0  0  0  0  0
   14.2708  -13.9240    0.0000 C   0  0  0  0  0  0  0  0  0  0  0  0
   16.4089  -15.1590    0.0000 C   0  0  0  0  0  0  0  0  0  0  0  0
   16.4089  -12.6841    0.0000 O   0  0  0  0  0  0  0  0  0  0  0  0
   15.6913  -14.7490    0.0000 C   0  0  0  0  0  0  0  0  0  0  0  0
   17.1264  -12.2692    0.0000 O   0  0  0  0  0  0  0  0  0  0  0  0
   14.9835   -8.5545    0.0000 C   0  0  0  0  0  0  0  0  0  0  0  0
   17.1264   -9.7943    0.0000 C   0  0  0  0  0  0  0  0  0  0  0  0
   22.8376  -12.2692    0.0000 O   0  0  0  0  0  0  0  0  0  0  0  0
   18.5469  -14.7441    0.0000 C   0  0  0  0  0  0  0  0  0  0  0  0
   14.9737  -14.3389    0.0000 O   0  0  0  0  0  0  0  0  0  0  0  0
   22.8327  -13.9240    0.0000 C   0  0  0  0  0  0  0  0  0  0  0  0
   15.6913   -8.9645    0.0000 C   0  0  0  0  0  0  0  0  0  0  0  0
   19.2742  -11.0294    0.0000 O   0  0  0  0  0  0  0  0  0  0  0  0
   17.1264   -8.9645    0.0000 C   0  0  0  0  0  0  0  0  0  0  0  0
   14.9835   -7.7295    0.0000 C   0  0  0  0  0  0  0  0  0  0  0  0
   19.2645  -15.1590    0.0000 C   0  0  0  0  0  0  0  0  0  0  0  0
   16.4089   -8.5545    0.0000 C   0  0  0  0  0  0  0  0  0  0  0  0
   19.9820  -14.7441    0.0000 C   0  0  0  0  0  0  0  0  0  0  0  0
   20.6996  -15.1590    0.0000 C   0  0  0  0  0  0  0  0  0  0  0  0
   21.4122  -14.7441    0.0000 C   0  0  0  0  0  0  0  0  0  0  0  0
   14.2708  -14.7490    0.0000 C   0  0  0  0  0  0  0  0  0  0  0  0
   15.7010   -7.3097    0.0000 C   0  0  0  0  0  0  0  0  0  0  0  0
   20.6996  -12.6841    0.0000 O   0  0  0  0  0  0  0  0  0  0  0  0
   14.9835  -11.0294    0.0000 C   0  0  0  0  0  0  0  0  0  0  0  0
   22.1298  -11.0294    0.0000 O   0  0  0  0  0  0  0  0  0  0  0  0
   14.9835  -15.1590    0.0000 C   0  0  0  0  0  0  0  0  0  0  0  0
   22.8620  -14.7733    0.0000 C   0  0  0  0  0  0  0  0  0  0  0  0
   16.4089   -7.7295    0.0000 C   0  0  0  0  0  0  0  0  0  0  0  0
   17.1264  -13.9143    0.0000 O   0  0  0  0  0  0  0  0  0  0  0  0
   14.2659   -8.9596    0.0000 O   0  0  0  0  0  0  0  0  0  0  0  0
   19.9820  -11.4394    0.0000 C   0  0  0  0  0  0  0  0  0  0  0  0
   14.2708   -7.3097    0.0000 O   0  0  0  0  0  0  0  0  0  0  0  0
   16.4089  -10.2093    0.0000 C   0  0  0  0  0  0  0  0  0  0  0  0
   12.1279   -7.7198    0.0000 O   0  0  0  0  0  0  0  0  0  0  0  0
   17.8391  -15.9791    0.0000 C   0  0  0  0  0  0  0  0  0  0  0  0
   21.4122  -13.9143    0.0000 C   0  0  0  0  0  0  0  0  0  0  0  0
   19.9820   -8.9645    0.0000 C   0  0  0  0  0  0  0  0  0  0  0  0
   17.1215  -10.6193    0.0000 C   0  0  0  0  0  0  0  0  0  0  0  0
   13.5533  -13.5139    0.0000 C   0  0  0  0  0  0  0  0  0  0  0  0
   12.8357   -7.3048    0.0000 C   0  0  0  0  0  0  0  0  0  0  0  0
   13.5533   -7.7198    0.0000 C   0  0  0  0  0  0  0  0  0  0  0  0
   19.9820  -12.2692    0.0000 C   0  0  0  0  0  0  0  0  0  0  0  0
   17.8391  -13.5042    0.0000 C   0  0  0  0  0  0  0  0  0  0  0  0
   13.5533   -8.5496    0.0000 C   0  0  0  0  0  0  0  0  0  0  0  0
   23.5796  -15.1883    0.0000 C   0  0  0  0  0  0  0  0  0  0  0  0
   14.9884  -10.2093    0.0000 C   0  0  0  0  0  0  0  0  0  0  0  0
   15.7010   -9.7943    0.0000 C   0  0  0  0  0  0  0  0  0  0  0  0
  2  1  1  0
  3  1  1  0
  4  3  1  0
 10  5  1  0
  6 12  1  0
  7  5  1  0
  8  6  1  0
  9 13  2  0
 10  4  1  0
 11  2  1  0
 12  9  1  0
 13 18  1  0
 14  7  1  0
 15 16  1  0
 16 14  1  0
 17 32  1  0
 18 15  1  0
 19 20  1  0
 20 23  1  0
 21  1  2  0
 22  2  1  0
 23 25  1  0
 24  3  2  0
 25 11  1  0
 26  5  2  0
 27 33  1  0
 28 14  1  0
 29  8  2  0
 30 19  2  0
  2 31  1  0
 32 48  1  0
 33 38  1  0
 34 15  2  0
 35 28  1  0
 36 43  1  0
 37 30  1  0
 38 35  1  0
 39 37  2  0
 40 39  1  0
 41 40  2  0
 42 22  1  0
 43 49  1  0
  6 44  1  0
 45  4  1  0
 12 46  1  0
 47 42  1  0
 48 41  1  0
 49 38  1  0
 20 50  1  0
 27 51  1  0
 52  9  1  0
 36 53  1  0
 54 10  1  0
 55 61  1  0
 56 19  1  0
 17 57  1  0
 18 58  1  0
 28 59  1  0
 22 60  1  0
 61 62  1  0
 62 53  1  0
 63 44  1  0
 64 50  1  0
 65 51  1  0
 48 66  1  0
 67 45  1  0
 68 67  1  0
 25 47  1  0
 54 68  1  0
 27 36  1  0
  8 17  1  0
M  END
>  <Classification>  (171) 
1

>  <pchembl>  (171) 
5.7

>  <InChI_steorem>  (171) 
InChI=1S/C53H83NO14/c1-32-16-12-11-13-17-33(2)44(63-8)30-40-21-19-38(7)53(62,68-40)50(59)51(60)54-23-15-14-18-41(54)52(61)67-45(35(4)28-39-20-22-43(66-25-24-55)46(29-39)64-9)31-42(56)34(3)27-37(6)48(58)49(65-10)47(57)36(5)26-32/h11-13,16-17,27,32,34-36,38-41,43-46,48-49,55,58,62H,14-15,18-26,28-31H2,1-10H3

>  <source>  (171) 
ChEMBL25

>  <source_id>  (171) 
25

>  <optional_reference>  (171) 
10.1093/toxsci/kft176

>  <optional_origin>  (171) 
None

>  <target>  (171) 
BSEP

$$$$

     RDKit          2D

 23 25  0  0  0  0  0  0  0  0999 V2000
   -4.7367   -0.0223    0.0000 Cl  0  0  0  0  0  0  0  0  0  0  0  0
   -1.9277    0.8027    0.0000 S   0  0  0  0  0  0  0  0  0  0  0  0
   -3.4268   -0.6897    0.0000 S   0  0  0  0  0  0  0  0  0  0  0  0
   -1.3974    1.4347    0.0000 O   0  0  0  0  0  0  0  0  0  0  0  0
   -2.4580    1.4347    0.0000 O   0  0  0  0  0  0  0  0  0  0  0  0
   -1.9277   -1.6723    0.0000 O   0  0  0  0  0  0  0  0  0  0  0  0
    0.2157   -0.4348    0.0000 O   0  0  0  0  0  0  0  0  0  0  0  0
   -1.2132    0.3902    0.0000 N   0  0  0  0  0  0  0  0  0  0  0  0
   -0.4987   -1.6723    0.0000 N   0  0  0  0  0  0  0  0  0  0  0  0
    0.2157   -2.9098    0.0000 N   0  0  0  0  0  0  0  0  0  0  0  0
   -2.6421    0.3902    0.0000 C   0  0  0  0  0  0  0  0  0  0  0  0
   -2.6421   -0.4348    0.0000 C   0  0  0  0  0  0  0  0  0  0  0  0
   -1.2132   -0.4348    0.0000 C   0  0  0  0  0  0  0  0  0  0  0  0
   -1.9277   -0.8473    0.0000 C   0  0  0  0  0  0  0  0  0  0  0  0
   -3.4268    0.6451    0.0000 C   0  0  0  0  0  0  0  0  0  0  0  0
   -3.9117   -0.0223    0.0000 C   0  0  0  0  0  0  0  0  0  0  0  0
   -0.4987   -0.8473    0.0000 C   0  0  0  0  0  0  0  0  0  0  0  0
   -0.4987    0.8027    0.0000 C   0  0  0  0  0  0  0  0  0  0  0  0
    0.2157   -2.0848    0.0000 C   0  0  0  0  0  0  0  0  0  0  0  0
    0.9302   -1.6723    0.0000 C   0  0  0  0  0  0  0  0  0  0  0  0
    0.9302   -3.3223    0.0000 C   0  0  0  0  0  0  0  0  0  0  0  0
    1.6447   -2.0848    0.0000 C   0  0  0  0  0  0  0  0  0  0  0  0
    1.6447   -2.9098    0.0000 C   0  0  0  0  0  0  0  0  0  0  0  0
  1 16  1  0
  2  4  2  0
  2  5  2  0
  2  8  1  0
  2 11  1  0
  3 12  1  0
  3 16  1  0
  6 14  1  0
  7 17  2  0
  8 13  1  0
  8 18  1  0
  9 17  1  0
  9 19  1  0
 10 19  2  0
 10 21  1  0
 11 12  2  0
 11 15  1  0
 12 14  1  0
 13 14  2  0
 13 17  1  0
 15 16  2  0
 19 20  1  0
 20 22  2  0
 21 23  2  0
 22 23  1  0
M  END
>  <Classification>  (172) 
1

>  <pchembl>  (172) 
5.12

>  <InChI_steorem>  (172) 
InChI=1S/C13H10ClN3O4S2/c1-17-10(13(19)16-9-4-2-3-5-15-9)11(18)12-7(23(17,20)21)6-8(14)22-12/h2-6,18H,1H3,(H,15,16,19)

>  <source>  (172) 
ChEMBL25

>  <source_id>  (172) 
25

>  <optional_reference>  (172) 
10.1093/toxsci/kft176

>  <optional_origin>  (172) 
None

>  <target>  (172) 
BSEP

$$$$

     RDKit          2D

 27 28  0  0  0  0  0  0  0  0999 V2000
   -2.4458   -0.2375    0.0000 C   0  0  0  0  0  0  0  0  0  0  0  0
   -2.1500    0.7500    0.0000 C   0  0  0  0  0  0  0  0  0  0  0  0
   -1.1833    1.0958    0.0000 N   0  0  0  0  0  0  0  0  0  0  0  0
   -0.0500    2.4458    0.0000 C   0  0  0  0  0  0  0  0  0  0  0  0
    0.1292   -1.2292    0.0000 C   0  0  0  0  0  0  0  0  0  0  0  0
   -0.7583   -0.7167    0.0000 S   0  0  0  0  0  0  0  0  0  0  0  0
   -3.4458   -0.4792    0.0000 C   0  0  0  0  0  0  0  0  0  0  0  0
   -1.7250   -0.9792    0.0000 C   0  0  0  0  0  0  0  0  0  0  0  0
   -2.8083    1.5958    0.0000 O   0  0  0  0  0  0  0  0  0  0  0  0
   -0.0500    3.4583    0.0000 O   0  0  0  0  0  0  0  0  0  0  0  0
    1.0167   -0.7167    0.0000 O   0  0  0  0  0  0  0  0  0  0  0  0
    0.7917    1.8500    0.0000 O   0  0  0  0  0  0  0  0  0  0  0  0
   -0.9958    2.1083    0.0000 C   0  0  0  0  0  0  0  0  0  0  0  0
    1.7292    2.2833    0.0000 C   0  0  0  0  0  0  0  0  0  0  0  0
   -3.4458   -1.5125    0.0000 C   0  0  0  0  0  0  0  0  0  0  0  0
    2.5667    1.6875    0.0000 C   0  0  0  0  0  0  0  0  0  0  0  0
    0.1292   -2.2542    0.0000 C   0  0  0  0  0  0  0  0  0  0  0  0
   -2.5583   -2.0292    0.0000 C   0  0  0  0  0  0  0  0  0  0  0  0
   -4.3458   -2.0167    0.0000 C   0  0  0  0  0  0  0  0  0  0  0  0
    2.4750    0.6625    0.0000 C   0  0  0  0  0  0  0  0  0  0  0  0
    3.5000    2.1208    0.0000 C   0  0  0  0  0  0  0  0  0  0  0  0
   -2.5708   -3.0542    0.0000 C   0  0  0  0  0  0  0  0  0  0  0  0
   -4.3458   -3.0417    0.0000 C   0  0  0  0  0  0  0  0  0  0  0  0
    3.3042    0.0708    0.0000 C   0  0  0  0  0  0  0  0  0  0  0  0
    4.3417    1.5208    0.0000 C   0  0  0  0  0  0  0  0  0  0  0  0
   -3.4625   -3.5667    0.0000 C   0  0  0  0  0  0  0  0  0  0  0  0
    4.2417    0.4958    0.0000 C   0  0  0  0  0  0  0  0  0  0  0  0
  2  1  1  0
  3  2  1  0
  4 13  1  0
  5  6  1  0
  6  8  1  0
  7  1  1  0
  8  1  1  0
  9  2  2  0
 10  4  2  0
 11  5  2  0
 12  4  1  0
 13  3  1  0
 14 12  1  0
 15  7  1  0
 16 14  1  0
 17  5  1  0
 18 15  2  0
 19 15  1  0
 20 16  2  0
 21 16  1  0
 22 18  1  0
 23 19  2  0
 24 20  1  0
 25 21  2  0
 26 23  1  0
 27 25  1  0
 22 26  2  0
 24 27  2  0
M  END
>  <Classification>  (173) 
0

>  <pchembl>  (173) 
4.69

>  <InChI_steorem>  (173) 
InChI=1S/C21H23NO4S/c1-16(23)27-15-19(12-17-8-4-2-5-9-17)21(25)22-13-20(24)26-14-18-10-6-3-7-11-18/h2-11,19H,12-15H2,1H3,(H,22,25)

>  <source>  (173) 
ChEMBL25

>  <source_id>  (173) 
25

>  <optional_reference>  (173) 
10.1093/toxsci/kft176

>  <optional_origin>  (173) 
None

>  <target>  (173) 
BSEP

$$$$

     RDKit          2D

 19 20  0  0  0  0  0  0  0  0999 V2000
    4.5917  -18.7792    0.0000 C   0  0  0  0  0  0  0  0  0  0  0  0
    5.2917  -19.1917    0.0000 C   0  0  0  0  0  0  0  0  0  0  0  0
    4.5917  -17.9542    0.0000 N   0  0  0  0  0  0  0  0  0  0  0  0
    3.8750  -19.1917    0.0000 C   0  0  0  0  0  0  0  0  0  0  0  0
    5.2917  -20.0292    0.0000 C   0  0  0  0  0  0  0  0  0  0  0  0
    6.0042  -18.7792    0.0000 N   0  0  0  0  0  0  0  0  0  0  0  0
    3.8750  -20.0292    0.0000 C   0  0  0  0  0  0  0  0  0  0  0  0
    4.5917  -20.4417    0.0000 C   0  0  0  0  0  0  0  0  0  0  0  0
    1.0250  -17.5292    0.0000 N   0  0  0  0  0  0  0  0  0  0  0  0
    3.1500  -20.4417    0.0000 O   0  0  0  0  0  0  0  0  0  0  0  0
    3.8792  -17.5417    0.0000 C   0  0  0  0  0  0  0  0  0  0  0  0
    6.0042  -20.4417    0.0000 C   0  0  0  0  0  0  0  0  0  0  0  0
    6.7292  -19.1917    0.0000 C   0  0  0  0  0  0  0  0  0  0  0  0
    1.7417  -17.9375    0.0000 C   0  0  0  0  0  0  0  0  0  0  0  0
    2.4417  -20.0167    0.0000 C   0  0  0  0  0  0  0  0  0  0  0  0
    3.1667  -17.9542    0.0000 C   0  0  0  0  0  0  0  0  0  0  0  0
    3.8792  -16.7167    0.0000 C   0  0  0  0  0  0  0  0  0  0  0  0
    2.4625  -17.5292    0.0000 C   0  0  0  0  0  0  0  0  0  0  0  0
    6.7292  -20.0292    0.0000 C   0  0  0  0  0  0  0  0  0  0  0  0
  2  1  2  0
  3  1  1  0
  4  1  1  0
  5  2  1  0
  6  2  1  0
  7  4  2  0
  8  7  1  0
  9 14  1  0
 10  7  1  0
 11  3  1  0
 12  5  1  0
 13  6  2  0
 14 18  1  0
 15 10  1  0
 16 11  1  0
 17 11  1  0
 18 16  1  0
 19 13  1  0
  5  8  2  0
 12 19  2  0
M  END
>  <Classification>  (174) 
0

>  <pchembl>  (174) 
4.49

>  <InChI_steorem>  (174) 
InChI=1S/C15H21N3O/c1-11(5-3-7-16)18-14-10-13(19-2)9-12-6-4-8-17-15(12)14/h4,6,8-11,18H,3,5,7,16H2,1-2H3

>  <source>  (174) 
ChEMBL25

>  <source_id>  (174) 
25

>  <optional_reference>  (174) 
10.1093/toxsci/kfq269

>  <optional_origin>  (174) 
None

>  <target>  (174) 
BSEP

$$$$

     RDKit          2D

 26 28  0  0  0  0  0  0  0  0999 V2000
    4.2542   -7.6792    0.0000 N   0  0  0  0  0  0  0  0  0  0  0  0
    3.6417   -8.0375    0.0000 C   0  0  0  0  0  0  0  0  0  0  0  0
    5.4750   -6.9417    0.0000 N   0  0  0  0  0  0  0  0  0  0  0  0
    3.0167   -7.6917    0.0000 C   0  0  0  0  0  0  0  0  0  0  0  0
    4.2417   -6.9667    0.0000 C   0  0  0  0  0  0  0  0  0  0  0  0
    4.8792   -8.0167    0.0000 C   0  0  0  0  0  0  0  0  0  0  0  0
    3.6542   -8.7542    0.0000 C   0  0  0  0  0  0  0  0  0  0  0  0
    2.4125   -8.0625    0.0000 C   0  0  0  0  0  0  0  0  0  0  0  0
    3.0125   -6.9875    0.0000 C   0  0  0  0  0  0  0  0  0  0  0  0
    4.8542   -6.6042    0.0000 C   0  0  0  0  0  0  0  0  0  0  0  0
    5.4792   -7.6625    0.0000 C   0  0  0  0  0  0  0  0  0  0  0  0
    1.7750   -7.0125    0.0000 C   0  0  0  0  0  0  0  0  0  0  0  0
    2.3833   -6.6417    0.0000 C   0  0  0  0  0  0  0  0  0  0  0  0
    1.7792   -7.7292    0.0000 C   0  0  0  0  0  0  0  0  0  0  0  0
    1.1542   -6.6667    0.0000 Cl  0  0  0  0  0  0  0  0  0  0  0  0
    6.0875   -6.5875    0.0000 C   0  0  0  0  0  0  0  0  0  0  0  0
    9.1750   -6.8792    0.0000 O   0  0  0  0  0  0  0  0  0  0  0  0
    7.3167   -6.5542    0.0000 O   0  0  0  0  0  0  0  0  0  0  0  0
    3.0417   -9.1167    0.0000 C   0  0  0  0  0  0  0  0  0  0  0  0
    4.2792   -9.1000    0.0000 C   0  0  0  0  0  0  0  0  0  0  0  0
    8.5500   -6.5375    0.0000 C   0  0  0  0  0  0  0  0  0  0  0  0
    6.7000   -6.9250    0.0000 C   0  0  0  0  0  0  0  0  0  0  0  0
    7.9375   -6.9000    0.0000 C   0  0  0  0  0  0  0  0  0  0  0  0
    4.2875   -9.8125    0.0000 C   0  0  0  0  0  0  0  0  0  0  0  0
    3.0542   -9.8375    0.0000 C   0  0  0  0  0  0  0  0  0  0  0  0
    3.6792  -10.1792    0.0000 C   0  0  0  0  0  0  0  0  0  0  0  0
  2  1  1  0
  3 11  1  0
  4  2  1  0
  5  1  1  0
  6  1  1  0
  7  2  1  0
  8  4  2  0
  9  4  1  0
 10  5  1  0
 11  6  1  0
 12 13  1  0
 13  9  2  0
 14  8  1  0
 15 12  1  0
 16  3  1  0
 17 21  1  0
 18 22  1  0
 19  7  2  0
 20  7  1  0
 21 23  1  0
 22 16  1  0
 23 18  1  0
 24 20  2  0
 25 19  1  0
 26 25  2  0
 10  3  1  0
 14 12  2  0
 24 26  1  0
M  END
>  <Classification>  (175) 
0

>  <pchembl>  (175) 
4.14

>  <InChI_steorem>  (175) 
InChI=1S/C21H27ClN2O2/c22-20-8-6-19(7-9-20)21(18-4-2-1-3-5-18)24-12-10-23(11-13-24)14-16-26-17-15-25/h1-9,21,25H,10-17H2

>  <source>  (175) 
ChEMBL25

>  <source_id>  (175) 
25

>  <optional_reference>  (175) 
10.1124/dmd.112.047068

>  <optional_origin>  (175) 
None

>  <target>  (175) 
BSEP

$$$$

     RDKit          2D

 28 29  0  0  0  0  0  0  0  0999 V2000
    2.9958   -7.0917    0.0000 C   0  0  0  0  0  0  0  0  0  0  0  0
    1.7750   -7.0917    0.0000 C   0  0  0  0  0  0  0  0  0  0  0  0
    2.3833   -6.7375    0.0000 C   0  0  0  0  0  0  0  0  0  0  0  0
    1.7750   -7.8000    0.0000 C   0  0  0  0  0  0  0  0  0  0  0  0
    2.9958   -7.8000    0.0000 C   0  0  0  0  0  0  0  0  0  0  0  0
    2.3833   -8.1542    0.0000 N   0  0  0  0  0  0  0  0  0  0  0  0
    3.6125   -6.7375    0.0000 C   0  0  0  0  0  0  0  0  0  0  0  0
    1.1583   -6.7375    0.0000 C   0  0  0  0  0  0  0  0  0  0  0  0
    2.3833   -5.3208    0.0000 C   0  0  0  0  0  0  0  0  0  0  0  0
    3.0000   -4.9667    0.0000 C   0  0  0  0  0  0  0  0  0  0  0  0
    3.6125   -6.0292    0.0000 O   0  0  0  0  0  0  0  0  0  0  0  0
    1.1583   -6.0292    0.0000 O   0  0  0  0  0  0  0  0  0  0  0  0
    1.1583   -8.1500    0.0000 C   0  0  0  0  0  0  0  0  0  0  0  0
    4.2250   -7.0917    0.0000 O   0  0  0  0  0  0  0  0  0  0  0  0
    0.5458   -7.0917    0.0000 O   0  0  0  0  0  0  0  0  0  0  0  0
    3.6125   -8.1500    0.0000 C   0  0  0  0  0  0  0  0  0  0  0  0
    3.6125   -5.3208    0.0000 Cl  0  0  0  0  0  0  0  0  0  0  0  0
   -1.2958   -8.1500    0.0000 N   0  0  0  0  0  0  0  0  0  0  0  0
    1.7750   -4.9667    0.0000 C   0  0  0  0  0  0  0  0  0  0  0  0
    0.5458   -7.7958    0.0000 O   0  0  0  0  0  0  0  0  0  0  0  0
    3.0000   -4.2583    0.0000 C   0  0  0  0  0  0  0  0  0  0  0  0
   -0.6792   -7.7958    0.0000 C   0  0  0  0  0  0  0  0  0  0  0  0
   -0.0667   -6.7375    0.0000 C   0  0  0  0  0  0  0  0  0  0  0  0
   -0.0667   -8.1500    0.0000 C   0  0  0  0  0  0  0  0  0  0  0  0
    4.8375   -6.7375    0.0000 C   0  0  0  0  0  0  0  0  0  0  0  0
    1.7708   -4.2625    0.0000 C   0  0  0  0  0  0  0  0  0  0  0  0
   -0.6792   -7.0917    0.0000 C   0  0  0  0  0  0  0  0  0  0  0  0
    2.3875   -3.9042    0.0000 C   0  0  0  0  0  0  0  0  0  0  0  0
  2  3  1  0
  3  1  1  0
  4  2  2  0
  5  1  2  0
  6  5  1  0
  7  1  1  0
  8  2  1  0
  9  3  1  0
 10  9  2  0
 11  7  2  0
 12  8  2  0
 13  4  1  0
 14  7  1  0
 15  8  1  0
 16  5  1  0
 17 10  1  0
 18 22  1  0
 19  9  1  0
 20 13  1  0
 21 10  1  0
 22 24  1  0
 23 15  1  0
 24 20  1  0
 25 14  1  0
 26 19  2  0
 27 23  1  0
 28 21  2  0
  6  4  1  0
 26 28  1  0
M  END
>  <Classification>  (176) 
0

>  <pchembl>  (176) 
4.8

>  <InChI_steorem>  (176) 
InChI=1S/C20H25ClN2O5/c1-4-28-20(25)18-15(11-27-10-9-22)23-12(2)16(19(24)26-3)17(18)13-7-5-6-8-14(13)21/h5-8,17,23H,4,9-11,22H2,1-3H3

>  <source>  (176) 
ChEMBL25

>  <source_id>  (176) 
25

>  <optional_reference>  (176) 
10.1124/dmd.112.047068

>  <optional_origin>  (176) 
None

>  <target>  (176) 
BSEP

$$$$

     RDKit          2D

 20 22  0  0  0  0  0  0  0  0999 V2000
    0.5417    1.6958    0.0000 C   0  0  0  0  0  0  0  0  0  0  0  0
    3.0417    2.9458    0.0000 N   0  0  0  0  0  0  0  0  0  0  0  0
    1.2792    2.4583    0.0000 C   0  0  0  0  0  0  0  0  0  0  0  0
   -0.4708    1.9458    0.0000 C   0  0  0  0  0  0  0  0  0  0  0  0
    0.8375    0.6833    0.0000 C   0  0  0  0  0  0  0  0  0  0  0  0
    2.3000    2.1958    0.0000 C   0  0  0  0  0  0  0  0  0  0  0  0
    4.0625    2.6750    0.0000 C   0  0  0  0  0  0  0  0  0  0  0  0
    0.1167   -0.0625    0.0000 C   0  0  0  0  0  0  0  0  0  0  0  0
   -0.7625    2.9458    0.0000 C   0  0  0  0  0  0  0  0  0  0  0  0
   -1.1958    1.1750    0.0000 C   0  0  0  0  0  0  0  0  0  0  0  0
    1.8500    0.4375    0.0000 C   0  0  0  0  0  0  0  0  0  0  0  0
    2.5792    1.1833    0.0000 C   0  0  0  0  0  0  0  0  0  0  0  0
    4.3417    1.6625    0.0000 C   0  0  0  0  0  0  0  0  0  0  0  0
   -1.7833    3.1958    0.0000 C   0  0  0  0  0  0  0  0  0  0  0  0
   -2.2125    1.4208    0.0000 C   0  0  0  0  0  0  0  0  0  0  0  0
    2.1417   -0.5750    0.0000 C   0  0  0  0  0  0  0  0  0  0  0  0
    0.4042   -1.0542    0.0000 C   0  0  0  0  0  0  0  0  0  0  0  0
    3.6000    0.9250    0.0000 C   0  0  0  0  0  0  0  0  0  0  0  0
    1.4375   -1.3125    0.0000 C   0  0  0  0  0  0  0  0  0  0  0  0
   -2.5208    2.4208    0.0000 C   0  0  0  0  0  0  0  0  0  0  0  0
  2  6  1  0
  3  1  1  0
  4  1  1  0
  5  1  1  0
  6  3  1  0
  7  2  1  0
  8  5  1  0
  9  4  1  0
 10  4  1  0
 11  5  1  0
 12  6  1  0
 13  7  1  0
 14  9  1  0
 15 10  1  0
 16 11  1  0
 17  8  1  0
 18 12  1  0
 19 16  1  0
 20 15  1  0
 17 19  1  0
 14 20  1  0
 18 13  1  0
M  END
>  <Classification>  (177) 
0

>  <pchembl>  (177) 
4.84

>  <InChI_steorem>  (177) 
InChI=1S/C19H35N/c1-3-9-16(10-4-1)19(17-11-5-2-6-12-17)15-18-13-7-8-14-20-18/h16-20H,1-15H2

>  <source>  (177) 
ChEMBL25

>  <source_id>  (177) 
25

>  <optional_reference>  (177) 
10.1124/dmd.112.047068

>  <optional_origin>  (177) 
None

>  <target>  (177) 
BSEP

$$$$

     RDKit          2D

 40 43  0  0  0  0  0  0  0  0999 V2000
    7.6000   -2.8000    0.0000 N   0  0  0  0  0  0  0  0  0  0  0  0
    8.2417   -2.4250    0.0000 C   0  0  0  0  0  0  0  0  0  0  0  0
    4.5417   -2.4542    0.0000 C   0  0  0  0  0  0  0  0  0  0  0  0
    8.2417   -1.6667    0.0000 C   0  0  0  0  0  0  0  0  0  0  0  0
    5.1792   -2.8000    0.0000 N   0  0  0  0  0  0  0  0  0  0  0  0
    3.8917   -2.8125    0.0000 C   0  0  0  0  0  0  0  0  0  0  0  0
    8.8292   -2.8000    0.0000 C   0  0  0  0  0  0  0  0  0  0  0  0
    7.0167   -2.4542    0.0000 C   0  0  0  0  0  0  0  0  0  0  0  0
    3.2542   -2.4542    0.0000 C   0  0  0  0  0  0  0  0  0  0  0  0
    7.5875   -3.4917    0.0000 C   0  0  0  0  0  0  0  0  0  0  0  0
    5.8042   -2.4542    0.0000 C   0  0  0  0  0  0  0  0  0  0  0  0
    8.8167   -1.3167    0.0000 N   0  0  0  0  0  0  0  0  0  0  0  0
    6.4250   -2.8000    0.0000 C   0  0  0  0  0  0  0  0  0  0  0  0
    8.8292   -3.5042    0.0000 C   0  0  0  0  0  0  0  0  0  0  0  0
    8.2292   -3.8667    0.0000 C   0  0  0  0  0  0  0  0  0  0  0  0
    4.5417   -1.7417    0.0000 O   0  0  0  0  0  0  0  0  0  0  0  0
    7.6250   -1.3167    0.0000 O   0  0  0  0  0  0  0  0  0  0  0  0
    2.6250   -2.8125    0.0000 C   0  0  0  0  0  0  0  0  0  0  0  0
    5.8042   -1.7625    0.0000 C   0  0  0  0  0  0  0  0  0  0  0  0
    9.4042   -1.6417    0.0000 C   0  0  0  0  0  0  0  0  0  0  0  0
    6.3917   -1.4000    0.0000 S   0  0  0  0  0  0  0  0  0  0  0  0
    6.4250   -3.5167    0.0000 O   0  0  0  0  0  0  0  0  0  0  0  0
    6.3917   -0.7042    0.0000 C   0  0  0  0  0  0  0  0  0  0  0  0
    1.9917   -2.4542    0.0000 O   0  0  0  0  0  0  0  0  0  0  0  0
    3.8917   -3.5417    0.0000 C   0  0  0  0  0  0  0  0  0  0  0  0
    3.2542   -1.7625    0.0000 C   0  0  0  0  0  0  0  0  0  0  0  0
    3.2542   -3.9250    0.0000 C   0  0  0  0  0  0  0  0  0  0  0  0
    2.6250   -3.5417    0.0000 C   0  0  0  0  0  0  0  0  0  0  0  0
    9.4625   -3.8417    0.0000 C   0  0  0  0  0  0  0  0  0  0  0  0
    8.2292   -4.5750    0.0000 C   0  0  0  0  0  0  0  0  0  0  0  0
    9.7542   -2.2542    0.0000 C   0  0  0  0  0  0  0  0  0  0  0  0
   10.0167   -1.3167    0.0000 C   0  0  0  0  0  0  0  0  0  0  0  0
    9.0500   -2.2542    0.0000 C   0  0  0  0  0  0  0  0  0  0  0  0
    5.8000   -0.3417    0.0000 C   0  0  0  0  0  0  0  0  0  0  0  0
    6.9667   -0.3417    0.0000 C   0  0  0  0  0  0  0  0  0  0  0  0
    9.4625   -4.5750    0.0000 C   0  0  0  0  0  0  0  0  0  0  0  0
    8.8500   -4.9292    0.0000 C   0  0  0  0  0  0  0  0  0  0  0  0
    6.9667    0.3208    0.0000 C   0  0  0  0  0  0  0  0  0  0  0  0
    5.8000    0.3208    0.0000 C   0  0  0  0  0  0  0  0  0  0  0  0
    6.3917    0.6750    0.0000 C   0  0  0  0  0  0  0  0  0  0  0  0
  2  1  1  0
  3  5  1  0
  2  4  1  0
  5 11  1  0
  6  3  1  0
  7  2  1  0
  8  1  1  0
  9  6  2  0
 10  1  1  0
 11 13  1  0
 12  4  1  0
 13  8  1  0
 14 15  1  0
 15 10  1  0
 16  3  2  0
 17  4  2  0
 18  9  1  0
 11 19  1  0
 20 12  1  0
 21 19  1  0
 13 22  1  0
 23 21  1  0
 24 18  1  0
 25  6  1  0
 26  9  1  0
 27 25  2  0
 28 18  2  0
 29 14  1  0
 30 15  1  0
 31 20  1  0
 32 20  1  0
 33 20  1  0
 34 23  2  0
 35 23  1  0
 36 37  1  0
 37 30  1  0
 38 35  2  0
 39 34  1  0
 40 39  2  0
 14  7  1  0
 36 29  1  0
 27 28  1  0
 40 38  1  0
M  END
>  <Classification>  (178) 
0

>  <pchembl>  (178) 
4.93

>  <InChI_steorem>  (178) 
InChI=1S/C32H45N3O4S/c1-21-25(15-10-16-28(21)36)30(38)33-26(20-40-24-13-6-5-7-14-24)29(37)19-35-18-23-12-9-8-11-22(23)17-27(35)31(39)34-32(2,3)4/h5-7,10,13-16,22-23,26-27,29,36-37H,8-9,11-12,17-20H2,1-4H3,(H,33,38)(H,34,39)

>  <source>  (178) 
ChEMBL25

>  <source_id>  (178) 
25

>  <optional_reference>  (178) 
10.1093/toxsci/kfq269

>  <optional_origin>  (178) 
None

>  <target>  (178) 
BSEP

$$$$

     RDKit          2D

 18 19  0  0  0  0  0  0  0  0999 V2000
   -1.2958    0.8083    0.0000 C   0  0  0  0  0  0  0  0  0  0  0  0
   -2.1458    1.7000    0.0000 C   0  0  0  0  0  0  0  0  0  0  0  0
   -3.3333    1.4208    0.0000 C   0  0  0  0  0  0  0  0  0  0  0  0
   -0.0875    1.0875    0.0000 C   0  0  0  0  0  0  0  0  0  0  0  0
    0.7417    0.2083    0.0000 N   0  0  0  0  0  0  0  0  0  0  0  0
   -3.6958    0.2500    0.0000 C   0  0  0  0  0  0  0  0  0  0  0  0
   -1.6458   -0.3542    0.0000 C   0  0  0  0  0  0  0  0  0  0  0  0
   -2.8458   -0.6417    0.0000 C   0  0  0  0  0  0  0  0  0  0  0  0
    1.9417    0.4833    0.0000 C   0  0  0  0  0  0  0  0  0  0  0  0
   -1.7833    2.8833    0.0000 N   0  0  0  0  0  0  0  0  0  0  0  0
   -4.1875    2.3125    0.0000 Br  0  0  0  0  0  0  0  0  0  0  0  0
   -3.2000   -1.8292    0.0000 Br  0  0  0  0  0  0  0  0  0  0  0  0
    0.3917   -0.9667    0.0000 C   0  0  0  0  0  0  0  0  0  0  0  0
    2.2917    1.6583    0.0000 C   0  0  0  0  0  0  0  0  0  0  0  0
    2.7917   -0.4042    0.0000 C   0  0  0  0  0  0  0  0  0  0  0  0
    3.4917    1.9458    0.0000 C   0  0  0  0  0  0  0  0  0  0  0  0
    3.9792   -0.1167    0.0000 C   0  0  0  0  0  0  0  0  0  0  0  0
    4.3417    1.0500    0.0000 C   0  0  0  0  0  0  0  0  0  0  0  0
  2  1  2  0
  3  2  1  0
  4  1  1  0
  5  4  1  0
  6  8  1  0
  7  1  1  0
  8  7  2  0
  9  5  1  0
 10  2  1  0
 11  3  1  0
 12  8  1  0
 13  5  1  0
 14  9  1  0
 15  9  1  0
 16 14  1  0
 17 15  1  0
 18 16  1  0
  3  6  2  0
 17 18  1  0
M  END
>  <Classification>  (179) 
0

>  <pchembl>  (179) 
4.69

>  <InChI_steorem>  (179) 
InChI=1S/C14H20Br2N2/c1-18(12-5-3-2-4-6-12)9-10-7-11(15)8-13(16)14(10)17/h7-8,12H,2-6,9,17H2,1H3

>  <source>  (179) 
ChEMBL25

>  <source_id>  (179) 
25

>  <optional_reference>  (179) 
10.1124/dmd.112.047068

>  <optional_origin>  (179) 
None

>  <target>  (179) 
BSEP

$$$$

     RDKit          2D

 20 21  0  0  0  0  0  0  0  0999 V2000
    5.0875   -4.6042    0.0000 C   0  0  0  0  0  0  0  0  0  0  0  0
    5.7167   -4.9750    0.0000 N   0  0  0  0  0  0  0  0  0  0  0  0
    4.4667   -4.9750    0.0000 C   0  0  0  0  0  0  0  0  0  0  0  0
    4.4667   -5.6875    0.0000 C   0  0  0  0  0  0  0  0  0  0  0  0
    5.7167   -5.6875    0.0000 C   0  0  0  0  0  0  0  0  0  0  0  0
    5.0875   -6.0542    0.0000 C   0  0  0  0  0  0  0  0  0  0  0  0
    5.0875   -3.8875    0.0000 O   0  0  0  0  0  0  0  0  0  0  0  0
    6.4292   -3.3042    0.0000 N   0  0  0  0  0  0  0  0  0  0  0  0
    5.0917   -3.4292    0.0000 C   0  0  0  0  0  0  0  0  0  0  0  0
    3.8292   -6.0542    0.0000 C   0  0  0  0  0  0  0  0  0  0  0  0
    3.8292   -4.6042    0.0000 C   0  0  0  0  0  0  0  0  0  0  0  0
    5.7500   -3.1292    0.0000 C   0  0  0  0  0  0  0  0  0  0  0  0
    6.3500   -6.0417    0.0000 C   0  0  0  0  0  0  0  0  0  0  0  0
    6.6417   -3.9917    0.0000 C   0  0  0  0  0  0  0  0  0  0  0  0
    6.9417   -2.7917    0.0000 C   0  0  0  0  0  0  0  0  0  0  0  0
    6.3542   -6.7667    0.0000 C   0  0  0  0  0  0  0  0  0  0  0  0
    5.7292   -7.1375    0.0000 C   0  0  0  0  0  0  0  0  0  0  0  0
    3.2042   -5.6875    0.0000 C   0  0  0  0  0  0  0  0  0  0  0  0
    3.2042   -4.9750    0.0000 C   0  0  0  0  0  0  0  0  0  0  0  0
    5.7417   -7.8542    0.0000 C   0  0  0  0  0  0  0  0  0  0  0  0
  2  1  2  0
  3  1  1  0
  4  3  2  0
  5  2  1  0
  6  4  1  0
  7  1  1  0
  8 12  1  0
  9  7  1  0
 10  4  1  0
 11  3  1  0
 12  9  1  0
 13  5  1  0
 14  8  1  0
 15  8  1  0
 16 13  1  0
 17 16  1  0
 18 19  1  0
 19 11  2  0
 20 17  1  0
  5  6  2  0
 10 18  2  0
M  END
>  <Classification>  (180) 
0

>  <pchembl>  (180) 
4.16

>  <InChI_steorem>  (180) 
InChI=1S/C17H24N2O/c1-4-5-9-15-13-14-8-6-7-10-16(14)17(18-15)20-12-11-19(2)3/h6-8,10,13H,4-5,9,11-12H2,1-3H3

>  <source>  (180) 
ChEMBL25

>  <source_id>  (180) 
25

>  <optional_reference>  (180) 
10.1124/dmd.112.047068

>  <optional_origin>  (180) 
None

>  <target>  (180) 
BSEP

$$$$

     RDKit          2D

 22 24  0  0  0  0  0  0  0  0999 V2000
    4.1042   -3.9542    0.0000 N   0  0  0  0  0  0  0  0  0  0  0  0
    3.4625   -3.6417    0.0000 C   0  0  0  0  0  0  0  0  0  0  0  0
    4.7417   -3.6542    0.0000 C   0  0  0  0  0  0  0  0  0  0  0  0
    2.9292   -4.1250    0.0000 C   0  0  0  0  0  0  0  0  0  0  0  0
    3.3125   -2.9500    0.0000 C   0  0  0  0  0  0  0  0  0  0  0  0
    4.9167   -2.9625    0.0000 C   0  0  0  0  0  0  0  0  0  0  0  0
    3.7500   -2.3917    0.0000 C   0  0  0  0  0  0  0  0  0  0  0  0
    4.4625   -2.3917    0.0000 C   0  0  0  0  0  0  0  0  0  0  0  0
    4.0917   -4.6542    0.0000 C   0  0  0  0  0  0  0  0  0  0  0  0
    2.6292   -2.7292    0.0000 C   0  0  0  0  0  0  0  0  0  0  0  0
    2.2542   -3.9125    0.0000 C   0  0  0  0  0  0  0  0  0  0  0  0
    3.4792   -5.0042    0.0000 C   0  0  0  0  0  0  0  0  0  0  0  0
    4.0917   -6.0542    0.0000 N   0  0  0  0  0  0  0  0  0  0  0  0
    2.1000   -3.2167    0.0000 C   0  0  0  0  0  0  0  0  0  0  0  0
    1.7417   -4.3792    0.0000 Cl  0  0  0  0  0  0  0  0  0  0  0  0
    5.2542   -4.1417    0.0000 C   0  0  0  0  0  0  0  0  0  0  0  0
    3.4792   -5.7042    0.0000 C   0  0  0  0  0  0  0  0  0  0  0  0
    5.6042   -2.7542    0.0000 C   0  0  0  0  0  0  0  0  0  0  0  0
    4.0917   -6.7542    0.0000 C   0  0  0  0  0  0  0  0  0  0  0  0
    4.7000   -5.7042    0.0000 C   0  0  0  0  0  0  0  0  0  0  0  0
    5.9375   -3.9542    0.0000 C   0  0  0  0  0  0  0  0  0  0  0  0
    6.1125   -3.2667    0.0000 C   0  0  0  0  0  0  0  0  0  0  0  0
  2  1  1  0
  3  1  1  0
  4  2  2  0
  5  2  1  0
  6  3  2  0
  7  5  1  0
  8  6  1  0
  9  1  1  0
 10  5  2  0
 11  4  1  0
 12  9  1  0
 13 17  1  0
 14 10  1  0
 15 11  1  0
 16  3  1  0
 17 12  1  0
 18  6  1  0
 19 13  1  0
 20 13  1  0
 21 16  2  0
 22 21  1  0
  8  7  1  0
 22 18  2  0
 14 11  2  0
M  END
>  <Classification>  (181) 
0

>  <pchembl>  (181) 
4.43

>  <InChI_steorem>  (181) 
InChI=1S/C19H23ClN2/c1-21(2)12-5-13-22-18-7-4-3-6-15(18)8-9-16-10-11-17(20)14-19(16)22/h3-4,6-7,10-11,14H,5,8-9,12-13H2,1-2H3

>  <source>  (181) 
ChEMBL25

>  <source_id>  (181) 
25

>  <optional_reference>  (181) 
10.1124/dmd.112.047068

>  <optional_origin>  (181) 
None

>  <target>  (181) 
BSEP

$$$$

     RDKit          2D

 29 32  0  0  0  0  0  0  0  0999 V2000
    0.1542    1.2083    0.0000 N   0  0  0  0  0  0  0  0  0  0  0  0
    0.4000    0.5625    0.0000 C   0  0  0  0  0  0  0  0  0  0  0  0
   -0.4958    0.9708    0.0000 C   0  0  0  0  0  0  0  0  0  0  0  0
   -0.2500    0.3333    0.0000 C   0  0  0  0  0  0  0  0  0  0  0  0
   -2.1875   -0.2292    0.0000 C   0  0  0  0  0  0  0  0  0  0  0  0
   -2.8833   -0.1167    0.0000 C   0  0  0  0  0  0  0  0  0  0  0  0
    0.7042    1.6500    0.0000 C   0  0  0  0  0  0  0  0  0  0  0  0
    1.0917    0.6125    0.0000 S   0  0  0  0  0  0  0  0  0  0  0  0
   -1.7000    0.2583    0.0000 C   0  0  0  0  0  0  0  0  0  0  0  0
   -3.1958   -0.7167    0.0000 N   0  0  0  0  0  0  0  0  0  0  0  0
    1.2792    1.2583    0.0000 C   0  0  0  0  0  0  0  0  0  0  0  0
   -1.1333    0.2583    0.0000 N   0  0  0  0  0  0  0  0  0  0  0  0
   -3.2000    0.4500    0.0000 C   0  0  0  0  0  0  0  0  0  0  0  0
   -2.7083   -1.2000    0.0000 O   0  0  0  0  0  0  0  0  0  0  0  0
   -2.0875   -0.9125    0.0000 C   0  0  0  0  0  0  0  0  0  0  0  0
    1.1375    2.5083    0.0000 C   0  0  0  0  0  0  0  0  0  0  0  0
   -1.0833    1.2583    0.0000 O   0  0  0  0  0  0  0  0  0  0  0  0
   -1.9958    0.7208    0.0000 O   0  0  0  0  0  0  0  0  0  0  0  0
   -3.9458    0.4625    0.0000 C   0  0  0  0  0  0  0  0  0  0  0  0
    1.7917    2.4458    0.0000 O   0  0  0  0  0  0  0  0  0  0  0  0
    0.8375    3.1250    0.0000 O   0  0  0  0  0  0  0  0  0  0  0  0
   -4.2583   -0.1417    0.0000 Cl  0  0  0  0  0  0  0  0  0  0  0  0
    1.9500    1.0833    0.0000 C   0  0  0  0  0  0  0  0  0  0  0  0
    1.7000    1.8083    0.0000 C   0  0  0  0  0  0  0  0  0  0  0  0
   -2.8500    1.0208    0.0000 C   0  0  0  0  0  0  0  0  0  0  0  0
   -1.4958   -1.2167    0.0000 C   0  0  0  0  0  0  0  0  0  0  0  0
   -4.2250    1.0458    0.0000 C   0  0  0  0  0  0  0  0  0  0  0  0
   -3.2000    1.6083    0.0000 C   0  0  0  0  0  0  0  0  0  0  0  0
   -3.8833    1.6208    0.0000 C   0  0  0  0  0  0  0  0  0  0  0  0
  2  1  1  0
  3  1  1  0
  4  3  1  0
  5  9  1  0
  6  5  1  0
  7  1  1  0
  8  2  1  0
  9 12  1  0
 10  6  2  0
 11  7  1  0
  4 12  1  0
 13  6  1  0
 14 15  1  0
 15  5  2  0
  7 16  1  0
 17  3  2  0
 18  9  2  0
 19 13  2  0
 20 16  1  0
 21 16  2  0
 22 19  1  0
 23 11  1  0
 24 11  1  0
 25 13  1  0
 26 15  1  0
 27 19  1  0
 28 25  2  0
 29 28  1  0
  8 11  1  0
  2  4  1  0
 10 14  1  0
 27 29  2  0
M  END
>  <Classification>  (182) 
0

>  <pchembl>  (182) 
4.38

>  <InChI_steorem>  (182) 
InChI=1S/C19H18ClN3O5S/c1-8-11(12(22-28-8)9-6-4-5-7-10(9)20)15(24)21-13-16(25)23-14(18(26)27)19(2,3)29-17(13)23/h4-7,13-14,17H,1-3H3,(H,21,24)(H,26,27)

>  <source>  (182) 
ChEMBL25

>  <source_id>  (182) 
25

>  <optional_reference>  (182) 
10.1124/dmd.112.047068

>  <optional_origin>  (182) 
None

>  <target>  (182) 
BSEP

$$$$

     RDKit          2D

 33 36  0  0  0  0  0  0  0  0999 V2000
    2.1000   -0.0042    0.0000 C   0  0  0  0  0  0  0  0  0  0  0  0
    2.1000    0.7000    0.0000 C   0  0  0  0  0  0  0  0  0  0  0  0
   -1.5375   -0.0042    0.0000 S   0  0  0  0  0  0  0  0  0  0  0  0
    1.4917   -0.3667    0.0000 N   0  0  0  0  0  0  0  0  0  0  0  0
    0.8792   -0.0042    0.0000 C   0  0  0  0  0  0  0  0  0  0  0  0
    2.8042    0.9083    0.0000 N   0  0  0  0  0  0  0  0  0  0  0  0
    1.4917    1.0625    0.0000 C   0  0  0  0  0  0  0  0  0  0  0  0
    0.8792    0.6833    0.0000 N   0  0  0  0  0  0  0  0  0  0  0  0
    3.2042    0.3458    0.0000 N   0  0  0  0  0  0  0  0  0  0  0  0
    2.8042   -0.2417    0.0000 C   0  0  0  0  0  0  0  0  0  0  0  0
    0.2875   -0.3750    0.0000 C   0  0  0  0  0  0  0  0  0  0  0  0
   -2.1583   -0.3750    0.0000 N   0  0  0  0  0  0  0  0  0  0  0  0
   -0.9333   -0.3750    0.0000 C   0  0  0  0  0  0  0  0  0  0  0  0
   -0.3208   -0.0333    0.0000 C   0  0  0  0  0  0  0  0  0  0  0  0
   -1.1875    0.6083    0.0000 O   0  0  0  0  0  0  0  0  0  0  0  0
   -1.8958    0.6083    0.0000 O   0  0  0  0  0  0  0  0  0  0  0  0
   -3.3958   -1.0917    0.0000 N   0  0  0  0  0  0  0  0  0  0  0  0
   -2.7833   -0.0042    0.0000 C   0  0  0  0  0  0  0  0  0  0  0  0
   -2.1583   -1.0917    0.0000 C   0  0  0  0  0  0  0  0  0  0  0  0
    0.2875   -1.1125    0.0000 C   0  0  0  0  0  0  0  0  0  0  0  0
    1.4917    1.7708    0.0000 O   0  0  0  0  0  0  0  0  0  0  0  0
   -0.9333   -1.1125    0.0000 C   0  0  0  0  0  0  0  0  0  0  0  0
   -0.3208   -1.4542    0.0000 C   0  0  0  0  0  0  0  0  0  0  0  0
   -3.3958   -0.3750    0.0000 C   0  0  0  0  0  0  0  0  0  0  0  0
   -2.7833   -1.4417    0.0000 C   0  0  0  0  0  0  0  0  0  0  0  0
    3.0750    1.5750    0.0000 C   0  0  0  0  0  0  0  0  0  0  0  0
    2.8042   -0.9500    0.0000 C   0  0  0  0  0  0  0  0  0  0  0  0
    0.8792   -1.4542    0.0000 O   0  0  0  0  0  0  0  0  0  0  0  0
   -3.9958   -1.4292    0.0000 C   0  0  0  0  0  0  0  0  0  0  0  0
    1.4958   -1.1000    0.0000 C   0  0  0  0  0  0  0  0  0  0  0  0
    3.4167   -1.3125    0.0000 C   0  0  0  0  0  0  0  0  0  0  0  0
    2.1125   -1.4500    0.0000 C   0  0  0  0  0  0  0  0  0  0  0  0
    4.0375   -0.9542    0.0000 C   0  0  0  0  0  0  0  0  0  0  0  0
  2  1  2  0
  3 13  1  0
  4  1  1  0
  5  4  2  0
  6  2  1  0
  7  2  1  0
  8  5  1  0
  9 10  2  0
 10  1  1  0
 11  5  1  0
 12  3  1  0
 13 14  2  0
 14 11  1  0
 15  3  2  0
 16  3  2  0
 17 25  1  0
 18 12  1  0
 19 12  1  0
 20 11  2  0
 21  7  2  0
 22 23  2  0
 23 20  1  0
 24 18  1  0
 25 19  1  0
 26  6  1  0
 27 10  1  0
 28 20  1  0
 29 17  1  0
 30 28  1  0
 31 27  1  0
 32 30  1  0
 33 31  1  0
  9  6  1  0
  8  7  1  0
 22 13  1  0
 17 24  1  0
M  END
>  <Classification>  (183) 
0

>  <pchembl>  (183) 
4.78

>  <InChI_steorem>  (183) 
InChI=1S/C22H30N6O4S/c1-5-7-17-19-20(27(4)25-17)22(29)24-21(23-19)16-14-15(8-9-18(16)32-6-2)33(30,31)28-12-10-26(3)11-13-28/h8-9,14H,5-7,10-13H2,1-4H3,(H,23,24,29)

>  <source>  (183) 
ChEMBL25

>  <source_id>  (183) 
25

>  <optional_reference>  (183) 
10.1124/dmd.112.047068

>  <optional_origin>  (183) 
None

>  <target>  (183) 
BSEP

$$$$

     RDKit          2D

 20 23  0  0  0  0  0  0  0  0999 V2000
    0.0292    0.1208    0.0000 N   0  0  0  0  0  0  0  0  0  0  0  0
    1.3375    0.1208    0.0000 C   0  0  0  0  0  0  0  0  0  0  0  0
   -0.7708    1.1375    0.0000 C   0  0  0  0  0  0  0  0  0  0  0  0
    2.1500    1.1375    0.0000 C   0  0  0  0  0  0  0  0  0  0  0  0
   -0.4833    2.4083    0.0000 C   0  0  0  0  0  0  0  0  0  0  0  0
    1.8542    2.4083    0.0000 C   0  0  0  0  0  0  0  0  0  0  0  0
   -0.6208   -1.0042    0.0000 C   0  0  0  0  0  0  0  0  0  0  0  0
    1.3292   -2.1375    0.0000 N   0  0  0  0  0  0  0  0  0  0  0  0
    0.6875    2.9833    0.0000 C   0  0  0  0  0  0  0  0  0  0  0  0
    1.9917   -1.0042    0.0000 C   0  0  0  0  0  0  0  0  0  0  0  0
    0.0375   -2.1375    0.0000 C   0  0  0  0  0  0  0  0  0  0  0  0
   -2.0208    0.7458    0.0000 C   0  0  0  0  0  0  0  0  0  0  0  0
    3.3917    0.7458    0.0000 C   0  0  0  0  0  0  0  0  0  0  0  0
    1.9792   -3.2917    0.0000 C   0  0  0  0  0  0  0  0  0  0  0  0
    2.8125    3.2958    0.0000 C   0  0  0  0  0  0  0  0  0  0  0  0
   -1.4375    3.2958    0.0000 C   0  0  0  0  0  0  0  0  0  0  0  0
    4.3417    1.6375    0.0000 C   0  0  0  0  0  0  0  0  0  0  0  0
   -2.9625    1.6375    0.0000 C   0  0  0  0  0  0  0  0  0  0  0  0
   -2.6708    2.9083    0.0000 C   0  0  0  0  0  0  0  0  0  0  0  0
    4.0500    2.9083    0.0000 C   0  0  0  0  0  0  0  0  0  0  0  0
  2  1  1  0
  3  1  1  0
  4  2  1  0
  5  3  2  0
  6  4  2  0
  7  1  1  0
  8 11  1  0
  9  5  1  0
 10  2  1  0
 11  7  1  0
 12  3  1  0
 13  4  1  0
 14  8  1  0
 15  6  1  0
 16  5  1  0
 17 13  2  0
 18 12  2  0
 19 18  1  0
 20 17  1  0
 10  8  1  0
  6  9  1  0
 16 19  2  0
 15 20  2  0
M  END
>  <Classification>  (184) 
0

>  <pchembl>  (184) 
4.33

>  <InChI_steorem>  (184) 
InChI=1S/C18H20N2/c1-19-10-11-20-17-9-5-3-7-15(17)12-14-6-2-4-8-16(14)18(20)13-19/h2-9,18H,10-13H2,1H3

>  <source>  (184) 
ChEMBL25

>  <source_id>  (184) 
25

>  <optional_reference>  (184) 
10.1124/dmd.112.047068

>  <optional_origin>  (184) 
None

>  <target>  (184) 
BSEP

$$$$

     RDKit          2D

 22 23  0  0  0  0  0  0  0  0999 V2000
   -0.8833   -0.2292    0.0000 N   0  0  0  0  0  0  0  0  0  0  0  0
   -0.3583    0.0833    0.0000 C   0  0  0  0  0  0  0  0  0  0  0  0
    0.6875    0.6958    0.0000 C   0  0  0  0  0  0  0  0  0  0  0  0
    0.1667    0.9958    0.0000 N   0  0  0  0  0  0  0  0  0  0  0  0
   -0.3583    0.6958    0.0000 C   0  0  0  0  0  0  0  0  0  0  0  0
   -1.4208    0.0708    0.0000 C   0  0  0  0  0  0  0  0  0  0  0  0
   -1.9333   -0.2542    0.0000 N   0  0  0  0  0  0  0  0  0  0  0  0
    0.6875    0.2083    0.0000 O   0  0  0  0  0  0  0  0  0  0  0  0
   -0.8958    0.9833    0.0000 C   0  0  0  0  0  0  0  0  0  0  0  0
    0.1792   -0.2125    0.0000 N   0  0  0  0  0  0  0  0  0  0  0  0
   -1.4208    0.6833    0.0000 C   0  0  0  0  0  0  0  0  0  0  0  0
    1.2250    1.0083    0.0000 O   0  0  0  0  0  0  0  0  0  0  0  0
   -2.4583    0.0375    0.0000 C   0  0  0  0  0  0  0  0  0  0  0  0
   -3.9833   -0.8625    0.0000 C   0  0  0  0  0  0  0  0  0  0  0  0
   -2.9708   -0.2667    0.0000 C   0  0  0  0  0  0  0  0  0  0  0  0
   -4.4958   -1.1417    0.0000 F   0  0  0  0  0  0  0  0  0  0  0  0
   -3.9833   -0.2667    0.0000 C   0  0  0  0  0  0  0  0  0  0  0  0
   -3.4708   -1.1667    0.0000 C   0  0  0  0  0  0  0  0  0  0  0  0
   -3.4708    0.0208    0.0000 C   0  0  0  0  0  0  0  0  0  0  0  0
   -2.9708   -0.8625    0.0000 C   0  0  0  0  0  0  0  0  0  0  0  0
    1.7417    0.7000    0.0000 C   0  0  0  0  0  0  0  0  0  0  0  0
    2.2792    1.0000    0.0000 C   0  0  0  0  0  0  0  0  0  0  0  0
  2  1  2  0
  3  4  1  0
  4  5  1  0
  5  2  1  0
  6  1  1  0
  7  6  1  0
  8  3  2  0
  9 11  1  0
 10  2  1  0
 11  6  2  0
 12  3  1  0
 13  7  1  0
 14 18  2  0
 15 13  1  0
 16 14  1  0
 17 19  2  0
 18 20  1  0
 19 15  1  0
 20 15  2  0
 21 12  1  0
 22 21  1  0
  5  9  2  0
 17 14  1  0
M  END
>  <Classification>  (185) 
0

>  <pchembl>  (185) 
4.45

>  <InChI_steorem>  (185) 
InChI=1S/C15H17FN4O2/c1-2-22-15(21)19-12-7-8-13(20-14(12)17)18-9-10-3-5-11(16)6-4-10/h3-8H,2,9H2,1H3,(H,19,21)(H3,17,18,20)

>  <source>  (185) 
ChEMBL25

>  <source_id>  (185) 
25

>  <optional_reference>  (185) 
10.1093/toxsci/kfq269

>  <optional_origin>  (185) 
None

>  <target>  (185) 
BSEP

$$$$

     RDKit          2D

 35 37  0  0  0  0  0  0  0  0999 V2000
    3.8167   -3.9417    0.0000 C   0  0  0  0  0  0  0  0  0  0  0  0
    2.5875   -3.9542    0.0000 C   0  0  0  0  0  0  0  0  0  0  0  0
    3.2042   -4.3042    0.0000 C   0  0  0  0  0  0  0  0  0  0  0  0
    3.8167   -3.2292    0.0000 C   0  0  0  0  0  0  0  0  0  0  0  0
    2.5875   -3.2292    0.0000 C   0  0  0  0  0  0  0  0  0  0  0  0
    3.2042   -2.8667    0.0000 N   0  0  0  0  0  0  0  0  0  0  0  0
    4.4667   -6.4417    0.0000 N   0  0  0  0  0  0  0  0  0  0  0  0
    3.2042   -5.0125    0.0000 C   0  0  0  0  0  0  0  0  0  0  0  0
    4.4667   -4.3042    0.0000 C   0  0  0  0  0  0  0  0  0  0  0  0
    1.9792   -4.3167    0.0000 C   0  0  0  0  0  0  0  0  0  0  0  0
    3.8042   -6.0750    0.0000 C   0  0  0  0  0  0  0  0  0  0  0  0
    3.8167   -5.3542    0.0000 C   0  0  0  0  0  0  0  0  0  0  0  0
    4.4542   -7.1667    0.0000 O   0  0  0  0  0  0  0  0  0  0  0  0
    4.9542   -6.1667    0.0000 O   0  0  0  0  0  0  0  0  0  0  0  0
    1.9667   -5.0292    0.0000 O   0  0  0  0  0  0  0  0  0  0  0  0
    4.4542   -5.0125    0.0000 O   0  0  0  0  0  0  0  0  0  0  0  0
    6.9250   -4.2375    0.0000 N   0  0  0  0  0  0  0  0  0  0  0  0
    5.0542   -3.9292    0.0000 O   0  0  0  0  0  0  0  0  0  0  0  0
    7.5417   -3.8542    0.0000 C   0  0  0  0  0  0  0  0  0  0  0  0
    1.3625   -3.9667    0.0000 O   0  0  0  0  0  0  0  0  0  0  0  0
    1.9500   -2.8542    0.0000 C   0  0  0  0  0  0  0  0  0  0  0  0
    4.4375   -2.8542    0.0000 C   0  0  0  0  0  0  0  0  0  0  0  0
    2.5875   -5.3625    0.0000 C   0  0  0  0  0  0  0  0  0  0  0  0
    8.1625   -4.1875    0.0000 C   0  0  0  0  0  0  0  0  0  0  0  0
    5.6917   -4.2667    0.0000 C   0  0  0  0  0  0  0  0  0  0  0  0
    3.2042   -6.4375    0.0000 C   0  0  0  0  0  0  0  0  0  0  0  0
    2.5875   -6.0750    0.0000 C   0  0  0  0  0  0  0  0  0  0  0  0
    6.3042   -3.9000    0.0000 C   0  0  0  0  0  0  0  0  0  0  0  0
    6.9250   -4.9375    0.0000 C   0  0  0  0  0  0  0  0  0  0  0  0
    0.7542   -4.3042    0.0000 C   0  0  0  0  0  0  0  0  0  0  0  0
    8.1750   -4.9042    0.0000 C   0  0  0  0  0  0  0  0  0  0  0  0
    8.7667   -3.8250    0.0000 C   0  0  0  0  0  0  0  0  0  0  0  0
    8.7792   -5.2542    0.0000 C   0  0  0  0  0  0  0  0  0  0  0  0
    9.3792   -4.1625    0.0000 C   0  0  0  0  0  0  0  0  0  0  0  0
    9.3917   -4.8667    0.0000 C   0  0  0  0  0  0  0  0  0  0  0  0
  2  3  1  0
  3  1  1  0
  4  1  2  0
  5  6  1  0
  6  4  1  0
  7 11  1  0
  8  3  1  0
  9  1  1  0
 10  2  1  0
 11 12  2  0
 12  8  1  0
 13  7  1  0
 14  7  2  0
 15 10  2  0
 16  9  2  0
 17 28  1  0
 18  9  1  0
 19 17  1  0
 20 10  1  0
 21  5  1  0
 22  4  1  0
 23  8  2  0
 24 19  1  0
 25 18  1  0
 26 27  2  0
 27 23  1  0
 28 25  1  0
 29 17  1  0
 30 20  1  0
 31 24  2  0
 32 24  1  0
 33 31  1  0
 34 32  2  0
 35 33  2  0
  5  2  2  0
 26 11  1  0
 35 34  1  0
M  CHG  2   7   1  13  -1
M  END
>  <Classification>  (186) 
1

>  <pchembl>  (186) 
5.1

>  <InChI_steorem>  (186) 
InChI=1S/C26H29N3O6/c1-17-22(25(30)34-4)24(20-11-8-12-21(15-20)29(32)33)23(18(2)27-17)26(31)35-14-13-28(3)16-19-9-6-5-7-10-19/h5-12,15,24,27H,13-14,16H2,1-4H3

>  <source>  (186) 
ChEMBL25

>  <source_id>  (186) 
25

>  <optional_reference>  (186) 
10.1093/toxsci/kfq269

>  <optional_origin>  (186) 
None

>  <target>  (186) 
BSEP

$$$$

     RDKit          2D

 17 19  0  0  0  0  0  0  0  0999 V2000
    4.7167   -5.1667    0.0000 C   0  0  0  0  0  0  0  0  0  0  0  0
    4.7167   -4.4625    0.0000 C   0  0  0  0  0  0  0  0  0  0  0  0
    3.4792   -5.1792    0.0000 N   0  0  0  0  0  0  0  0  0  0  0  0
    2.2417   -5.2125    0.0000 C   0  0  0  0  0  0  0  0  0  0  0  0
    5.3792   -4.2417    0.0000 S   0  0  0  0  0  0  0  0  0  0  0  0
    4.1042   -5.5292    0.0000 C   0  0  0  0  0  0  0  0  0  0  0  0
    2.8667   -5.5500    0.0000 C   0  0  0  0  0  0  0  0  0  0  0  0
    5.7792   -4.8042    0.0000 C   0  0  0  0  0  0  0  0  0  0  0  0
    4.1042   -4.1000    0.0000 C   0  0  0  0  0  0  0  0  0  0  0  0
    5.3792   -5.3875    0.0000 C   0  0  0  0  0  0  0  0  0  0  0  0
    2.2167   -4.5042    0.0000 C   0  0  0  0  0  0  0  0  0  0  0  0
    3.4792   -4.4417    0.0000 C   0  0  0  0  0  0  0  0  0  0  0  0
    2.8417   -4.1250    0.0000 Cl  0  0  0  0  0  0  0  0  0  0  0  0
    1.6500   -5.5875    0.0000 C   0  0  0  0  0  0  0  0  0  0  0  0
    1.5917   -4.1750    0.0000 C   0  0  0  0  0  0  0  0  0  0  0  0
    1.0167   -5.2625    0.0000 C   0  0  0  0  0  0  0  0  0  0  0  0
    0.9917   -4.5542    0.0000 C   0  0  0  0  0  0  0  0  0  0  0  0
  2  1  2  0
  3  6  1  0
  4  7  1  0
  5  2  1  0
  6  1  1  0
  7  3  1  0
  8 10  2  0
  9  2  1  0
 10  1  1  0
 11  4  2  0
 12  3  1  0
 13 11  1  0
 14  4  1  0
 15 11  1  0
 16 14  2  0
 17 16  1  0
  8  5  1  0
 12  9  1  0
 17 15  2  0
M  END
>  <Classification>  (187) 
0

>  <pchembl>  (187) 
4.13

>  <InChI_steorem>  (187) 
InChI=1S/C14H14ClNS/c15-13-4-2-1-3-11(13)9-16-7-5-14-12(10-16)6-8-17-14/h1-4,6,8H,5,7,9-10H2

>  <source>  (187) 
ChEMBL25

>  <source_id>  (187) 
25

>  <optional_reference>  (187) 
10.1124/dmd.111.040758

>  <optional_origin>  (187) 
None

>  <target>  (187) 
BSEP

$$$$

     RDKit          2D

 26 29  0  0  0  0  0  0  0  0999 V2000
    2.2167   -3.4292    0.0000 N   0  0  0  0  0  0  0  0  0  0  0  0
    2.8875   -3.6417    0.0000 C   0  0  0  0  0  0  0  0  0  0  0  0
    2.2167   -2.7167    0.0000 C   0  0  0  0  0  0  0  0  0  0  0  0
    2.8875   -2.5042    0.0000 N   0  0  0  0  0  0  0  0  0  0  0  0
    3.2792   -3.0625    0.0000 N   0  0  0  0  0  0  0  0  0  0  0  0
    6.1500   -5.4792    0.0000 N   0  0  0  0  0  0  0  0  0  0  0  0
    6.5000   -6.0917    0.0000 C   0  0  0  0  0  0  0  0  0  0  0  0
    1.6042   -3.7792    0.0000 C   0  0  0  0  0  0  0  0  0  0  0  0
    5.4167   -4.2542    0.0000 N   0  0  0  0  0  0  0  0  0  0  0  0
    3.1125   -4.3042    0.0000 O   0  0  0  0  0  0  0  0  0  0  0  0
    7.2167   -6.0875    0.0000 C   0  0  0  0  0  0  0  0  0  0  0  0
    1.6042   -2.3625    0.0000 C   0  0  0  0  0  0  0  0  0  0  0  0
    5.4125   -5.4917    0.0000 C   0  0  0  0  0  0  0  0  0  0  0  0
    6.4917   -4.8625    0.0000 C   0  0  0  0  0  0  0  0  0  0  0  0
    0.9792   -3.4417    0.0000 C   0  0  0  0  0  0  0  0  0  0  0  0
    0.9792   -2.7042    0.0000 C   0  0  0  0  0  0  0  0  0  0  0  0
    4.0000   -3.0542    0.0000 C   0  0  0  0  0  0  0  0  0  0  0  0
    5.0667   -4.8667    0.0000 C   0  0  0  0  0  0  0  0  0  0  0  0
    6.1375   -4.2542    0.0000 C   0  0  0  0  0  0  0  0  0  0  0  0
    7.5667   -6.7000    0.0000 C   0  0  0  0  0  0  0  0  0  0  0  0
    4.3542   -3.6625    0.0000 C   0  0  0  0  0  0  0  0  0  0  0  0
    5.0667   -3.6500    0.0000 C   0  0  0  0  0  0  0  0  0  0  0  0
    8.2792   -6.6792    0.0000 Cl  0  0  0  0  0  0  0  0  0  0  0  0
    6.1500   -6.7042    0.0000 C   0  0  0  0  0  0  0  0  0  0  0  0
    6.4917   -7.3250    0.0000 C   0  0  0  0  0  0  0  0  0  0  0  0
    7.2250   -7.3167    0.0000 C   0  0  0  0  0  0  0  0  0  0  0  0
  2  1  1  0
  3  1  1  0
  4  3  2  0
  5  2  1  0
  6 14  1  0
  7  6  1  0
  8  1  1  0
  9 22  1  0
 10  2  2  0
 11  7  2  0
 12  3  1  0
 13 18  1  0
 14 19  1  0
 15  8  2  0
 16 15  1  0
 17  5  1  0
 18  9  1  0
 19  9  1  0
 20 11  1  0
 21 17  1  0
 22 21  1  0
 23 20  1  0
 24  7  1  0
 25 24  2  0
 26 25  1  0
  5  4  1  0
 16 12  2  0
  6 13  1  0
 26 20  2  0
M  END
>  <Classification>  (188) 
0

>  <pchembl>  (188) 
4.05

>  <InChI_steorem>  (188) 
InChI=1S/C19H22ClN5O/c20-16-5-3-6-17(15-16)23-13-11-22(12-14-23)8-4-10-25-19(26)24-9-2-1-7-18(24)21-25/h1-3,5-7,9,15H,4,8,10-14H2

>  <source>  (188) 
ChEMBL25

>  <source_id>  (188) 
25

>  <optional_reference>  (188) 
10.1002/hep.27206

>  <optional_origin>  (188) 
None

>  <target>  (188) 
BSEP

$$$$

     RDKit          2D

 28 31  0  0  0  0  0  0  0  0999 V2000
    3.1292   -5.0917    0.0000 N   0  0  0  0  0  0  0  0  0  0  0  0
    2.7792   -4.4792    0.0000 C   0  0  0  0  0  0  0  0  0  0  0  0
    2.7625   -5.7042    0.0000 C   0  0  0  0  0  0  0  0  0  0  0  0
    8.1417   -3.9292    0.0000 C   0  0  0  0  0  0  0  0  0  0  0  0
    7.4292   -3.9417    0.0000 N   0  0  0  0  0  0  0  0  0  0  0  0
    1.7000   -5.0917    0.0000 C   0  0  0  0  0  0  0  0  0  0  0  0
    2.0667   -4.4750    0.0000 C   0  0  0  0  0  0  0  0  0  0  0  0
    2.0500   -5.7125    0.0000 C   0  0  0  0  0  0  0  0  0  0  0  0
    6.0042   -3.9292    0.0000 N   0  0  0  0  0  0  0  0  0  0  0  0
    8.4917   -4.5625    0.0000 N   0  0  0  0  0  0  0  0  0  0  0  0
    8.5125   -3.3167    0.0000 N   0  0  0  0  0  0  0  0  0  0  0  0
    3.1625   -3.8625    0.0000 O   0  0  0  0  0  0  0  0  0  0  0  0
    3.1167   -6.3417    0.0000 O   0  0  0  0  0  0  0  0  0  0  0  0
    7.0792   -3.3167    0.0000 C   0  0  0  0  0  0  0  0  0  0  0  0
    7.0625   -4.5417    0.0000 C   0  0  0  0  0  0  0  0  0  0  0  0
    6.3667   -3.3042    0.0000 C   0  0  0  0  0  0  0  0  0  0  0  0
    6.3542   -4.5417    0.0000 C   0  0  0  0  0  0  0  0  0  0  0  0
    3.8417   -5.1042    0.0000 C   0  0  0  0  0  0  0  0  0  0  0  0
    9.5750   -3.9625    0.0000 C   0  0  0  0  0  0  0  0  0  0  0  0
    5.2792   -3.9417    0.0000 C   0  0  0  0  0  0  0  0  0  0  0  0
    9.2042   -4.5750    0.0000 C   0  0  0  0  0  0  0  0  0  0  0  0
    9.2167   -3.3417    0.0000 C   0  0  0  0  0  0  0  0  0  0  0  0
    1.2792   -4.5167    0.0000 C   0  0  0  0  0  0  0  0  0  0  0  0
    1.2750   -5.6542    0.0000 C   0  0  0  0  0  0  0  0  0  0  0  0
    4.2167   -4.5000    0.0000 C   0  0  0  0  0  0  0  0  0  0  0  0
    4.9167   -4.5000    0.0000 C   0  0  0  0  0  0  0  0  0  0  0  0
    0.6125   -4.7292    0.0000 C   0  0  0  0  0  0  0  0  0  0  0  0
    0.6125   -5.4250    0.0000 C   0  0  0  0  0  0  0  0  0  0  0  0
  2  1  1  0
  3  1  1  0
  4  5  1  0
  5 15  1  0
  6  8  1  0
  7  2  1  0
  8  3  1  0
  9 20  1  0
 10  4  2  0
 11  4  1  0
 12  2  2  0
 13  3  2  0
 14 16  1  0
 15 17  1  0
 16  9  1  0
 17  9  1  0
 18  1  1  0
 19 22  1  0
 20 26  1  0
 21 10  1  0
 22 11  2  0
 23  6  1  0
 24  6  1  0
 25 18  1  0
 26 25  1  0
 27 23  1  0
 28 24  1  0
  6  7  1  0
 28 27  1  0
  5 14  1  0
 19 21  2  0
M  END
>  <Classification>  (189) 
0

>  <pchembl>  (189) 
4.22

>  <InChI_steorem>  (189) 
InChI=1S/C21H31N5O2/c27-18-16-21(6-1-2-7-21)17-19(28)26(18)11-4-3-10-24-12-14-25(15-13-24)20-22-8-5-9-23-20/h5,8-9H,1-4,6-7,10-17H2

>  <source>  (189) 
ChEMBL25

>  <source_id>  (189) 
25

>  <optional_reference>  (189) 
10.1124/dmd.112.047068

>  <optional_origin>  (189) 
None

>  <target>  (189) 
BSEP

$$$$

     RDKit          2D

 31 33  0  0  0  0  0  0  0  0999 V2000
   -0.0097    0.7077    0.0000 C   0  0  0  0  0  0  0  0  0  0  0  0
    0.4799    1.3767    0.0000 C   0  0  0  0  0  0  0  0  0  0  0  0
   -0.0097   -0.1212    0.0000 C   0  0  0  0  0  0  0  0  0  0  0  0
   -0.0097    2.0457    0.0000 O   0  0  0  0  0  0  0  0  0  0  0  0
    0.6981   -0.5381    0.0000 C   0  0  0  0  0  0  0  0  0  0  0  0
   -0.7950    0.9550    0.0000 C   0  0  0  0  0  0  0  0  0  0  0  0
   -0.7950    1.7839    0.0000 C   0  0  0  0  0  0  0  0  0  0  0  0
    2.1136   -1.3719    0.0000 C   0  0  0  0  0  0  0  0  0  0  0  0
    1.3865   -1.7791    0.0000 C   0  0  0  0  0  0  0  0  0  0  0  0
    2.1136   -0.5430    0.0000 C   0  0  0  0  0  0  0  0  0  0  0  0
    0.6835   -1.3574    0.0000 C   0  0  0  0  0  0  0  0  0  0  0  0
    1.4107   -0.1309    0.0000 C   0  0  0  0  0  0  0  0  0  0  0  0
    4.9641   -1.4010    0.0000 N   0  0  0  0  0  0  0  0  0  0  0  0
   -0.7368   -0.5236    0.0000 O   0  0  0  0  0  0  0  0  0  0  0  0
    1.3865   -2.6032    0.0000 I   0  0  0  0  0  0  0  0  0  0  0  0
    2.8359   -0.1358    0.0000 I   0  0  0  0  0  0  0  0  0  0  0  0
    2.8214   -1.7937    0.0000 O   0  0  0  0  0  0  0  0  0  0  0  0
    1.2992    1.3816    0.0000 C   0  0  0  0  0  0  0  0  0  0  0  0
    4.2515   -1.8082    0.0000 C   0  0  0  0  0  0  0  0  0  0  0  0
    3.5389   -1.3865    0.0000 C   0  0  0  0  0  0  0  0  0  0  0  0
   -1.5076    0.5381    0.0000 C   0  0  0  0  0  0  0  0  0  0  0  0
   -1.5076    2.1911    0.0000 C   0  0  0  0  0  0  0  0  0  0  0  0
    5.6767   -1.8179    0.0000 C   0  0  0  0  0  0  0  0  0  0  0  0
    4.9738   -0.5721    0.0000 C   0  0  0  0  0  0  0  0  0  0  0  0
    1.7064    2.1039    0.0000 C   0  0  0  0  0  0  0  0  0  0  0  0
    2.5354    2.1039    0.0000 C   0  0  0  0  0  0  0  0  0  0  0  0
    6.3893   -1.4156    0.0000 C   0  0  0  0  0  0  0  0  0  0  0  0
    5.6913   -0.1745    0.0000 C   0  0  0  0  0  0  0  0  0  0  0  0
   -2.2202    0.9550    0.0000 C   0  0  0  0  0  0  0  0  0  0  0  0
   -2.2202    1.7743    0.0000 C   0  0  0  0  0  0  0  0  0  0  0  0
    2.9426    2.8214    0.0000 C   0  0  0  0  0  0  0  0  0  0  0  0
  2  1  2  0
  3  1  1  0
  4  2  1  0
  5  3  1  0
  6  1  1  0
  7  6  2  0
  8 10  2  0
  9 11  2  0
 10 12  1  0
 11  5  1  0
 12  5  2  0
 13 19  1  0
 14  3  2  0
 15  9  1  0
 16 10  1  0
 17  8  1  0
 18  2  1  0
 19 20  1  0
 20 17  1  0
 21  6  1  0
 22  7  1  0
 23 13  1  0
 24 13  1  0
 25 18  1  0
 26 25  1  0
 27 23  1  0
 28 24  1  0
 29 21  2  0
 30 29  1  0
 31 26  1  0
  7  4  1  0
 30 22  2  0
  8  9  1  0
M  END
>  <Classification>  (190) 
0

>  <pchembl>  (190) 
4.6

>  <InChI_steorem>  (190) 
InChI=1S/C25H29I2NO3/c1-4-7-11-22-23(18-10-8-9-12-21(18)31-22)24(29)17-15-19(26)25(20(27)16-17)30-14-13-28(5-2)6-3/h8-10,12,15-16H,4-7,11,13-14H2,1-3H3

>  <source>  (190) 
ChEMBL25

>  <source_id>  (190) 
25

>  <optional_reference>  (190) 
10.1093/toxsci/kfq269

>  <optional_origin>  (190) 
None

>  <target>  (190) 
BSEP

$$$$

     RDKit          2D

 20 22  0  0  0  0  0  0  0  0999 V2000
    3.9417   -5.7417    0.0000 C   0  0  0  0  0  0  0  0  0  0  0  0
    4.5542   -6.0917    0.0000 C   0  0  0  0  0  0  0  0  0  0  0  0
    4.5542   -6.7792    0.0000 C   0  0  0  0  0  0  0  0  0  0  0  0
    3.9417   -5.0375    0.0000 C   0  0  0  0  0  0  0  0  0  0  0  0
    5.1667   -7.1417    0.0000 C   0  0  0  0  0  0  0  0  0  0  0  0
    5.1667   -7.8375    0.0000 C   0  0  0  0  0  0  0  0  0  0  0  0
    5.1750   -5.7417    0.0000 C   0  0  0  0  0  0  0  0  0  0  0  0
    4.5542   -4.6917    0.0000 C   0  0  0  0  0  0  0  0  0  0  0  0
    4.5417   -8.1917    0.0000 C   0  0  0  0  0  0  0  0  0  0  0  0
    3.9750   -7.1250    0.0000 C   0  0  0  0  0  0  0  0  0  0  0  0
    5.1750   -5.0375    0.0000 C   0  0  0  0  0  0  0  0  0  0  0  0
    3.9750   -7.8125    0.0000 C   0  0  0  0  0  0  0  0  0  0  0  0
    4.5542   -3.9167    0.0000 N   0  0  0  0  0  0  0  0  0  0  0  0
    5.7500   -8.1917    0.0000 Cl  0  0  0  0  0  0  0  0  0  0  0  0
    4.5417   -8.9417    0.0000 Cl  0  0  0  0  0  0  0  0  0  0  0  0
    3.3167   -6.0917    0.0000 C   0  0  0  0  0  0  0  0  0  0  0  0
    3.3167   -4.6917    0.0000 C   0  0  0  0  0  0  0  0  0  0  0  0
    5.1750   -3.5500    0.0000 C   0  0  0  0  0  0  0  0  0  0  0  0
    2.7042   -5.7417    0.0000 C   0  0  0  0  0  0  0  0  0  0  0  0
    2.7042   -5.0375    0.0000 C   0  0  0  0  0  0  0  0  0  0  0  0
  2  1  1  0
  2  3  1  0
  4  1  2  0
  5  3  2  0
  6  5  1  0
  7  2  1  0
  8  4  1  0
  9 12  1  0
 10  3  1  0
 11  8  1  0
 12 10  2  0
  8 13  1  0
 14  6  1  0
 15  9  1  0
 16  1  1  0
 17  4  1  0
 18 13  1  0
 19 16  2  0
 20 19  1  0
 20 17  2  0
 11  7  1  0
  9  6  2  0
M  END
>  <Classification>  (191) 
0

>  <pchembl>  (191) 
4.53

>  <InChI_steorem>  (191) 
InChI=1S/C17H17Cl2N/c1-20-17-9-7-12(13-4-2-3-5-14(13)17)11-6-8-15(18)16(19)10-11/h2-6,8,10,12,17,20H,7,9H2,1H3

>  <source>  (191) 
ChEMBL25

>  <source_id>  (191) 
25

>  <optional_reference>  (191) 
10.1124/dmd.112.047068

>  <optional_origin>  (191) 
None

>  <target>  (191) 
BSEP

$$$$

     RDKit          2D

 31 34  0  0  0  0  0  0  0  0999 V2000
    4.8500   -3.1792    0.0000 C   0  0  0  0  0  0  0  0  0  0  0  0
    4.8500   -4.0042    0.0000 C   0  0  0  0  0  0  0  0  0  0  0  0
    6.9917   -6.8917    0.0000 S   0  0  0  0  0  0  0  0  0  0  0  0
    5.6375   -4.2542    0.0000 N   0  0  0  0  0  0  0  0  0  0  0  0
    6.1167   -3.5917    0.0000 N   0  0  0  0  0  0  0  0  0  0  0  0
    3.4250   -5.6542    0.0000 N   0  0  0  0  0  0  0  0  0  0  0  0
    5.6375   -2.9292    0.0000 C   0  0  0  0  0  0  0  0  0  0  0  0
    4.1375   -4.4167    0.0000 C   0  0  0  0  0  0  0  0  0  0  0  0
    3.4167   -4.0042    0.0000 C   0  0  0  0  0  0  0  0  0  0  0  0
    2.7042   -5.2417    0.0000 C   0  0  0  0  0  0  0  0  0  0  0  0
    3.4250   -6.4792    0.0000 C   0  0  0  0  0  0  0  0  0  0  0  0
    6.2792   -6.4792    0.0000 C   0  0  0  0  0  0  0  0  0  0  0  0
    4.1375   -2.7667    0.0000 C   0  0  0  0  0  0  0  0  0  0  0  0
    2.7042   -4.4167    0.0000 N   0  0  0  0  0  0  0  0  0  0  0  0
    3.4167   -3.1792    0.0000 C   0  0  0  0  0  0  0  0  0  0  0  0
    5.5667   -6.8917    0.0000 C   0  0  0  0  0  0  0  0  0  0  0  0
    4.1375   -6.8917    0.0000 N   0  0  0  0  0  0  0  0  0  0  0  0
    2.7042   -6.8917    0.0000 N   0  0  0  0  0  0  0  0  0  0  0  0
    7.7042   -7.3042    0.0000 O   0  0  0  0  0  0  0  0  0  0  0  0
    6.2792   -7.3042    0.0000 O   0  0  0  0  0  0  0  0  0  0  0  0
    1.9917   -5.6542    0.0000 C   0  0  0  0  0  0  0  0  0  0  0  0
    4.8542   -6.4792    0.0000 C   0  0  0  0  0  0  0  0  0  0  0  0
    7.7042   -6.4792    0.0000 N   0  0  0  0  0  0  0  0  0  0  0  0
    6.2792   -5.6542    0.0000 C   0  0  0  0  0  0  0  0  0  0  0  0
    5.5667   -5.2417    0.0000 C   0  0  0  0  0  0  0  0  0  0  0  0
    1.9917   -6.4792    0.0000 C   0  0  0  0  0  0  0  0  0  0  0  0
    6.9417   -3.5917    0.0000 C   0  0  0  0  0  0  0  0  0  0  0  0
    4.8542   -5.6542    0.0000 C   0  0  0  0  0  0  0  0  0  0  0  0
    5.8917   -2.1417    0.0000 C   0  0  0  0  0  0  0  0  0  0  0  0
    1.9917   -4.0042    0.0000 C   0  0  0  0  0  0  0  0  0  0  0  0
    6.9917   -5.2417    0.0000 C   0  0  0  0  0  0  0  0  0  0  0  0
  2  1  1  0
  3 12  1  0
  4  2  2  0
  5  7  1  0
  6 10  2  0
  7  1  2  0
  8  2  1  0
  9 15  1  0
 10 14  1  0
 11  6  1  0
 12 16  2  0
 13  1  1  0
 14  9  1  0
 15 13  2  0
 16 22  1  0
 17 11  1  0
 18 26  1  0
 19  3  2  0
 20  3  2  0
 21 10  1  0
 22 17  1  0
 23  3  1  0
 24 25  2  0
 25 28  1  0
 26 21  2  0
 27  5  1  0
 28 22  2  0
 29  7  1  0
 30 14  1  0
 31 24  1  0
  5  4  1  0
  8  9  2  0
 11 18  2  0
 24 12  1  0
M  END
>  <Classification>  (192) 
0

>  <pchembl>  (192) 
4.99

>  <InChI_steorem>  (192) 
InChI=1S/C21H23N7O2S/c1-13-5-6-15(11-19(13)31(22,29)30)24-21-23-10-9-20(25-21)27(3)16-7-8-17-14(2)28(4)26-18(17)12-16/h5-12H,1-4H3,(H2,22,29,30)(H,23,24,25)

>  <source>  (192) 
ChEMBL25

>  <source_id>  (192) 
25

>  <optional_reference>  (192) 
10.1093/toxsci/kft176

>  <optional_origin>  (192) 
None

>  <target>  (192) 
BSEP

$$$$

     RDKit          2D

 32 36  0  0  0  0  0  0  0  0999 V2000
    3.8034   11.5448    0.0000 S   0  0  0  0  0  0  0  0  0  0  0  0
    5.2259   11.0806    0.0000 C   0  0  0  0  0  0  0  0  0  0  0  0
    5.2259    9.5833    0.0000 C   0  0  0  0  0  0  0  0  0  0  0  0
    7.8163   11.0806    0.0000 C   0  0  0  0  0  0  0  0  0  0  0  0
    6.4986   11.8293    0.0000 C   0  0  0  0  0  0  0  0  0  0  0  0
    7.8163    9.5833    0.0000 C   0  0  0  0  0  0  0  0  0  0  0  0
    6.4986    8.8346    0.0000 C   0  0  0  0  0  0  0  0  0  0  0  0
    6.4986    7.3372    0.0000 C   0  0  0  0  0  0  0  0  0  0  0  0
    7.8163    6.5885    0.0000 C   0  0  0  0  0  0  0  0  0  0  0  0
    9.1191    7.3372    0.0000 C   0  0  0  0  0  0  0  0  0  0  0  0
    9.1191    8.8346    0.0000 N   0  0  0  0  0  0  0  0  0  0  0  0
   10.4180    6.5855    0.0000 C   0  0  0  0  0  0  0  0  0  0  0  0
    2.9199   10.3319    0.0000 C   0  0  0  0  0  0  0  0  0  0  0  0
    3.8034    9.1191    0.0000 C   0  0  0  0  0  0  0  0  0  0  0  0
    3.3991    7.6666    0.0000 N   0  0  0  0  0  0  0  0  0  0  0  0
    1.4225   10.3918    0.0000 C   0  0  0  0  0  0  0  0  0  0  0  0
    2.0215    7.0826    0.0000 C   0  0  0  0  0  0  0  0  0  0  0  0
    0.4193    9.2688    0.0000 N   0  0  0  0  0  0  0  0  0  0  0  0
    0.7038    7.7864    0.0000 C   0  0  0  0  0  0  0  0  0  0  0  0
    0.9543   11.4967    0.0000 O   0  0  0  0  0  0  0  0  0  0  0  0
   -0.2624    7.0746    0.0000 C   0  0  0  0  0  0  0  0  0  0  0  0
   11.7196    7.3312    0.0000 C   0  0  0  0  0  0  0  0  0  0  0  0
   13.0161    6.5769    0.0000 C   0  0  0  0  0  0  0  0  0  0  0  0
   13.0112    5.0769    0.0000 C   0  0  0  0  0  0  0  0  0  0  0  0
   11.7097    4.3312    0.0000 C   0  0  0  0  0  0  0  0  0  0  0  0
   10.4131    5.0855    0.0000 C   0  0  0  0  0  0  0  0  0  0  0  0
   14.3199    7.3204    0.0000 C   0  0  0  0  0  0  0  0  0  0  0  0
   15.6161    6.5639    0.0000 O   0  0  0  0  0  0  0  0  0  0  0  0
   16.9198    7.3074    0.0000 C   0  0  0  0  0  0  0  0  0  0  0  0
   18.2160    6.5508    0.0000 C   0  0  0  0  0  0  0  0  0  0  0  0
   19.5198    7.2943    0.0000 O   0  0  0  0  0  0  0  0  0  0  0  0
   20.5562    6.6894    0.0000 C   0  0  0  0  0  0  0  0  0  0  0  0
  2  1  1  0
  1 13  1  0
 14  3  1  0
  2  3  2  0
  3  7  1  0
  6  4  1  0
  4  5  2  0
  5  2  1  0
  6  7  2  0
  6 11  1  0
  7  8  1  0
  8  9  2  0
  9 10  1  0
 10 11  2  0
 10 12  1  0
 13 14  2  0
 14 15  1  0
 13 16  1  0
 15 17  1  0
 16 18  1  0
 17 19  1  0
 18 19  1  0
 16 20  2  0
 19 21  1  0
 12 22  2  0
 22 23  1  0
 23 24  2  0
 24 25  1  0
 25 26  2  0
 26 12  1  0
 23 27  1  0
 27 28  1  0
 28 29  1  0
 29 30  1  0
 30 31  1  0
 31 32  1  0
M  END
>  <Classification>  (193) 
1

>  <pchembl>  (193) 
5.16

>  <InChI_steorem>  (193) 
InChI=1S/C25H25N3O3S/c1-15-13-26-23-22-18-6-7-19(17-5-3-4-16(12-17)14-31-11-10-30-2)28-20(18)8-9-21(22)32-24(23)25(29)27-15/h3-9,12,15,26H,10-11,13-14H2,1-2H3,(H,27,29)

>  <source>  (193) 
ChEMBL25

>  <source_id>  (193) 
25

>  <optional_reference>  (193) 
10.1021/acs.jmedchem.5b01457

>  <optional_origin>  (193) 
None

>  <target>  (193) 
BSEP

$$$$

     RDKit          2D

 39 43  0  0  0  0  0  0  0  0999 V2000
   -0.4439   -1.8202    0.0000 O   0  0  0  0  0  0  0  0  0  0  0  0
    0.7442   -1.6517    0.0000 S   0  0  0  0  0  0  0  0  0  0  0  0
    1.5291   -2.5594    0.0000 O   0  0  0  0  0  0  0  0  0  0  0  0
    3.1043   -2.6385    0.0000 C   0  0  0  0  0  0  0  0  0  0  0  0
    2.2325   -1.4158    0.0000 N   0  0  0  0  0  0  0  0  0  0  0  0
    6.7119   -0.9853    0.0000 C   0  0  0  0  0  0  0  0  0  0  0  0
    7.5843   -2.2056    0.0000 C   0  0  0  0  0  0  0  0  0  0  0  0
    6.9638   -3.5712    0.0000 C   0  0  0  0  0  0  0  0  0  0  0  0
    5.4708   -3.7166    0.0000 C   0  0  0  0  0  0  0  0  0  0  0  0
    4.5984   -2.4964    0.0000 C   0  0  0  0  0  0  0  0  0  0  0  0
    5.2190   -1.1307    0.0000 C   0  0  0  0  0  0  0  0  0  0  0  0
    7.3331    0.3810    0.0000 C   0  0  0  0  0  0  0  0  0  0  0  0
    6.4575    1.6000    0.0000 C   0  0  0  0  0  0  0  0  0  0  0  0
    4.9640    1.4523    0.0000 C   0  0  0  0  0  0  0  0  0  0  0  0
    4.2640    2.4269    0.0000 O   0  0  0  0  0  0  0  0  0  0  0  0
    4.4696    0.3589    0.0000 O   0  0  0  0  0  0  0  0  0  0  0  0
    4.9744   -4.8091    0.0000 C   0  0  0  0  0  0  0  0  0  0  0  0
    8.8268    0.5271    0.0000 C   0  0  0  0  0  0  0  0  0  0  0  0
    9.4401    1.8918    0.0000 C   0  0  0  0  0  0  0  0  0  0  0  0
   10.9514    2.0515    0.0000 C   0  0  0  0  0  0  0  0  0  0  0  0
    9.7095   -0.7085    0.0000 C   0  0  0  0  0  0  0  0  0  0  0  0
   11.2042   -0.5413    0.0000 C   0  0  0  0  0  0  0  0  0  0  0  0
   11.8176    0.8220    0.0000 C   0  0  0  0  0  0  0  0  0  0  0  0
   13.3015    0.6542    0.0000 N   0  0  0  0  0  0  0  0  0  0  0  0
   13.5983   -0.8189    0.0000 N   0  0  0  0  0  0  0  0  0  0  0  0
   12.3140   -1.5405    0.0000 N   0  0  0  0  0  0  0  0  0  0  0  0
   14.1127    1.5385    0.0000 C   0  0  0  0  0  0  0  0  0  0  0  0
   11.5722    3.4176    0.0000 O   0  0  0  0  0  0  0  0  0  0  0  0
   10.8750    4.3943    0.0000 C   0  0  0  0  0  0  0  0  0  0  0  0
    2.9404    0.0000    0.0000 C   0  0  0  0  0  0  0  0  0  0  0  0
    2.2507    1.3976    0.0000 C   0  0  0  0  0  0  0  0  0  0  0  0
    0.7805    1.6880    0.0000 O   0  0  0  0  0  0  0  0  0  0  0  0
    0.0000   -0.7623    0.0000 C   0  0  0  0  0  0  0  0  0  0  0  0
    0.0000    0.7623    0.0000 C   0  0  0  0  0  0  0  0  0  0  0  0
   -1.4884    1.5247    0.0000 C   0  0  0  0  0  0  0  0  0  0  0  0
   -2.8315    0.7623    0.0000 C   0  0  0  0  0  0  0  0  0  0  0  0
   -2.8315   -0.7623    0.0000 C   0  0  0  0  0  0  0  0  0  0  0  0
   -1.4884   -1.5247    0.0000 C   0  0  0  0  0  0  0  0  0  0  0  0
    2.9804    2.3502    0.0000 C   0  0  0  0  0  0  0  0  0  0  0  0
  2  1  2  0
  3  2  2  0
  4  5  1  0
  6  7  2  0
  7  8  1  0
  8  9  2  0
  9 10  1  0
 10 11  2  0
 11  6  1  0
  6 12  1  0
 12 13  1  0
 13 14  1  0
 14 15  2  0
 14 16  1  0
  9 17  1  0
 12 18  1  0
 18 19  2  0
 19 20  1  0
 20 23  2  0
 22 21  2  0
 21 18  1  0
 22 23  1  0
 23 24  1  0
 24 25  1  0
 25 26  2  0
 26 22  1  0
 24 27  1  0
 10  4  1  0
 20 28  1  0
 28 29  1  0
  5  2  1  0
  2 33  1  0
  5 30  1  0
 30 31  1  0
 34 32  1  0
 31 32  1  0
 33 34  2  0
 34 35  1  0
 35 36  2  0
 36 37  1  0
 37 38  2  0
 38 33  1  0
 31 39  1  0
M  END
>  <Classification>  (194) 
1

>  <pchembl>  (194) 
5.4

>  <InChI_steorem>  (194) 
InChI=1S/C28H30N4O6S/c1-17-9-10-19(22(14-27(33)34)20-12-23-28(25(13-20)37-4)31(3)30-29-23)11-21(17)16-32-15-18(2)38-24-7-5-6-8-26(24)39(32,35)36/h5-13,18,22H,14-16H2,1-4H3,(H,33,34)

>  <source>  (194) 
ChEMBL25

>  <source_id>  (194) 
25

>  <optional_reference>  (194) 
10.1021/acs.jmedchem.6b00228

>  <optional_origin>  (194) 
None

>  <target>  (194) 
BSEP

$$$$

     RDKit          2D

 16 16  0  0  0  0  0  0  0  0999 V2000
   25.8873  -19.8290    0.0000 C   0  0  0  0  0  0  0  0  0  0  0  0
   26.5872  -19.4040    0.0000 C   0  0  0  0  0  0  0  0  0  0  0  0
   25.1831  -19.4040    0.0000 O   0  0  0  0  0  0  0  0  0  0  0  0
   26.5872  -18.5790    0.0000 O   0  0  0  0  0  0  0  0  0  0  0  0
   24.4623  -19.8165    0.0000 C   0  0  0  0  0  0  0  0  0  0  0  0
   23.0248  -20.6415    0.0000 C   0  0  0  0  0  0  0  0  0  0  0  0
   27.3081  -19.8165    0.0000 O   0  0  0  0  0  0  0  0  0  0  0  0
   22.2997  -21.0540    0.0000 Cl  0  0  0  0  0  0  0  0  0  0  0  0
   24.4623  -20.6415    0.0000 C   0  0  0  0  0  0  0  0  0  0  0  0
   23.7206  -19.3914    0.0000 C   0  0  0  0  0  0  0  0  0  0  0  0
   23.7206  -21.0414    0.0000 C   0  0  0  0  0  0  0  0  0  0  0  0
   23.0248  -19.8165    0.0000 C   0  0  0  0  0  0  0  0  0  0  0  0
   25.4748  -20.5539    0.0000 C   0  0  0  0  0  0  0  0  0  0  0  0
   26.2998  -20.5539    0.0000 C   0  0  0  0  0  0  0  0  0  0  0  0
   28.0247  -19.4165    0.0000 C   0  0  0  0  0  0  0  0  0  0  0  0
   28.7372  -19.8290    0.0000 C   0  0  0  0  0  0  0  0  0  0  0  0
  2  1  1  0
  3  1  1  0
  4  2  2  0
  5  3  1  0
  6 12  1  0
  7  2  1  0
  8  6  1  0
  9  5  2  0
 10  5  1  0
 11  9  1  0
 12 10  2  0
 13  1  1  0
 14  1  1  0
 15  7  1  0
 16 15  1  0
  6 11  2  0
M  END
>  <Classification>  (195) 
0

>  <pchembl>  (195) 
4.22

>  <InChI_steorem>  (195) 
InChI=1S/C12H15ClO3/c1-4-15-11(14)12(2,3)16-10-7-5-9(13)6-8-10/h5-8H,4H2,1-3H3

>  <source>  (195) 
ChEMBL25

>  <source_id>  (195) 
25

>  <optional_reference>  (195) 
10.1093/toxsci/kfq269

>  <optional_origin>  (195) 
None

>  <target>  (195) 
BSEP

$$$$

     RDKit          2D

 18 20  0  0  0  0  0  0  0  0999 V2000
   -1.3122    0.1626    0.0000 C   0  0  0  0  0  0  0  0  0  0  0  0
   -2.0659    0.4982    0.0000 N   0  0  0  0  0  0  0  0  0  0  0  0
   -1.3984   -0.6579    0.0000 N   0  0  0  0  0  0  0  0  0  0  0  0
   -0.5977    0.5751    0.0000 C   0  0  0  0  0  0  0  0  0  0  0  0
    0.8312    0.5751    0.0000 O   0  0  0  0  0  0  0  0  0  0  0  0
    0.8312   -1.0749    0.0000 O   0  0  0  0  0  0  0  0  0  0  0  0
    1.5457    0.1626    0.0000 C   0  0  0  0  0  0  0  0  0  0  0  0
   -2.2054   -0.8294    0.0000 C   0  0  0  0  0  0  0  0  0  0  0  0
    0.1167    0.1626    0.0000 C   0  0  0  0  0  0  0  0  0  0  0  0
    1.5457   -0.6624    0.0000 C   0  0  0  0  0  0  0  0  0  0  0  0
   -2.6179   -0.1149    0.0000 C   0  0  0  0  0  0  0  0  0  0  0  0
    0.1167   -0.6624    0.0000 C   0  0  0  0  0  0  0  0  0  0  0  0
   -2.2374    1.3051    0.0000 C   0  0  0  0  0  0  0  0  0  0  0  0
    2.2602    0.5751    0.0000 C   0  0  0  0  0  0  0  0  0  0  0  0
    2.2602   -1.0749    0.0000 C   0  0  0  0  0  0  0  0  0  0  0  0
   -3.0220    1.5601    0.0000 C   0  0  0  0  0  0  0  0  0  0  0  0
    2.9746    0.1626    0.0000 C   0  0  0  0  0  0  0  0  0  0  0  0
    2.9746   -0.6624    0.0000 C   0  0  0  0  0  0  0  0  0  0  0  0
  2  1  1  0
  3  1  2  0
  4  1  1  0
  5  9  1  0
  6 12  1  0
  7  5  1  0
  8  3  1  0
  9  4  1  0
 10  7  2  0
 11  2  1  0
 12  9  1  0
 13  2  1  0
 14  7  1  0
 10 15  1  0
 16 13  1  0
 17 14  2  0
 18 15  2  0
 11  8  2  0
 10  6  1  0
 18 17  1  0
M  END
>  <Classification>  (196) 
0

>  <pchembl>  (196) 
4.21

>  <InChI_steorem>  (196) 
InChI=1S/C14H16N2O2/c1-2-16-8-7-15-14(16)9-11-10-17-12-5-3-4-6-13(12)18-11/h3-8,11H,2,9-10H2,1H3

>  <source>  (196) 
ChEMBL25

>  <source_id>  (196) 
25

>  <optional_reference>  (196) 
10.1124/dmd.112.047068

>  <optional_origin>  (196) 
None

>  <target>  (196) 
BSEP

$$$$

     RDKit          2D

 19 20  0  0  0  0  0  0  0  0999 V2000
   -1.7674   -0.6296    0.0000 Cl  0  0  0  0  0  0  0  0  0  0  0  0
    1.0905   -0.6296    0.0000 Cl  0  0  0  0  0  0  0  0  0  0  0  0
   -0.3384    2.6704    0.0000 O   0  0  0  0  0  0  0  0  0  0  0  0
   -1.0529    1.4329    0.0000 O   0  0  0  0  0  0  0  0  0  0  0  0
   -0.3384    0.1954    0.0000 N   0  0  0  0  0  0  0  0  0  0  0  0
   -0.3384   -0.6296    0.0000 C   0  0  0  0  0  0  0  0  0  0  0  0
   -1.0529   -1.0421    0.0000 C   0  0  0  0  0  0  0  0  0  0  0  0
    0.3760    0.6079    0.0000 C   0  0  0  0  0  0  0  0  0  0  0  0
    0.3760   -1.0421    0.0000 C   0  0  0  0  0  0  0  0  0  0  0  0
    0.3760    1.4329    0.0000 C   0  0  0  0  0  0  0  0  0  0  0  0
   -1.0529   -1.8671    0.0000 C   0  0  0  0  0  0  0  0  0  0  0  0
    0.3760   -1.8671    0.0000 C   0  0  0  0  0  0  0  0  0  0  0  0
   -0.3384   -2.2796    0.0000 C   0  0  0  0  0  0  0  0  0  0  0  0
    1.0905    0.1954    0.0000 C   0  0  0  0  0  0  0  0  0  0  0  0
   -0.3384    1.8454    0.0000 C   0  0  0  0  0  0  0  0  0  0  0  0
    1.0905    1.8454    0.0000 C   0  0  0  0  0  0  0  0  0  0  0  0
    1.8050    0.6079    0.0000 C   0  0  0  0  0  0  0  0  0  0  0  0
    1.8050    1.4329    0.0000 C   0  0  0  0  0  0  0  0  0  0  0  0
   -1.7674   -2.2796    0.0000 C   0  0  0  0  0  0  0  0  0  0  0  0
  1  7  1  0
  2  9  1  0
  3 15  1  0
  4 15  2  0
  5  6  1  0
  5  8  1  0
  6  7  2  0
  6  9  1  0
  7 11  1  0
  8 10  2  0
  8 14  1  0
  9 12  2  0
 10 15  1  0
 10 16  1  0
 11 13  2  0
 11 19  1  0
 12 13  1  0
 14 17  2  0
 16 18  2  0
 17 18  1  0
M  END
>  <Classification>  (197) 
0

>  <pchembl>  (197) 
4.57

>  <InChI_steorem>  (197) 
InChI=1S/C14H11Cl2NO2/c1-8-6-7-10(15)13(12(8)16)17-11-5-3-2-4-9(11)14(18)19/h2-7,17H,1H3,(H,18,19)

>  <source>  (197) 
ChEMBL25

>  <source_id>  (197) 
25

>  <optional_reference>  (197) 
10.1124/dmd.112.047068

>  <optional_origin>  (197) 
None

>  <target>  (197) 
BSEP

$$$$

     RDKit          2D

 19 21  0  0  0  0  0  0  0  0999 V2000
    5.7336   -0.8239    0.0000 O   0  0  0  0  0  0  0  0  0  0  0  0
    2.8710   -2.4718    0.0000 N   0  0  0  0  0  0  0  0  0  0  0  0
    2.8710    0.0000    0.0000 N   0  0  0  0  0  0  0  0  0  0  0  0
    0.0000   -2.4888    0.0000 N   0  0  0  0  0  0  0  0  0  0  0  0
    3.5846   -1.2316    0.0000 C   0  0  0  0  0  0  0  0  0  0  0  0
    2.1575   -1.2316    0.0000 C   0  0  0  0  0  0  0  0  0  0  0  0
    2.8710   -0.8325    0.0000 C   0  0  0  0  0  0  0  0  0  0  0  0
    3.5846   -2.0641    0.0000 C   0  0  0  0  0  0  0  0  0  0  0  0
    2.1575   -2.0641    0.0000 C   0  0  0  0  0  0  0  0  0  0  0  0
    4.2896   -0.8325    0.0000 C   0  0  0  0  0  0  0  0  0  0  0  0
    1.4525   -0.8325    0.0000 C   0  0  0  0  0  0  0  0  0  0  0  0
    1.4525   -2.4718    0.0000 C   0  0  0  0  0  0  0  0  0  0  0  0
    4.2896   -2.4718    0.0000 C   0  0  0  0  0  0  0  0  0  0  0  0
    5.0031   -1.2316    0.0000 C   0  0  0  0  0  0  0  0  0  0  0  0
    0.7305   -2.0641    0.0000 C   0  0  0  0  0  0  0  0  0  0  0  0
    5.0031   -2.0641    0.0000 C   0  0  0  0  0  0  0  0  0  0  0  0
    0.7305   -1.2316    0.0000 C   0  0  0  0  0  0  0  0  0  0  0  0
    6.4556   -1.2316    0.0000 C   0  0  0  0  0  0  0  0  0  0  0  0
    7.1607   -0.8154    0.0000 C   0  0  0  0  0  0  0  0  0  0  0  0
  1 14  1  0
  1 18  1  0
  2  8  2  0
  2  9  1  0
  3  7  1  0
  4 15  1  0
  5  7  2  0
  5  8  1  0
  5 10  1  0
  6  7  1  0
  6  9  2  0
  6 11  1  0
  8 13  1  0
  9 12  1  0
 10 14  2  0
 11 17  2  0
 12 15  2  0
 13 16  2  0
 14 16  1  0
 15 17  1  0
 18 19  1  0
M  END
>  <Classification>  (198) 
0

>  <pchembl>  (198) 
4.36

>  <InChI_steorem>  (198) 
InChI=1S/C15H15N3O/c1-2-19-10-4-6-13-12(8-10)15(17)11-5-3-9(16)7-14(11)18-13/h3-8H,2,16H2,1H3,(H2,17,18)

>  <source>  (198) 
ChEMBL25

>  <source_id>  (198) 
25

>  <optional_reference>  (198) 
10.1124/dmd.112.047068

>  <optional_origin>  (198) 
None

>  <target>  (198) 
BSEP

$$$$

     RDKit          2D

 21 23  0  0  0  0  0  0  0  0999 V2000
   15.6205   -9.7243    0.0000 N   0  0  0  0  0  0  0  0  0  0  0  0
   15.6204   -8.0826    0.0000 S   0  0  0  0  0  0  0  0  0  0  0  0
   16.3324   -9.3175    0.0000 C   0  0  0  0  0  0  0  0  0  0  0  0
   14.8940   -9.3176    0.0000 C   0  0  0  0  0  0  0  0  0  0  0  0
   16.3323   -8.4893    0.0000 C   0  0  0  0  0  0  0  0  0  0  0  0
   14.8939   -8.4894    0.0000 C   0  0  0  0  0  0  0  0  0  0  0  0
   15.6205  -10.5525    0.0000 C   0  0  0  0  0  0  0  0  0  0  0  0
   14.8941  -10.9593    0.0000 C   0  0  0  0  0  0  0  0  0  0  0  0
   14.8942  -11.7875    0.0000 C   0  0  0  0  0  0  0  0  0  0  0  0
   14.1823  -12.1943    0.0000 N   0  0  0  0  0  0  0  0  0  0  0  0
   14.1821   -9.7244    0.0000 C   0  0  0  0  0  0  0  0  0  0  0  0
   17.0443   -9.7242    0.0000 C   0  0  0  0  0  0  0  0  0  0  0  0
   14.1820   -8.0827    0.0000 C   0  0  0  0  0  0  0  0  0  0  0  0
   17.0442   -8.0825    0.0000 C   0  0  0  0  0  0  0  0  0  0  0  0
   14.1822  -10.5526    0.0000 C   0  0  0  0  0  0  0  0  0  0  0  0
   14.1823  -13.0225    0.0000 C   0  0  0  0  0  0  0  0  0  0  0  0
   13.4703  -11.7876    0.0000 C   0  0  0  0  0  0  0  0  0  0  0  0
   17.7562   -9.3174    0.0000 C   0  0  0  0  0  0  0  0  0  0  0  0
   13.4702   -9.3177    0.0000 C   0  0  0  0  0  0  0  0  0  0  0  0
   13.4701   -8.4895    0.0000 C   0  0  0  0  0  0  0  0  0  0  0  0
   17.7561   -8.4892    0.0000 C   0  0  0  0  0  0  0  0  0  0  0  0
 10  9  1  0
 11  4  2  0
 12  3  2  0
 13  6  2  0
 14  5  2  0
 15  8  1  0
 16 10  1  0
 17 10  1  0
 18 12  1  0
 19 11  1  0
 20 19  2  0
 21 18  2  0
  5  2  1  0
 13 20  1  0
 14 21  1  0
  2  6  1  0
  3  1  1  0
  4  1  1  0
  5  3  1  0
  6  4  1  0
  7  1  1  0
  8  7  1  0
  9  8  1  0
M  END
>  <Classification>  (199) 
0

>  <pchembl>  (199) 
4.13

>  <InChI_steorem>  (199) 
InChI=1S/C18H22N2S/c1-14(12-19(2)3)13-20-15-8-4-6-10-17(15)21-18-11-7-5-9-16(18)20/h4-11,14H,12-13H2,1-3H3

>  <source>  (199) 
ChEMBL25

>  <source_id>  (199) 
25

>  <optional_reference>  (199) 
10.1124/dmd.112.047068

>  <optional_origin>  (199) 
None

>  <target>  (199) 
BSEP

$$$$

     RDKit          2D

 21 23  0  0  0  0  0  0  0  0999 V2000
   15.6610   -5.3481    0.0000 C   0  0  0  0  0  0  0  0  0  0  0  0
   16.3759   -5.7550    0.0000 C   0  0  0  0  0  0  0  0  0  0  0  0
   17.0921   -5.3372    0.0000 C   0  0  0  0  0  0  0  0  0  0  0  0
   14.9483   -5.7638    0.0000 N   0  0  0  0  0  0  0  0  0  0  0  0
   14.9507   -6.5864    0.0000 C   0  0  0  0  0  0  0  0  0  0  0  0
   14.2313   -5.3533    0.0000 C   0  0  0  0  0  0  0  0  0  0  0  0
   17.0898   -4.5146    0.0000 C   0  0  0  0  0  0  0  0  0  0  0  0
   16.3728   -4.1041    0.0000 C   0  0  0  0  0  0  0  0  0  0  0  0
   15.6566   -4.5219    0.0000 C   0  0  0  0  0  0  0  0  0  0  0  0
   14.9395   -4.1114    0.0000 C   0  0  0  0  0  0  0  0  0  0  0  0
   14.9372   -3.2888    0.0000 C   0  0  0  0  0  0  0  0  0  0  0  0
   15.6534   -2.8710    0.0000 C   0  0  0  0  0  0  0  0  0  0  0  0
   16.3684   -3.2779    0.0000 C   0  0  0  0  0  0  0  0  0  0  0  0
   17.0810   -2.8622    0.0000 S   0  0  0  0  0  0  0  0  0  0  0  0
   17.7980   -3.2727    0.0000 C   0  0  0  0  0  0  0  0  0  0  0  0
   18.5106   -2.8570    0.0000 C   0  0  0  0  0  0  0  0  0  0  0  0
   19.2276   -3.2675    0.0000 C   0  0  0  0  0  0  0  0  0  0  0  0
   19.2299   -4.0901    0.0000 C   0  0  0  0  0  0  0  0  0  0  0  0
   18.5173   -4.5058    0.0000 C   0  0  0  0  0  0  0  0  0  0  0  0
   17.8024   -4.0989    0.0000 C   0  0  0  0  0  0  0  0  0  0  0  0
   14.2269   -4.5271    0.0000 Cl  0  0  0  0  0  0  0  0  0  0  0  0
  1  2  1  0
  2  3  1  0
  1  4  1  0
  4  5  1  0
  4  6  1  0
  7  8  1  0
  8  9  2  0
  9 10  1  0
 10 11  2  0
 11 12  1  0
 12 13  2  0
  8 13  1  0
 13 14  1  0
 14 15  1  0
 15 16  2  0
 16 17  1  0
 17 18  2  0
 18 19  1  0
 19 20  2  0
 15 20  1  0
  7 20  1  0
 10 21  1  0
  3  7  2  3
M  END
>  <Classification>  (200) 
0

>  <pchembl>  (200) 
4.56

>  <InChI_steorem>  (200) 
InChI=1S/C18H18ClNS/c1-20(2)11-5-7-14-15-6-3-4-8-17(15)21-18-10-9-13(19)12-16(14)18/h3-4,6-10,12H,5,11H2,1-2H3

>  <source>  (200) 
ChEMBL25

>  <source_id>  (200) 
25

>  <optional_reference>  (200) 
10.1124/dmd.112.047068

>  <optional_origin>  (200) 
None

>  <target>  (200) 
BSEP

$$$$

     RDKit          2D

 24 26  0  0  0  0  0  0  0  0999 V2000
    9.6972   -8.6108    0.0000 S   0  0  0  0  0  0  0  0  0  0  0  0
    9.6946   -7.7858    0.0000 O   0  0  0  0  0  0  0  0  0  0  0  0
   13.7843  -10.0026    0.0000 O   0  0  0  0  0  0  0  0  0  0  0  0
    7.5474   -6.5550    0.0000 O   0  0  0  0  0  0  0  0  0  0  0  0
   11.1657   -8.6832    0.0000 N   0  0  0  0  0  0  0  0  0  0  0  0
   10.5019   -9.8413    0.0000 N   0  0  0  0  0  0  0  0  0  0  0  0
    7.5552   -9.0300    0.0000 N   0  0  0  0  0  0  0  0  0  0  0  0
   11.7196   -9.2945    0.0000 C   0  0  0  0  0  0  0  0  0  0  0  0
   11.3093  -10.0103    0.0000 C   0  0  0  0  0  0  0  0  0  0  0  0
   10.4130   -9.0210    0.0000 C   0  0  0  0  0  0  0  0  0  0  0  0
    8.2684   -8.6153    0.0000 C   0  0  0  0  0  0  0  0  0  0  0  0
   12.5446   -9.2920    0.0000 C   0  0  0  0  0  0  0  0  0  0  0  0
   11.7240  -10.7234    0.0000 C   0  0  0  0  0  0  0  0  0  0  0  0
    8.2658   -7.7903    0.0000 C   0  0  0  0  0  0  0  0  0  0  0  0
    8.9840   -9.0256    0.0000 C   0  0  0  0  0  0  0  0  0  0  0  0
   12.9592  -10.0050    0.0000 C   0  0  0  0  0  0  0  0  0  0  0  0
    7.5500   -7.3801    0.0000 C   0  0  0  0  0  0  0  0  0  0  0  0
   12.5490  -10.7208    0.0000 C   0  0  0  0  0  0  0  0  0  0  0  0
    6.8368   -7.7948    0.0000 C   0  0  0  0  0  0  0  0  0  0  0  0
    6.8395   -8.6197    0.0000 C   0  0  0  0  0  0  0  0  0  0  0  0
    8.9790   -7.3756    0.0000 C   0  0  0  0  0  0  0  0  0  0  0  0
    6.1211   -7.3845    0.0000 C   0  0  0  0  0  0  0  0  0  0  0  0
   14.1990  -10.7157    0.0000 C   0  0  0  0  0  0  0  0  0  0  0  0
    6.8317   -6.1448    0.0000 C   0  0  0  0  0  0  0  0  0  0  0  0
  1  2  1  0
  1 10  1  0
  1 15  1  0
  3 16  1  0
  3 23  1  0
  4 17  1  0
  4 24  1  0
  5  8  1  0
  5 10  2  0
  6  9  1  0
  6 10  1  0
  7 11  2  0
  7 20  1  0
  8  9  2  0
  8 12  1  0
  9 13  1  0
 11 14  1  0
 11 15  1  0
 12 16  2  0
 13 18  2  0
 14 17  2  0
 14 21  1  0
 16 18  1  0
 17 19  1  0
 19 20  2  0
 19 22  1  0
M  CHG  2   1   1   2  -1
M  END
>  <Classification>  (201) 
0

>  <pchembl>  (201) 
4.12

>  <InChI_steorem>  (201) 
InChI=1S/C17H19N3O3S/c1-10-8-18-15(11(2)16(10)23-4)9-24(21)17-19-13-6-5-12(22-3)7-14(13)20-17/h5-8H,9H2,1-4H3,(H,19,20)

>  <source>  (201) 
ChEMBL25

>  <source_id>  (201) 
25

>  <optional_reference>  (201) 
10.1093/toxsci/kfq269

>  <optional_origin>  (201) 
None

>  <target>  (201) 
BSEP

$$$$

     RDKit          2D

 25 27  0  0  0  0  0  0  0  0999 V2000
   -0.7425    1.5718    0.0000 S   0  0  0  0  0  0  0  0  0  0  0  0
    0.4950   -0.5716    0.0000 O   0  0  0  0  0  0  0  0  0  0  0  0
   -3.2175    1.5718    0.0000 O   0  0  0  0  0  0  0  0  0  0  0  0
   -0.7425   -1.2860    0.0000 N   0  0  0  0  0  0  0  0  0  0  0  0
    1.3200   -2.0005    0.0000 N   0  0  0  0  0  0  0  0  0  0  0  0
   -0.7425    0.1429    0.0000 C   0  0  0  0  0  0  0  0  0  0  0  0
   -1.1550    0.8574    0.0000 C   0  0  0  0  0  0  0  0  0  0  0  0
    0.0825    0.1429    0.0000 C   0  0  0  0  0  0  0  0  0  0  0  0
    0.4950    0.8574    0.0000 C   0  0  0  0  0  0  0  0  0  0  0  0
    0.0825    1.5718    0.0000 C   0  0  0  0  0  0  0  0  0  0  0  0
   -1.1550   -0.5716    0.0000 C   0  0  0  0  0  0  0  0  0  0  0  0
   -1.9800    0.8574    0.0000 C   0  0  0  0  0  0  0  0  0  0  0  0
   -1.9800   -0.5716    0.0000 C   0  0  0  0  0  0  0  0  0  0  0  0
   -2.3925    0.1429    0.0000 C   0  0  0  0  0  0  0  0  0  0  0  0
    1.3200    0.8574    0.0000 C   0  0  0  0  0  0  0  0  0  0  0  0
    0.4950    2.2863    0.0000 C   0  0  0  0  0  0  0  0  0  0  0  0
   -2.3925    1.5718    0.0000 C   0  0  0  0  0  0  0  0  0  0  0  0
    1.7325    1.5718    0.0000 C   0  0  0  0  0  0  0  0  0  0  0  0
    1.3200    2.2863    0.0000 C   0  0  0  0  0  0  0  0  0  0  0  0
    0.0825   -1.2860    0.0000 C   0  0  0  0  0  0  0  0  0  0  0  0
    0.4950   -2.0005    0.0000 C   0  0  0  0  0  0  0  0  0  0  0  0
    1.7325   -2.7150    0.0000 C   0  0  0  0  0  0  0  0  0  0  0  0
    1.7325   -1.2860    0.0000 C   0  0  0  0  0  0  0  0  0  0  0  0
    2.5575   -2.7150    0.0000 C   0  0  0  0  0  0  0  0  0  0  0  0
    2.5575   -1.2860    0.0000 C   0  0  0  0  0  0  0  0  0  0  0  0
  1  7  1  0
  1 10  1  0
  2  8  2  0
  3 17  1  0
  4 11  1  0
  4 20  1  0
  5 21  1  0
  5 22  1  0
  5 23  1  0
  6  7  2  0
  6  8  1  0
  6 11  1  0
  7 12  1  0
  8  9  1  0
  9 10  2  0
  9 15  1  0
 10 16  1  0
 11 13  2  0
 12 14  2  0
 12 17  1  0
 13 14  1  0
 15 18  2  0
 16 19  2  0
 18 19  1  0
 20 21  1  0
 22 24  1  0
 23 25  1  0
M  END
>  <Classification>  (202) 
0

>  <pchembl>  (202) 
4.53

>  <InChI_steorem>  (202) 
InChI=1S/C20H24N2O2S/c1-3-22(4-2)12-11-21-16-10-9-14(13-23)20-18(16)19(24)15-7-5-6-8-17(15)25-20/h5-10,21,23H,3-4,11-13H2,1-2H3

>  <source>  (202) 
ChEMBL25

>  <source_id>  (202) 
25

>  <optional_reference>  (202) 
10.1124/dmd.112.047068

>  <optional_origin>  (202) 
None

>  <target>  (202) 
BSEP

$$$$

     RDKit          2D

 25 27  0  0  0  0  0  0  0  0999 V2000
   -2.6111    0.7486    0.0000 C   0  0  0  0  0  0  0  0  0  0  0  0
   -2.6111   -0.7486    0.0000 C   0  0  0  0  0  0  0  0  0  0  0  0
   -1.2964   -1.4973    0.0000 C   0  0  0  0  0  0  0  0  0  0  0  0
   -1.2964    1.4973    0.0000 C   0  0  0  0  0  0  0  0  0  0  0  0
    0.0000    0.7486    0.0000 C   0  0  0  0  0  0  0  0  0  0  0  0
    0.0000   -0.7486    0.0000 C   0  0  0  0  0  0  0  0  0  0  0  0
    1.2964   -1.4973    0.0000 N   0  0  0  0  0  0  0  0  0  0  0  0
    2.5929   -0.7486    0.0000 C   0  0  0  0  0  0  0  0  0  0  0  0
    2.5929    0.7486    0.0000 C   0  0  0  0  0  0  0  0  0  0  0  0
    1.2964    1.4973    0.0000 C   0  0  0  0  0  0  0  0  0  0  0  0
    1.2995    2.9981    0.0000 N   0  0  0  0  0  0  0  0  0  0  0  0
    2.6003    3.7467    0.0000 C   0  0  0  0  0  0  0  0  0  0  0  0
    2.6056    5.2467    0.0000 C   0  0  0  0  0  0  0  0  0  0  0  0
    3.9072    5.9922    0.0000 C   0  0  0  0  0  0  0  0  0  0  0  0
    5.2037    5.2377    0.0000 C   0  0  0  0  0  0  0  0  0  0  0  0
    5.1985    3.7377    0.0000 C   0  0  0  0  0  0  0  0  0  0  0  0
    3.8969    2.9922    0.0000 C   0  0  0  0  0  0  0  0  0  0  0  0
   -3.6486   -1.3517    0.0000 Cl  0  0  0  0  0  0  0  0  0  0  0  0
    6.2450    5.8341    0.0000 O   0  0  0  0  0  0  0  0  0  0  0  0
    3.9093    7.4931    0.0000 C   0  0  0  0  0  0  0  0  0  0  0  0
    2.6111    8.2461    0.0000 N   0  0  0  0  0  0  0  0  0  0  0  0
    2.6132    9.7469    0.0000 C   0  0  0  0  0  0  0  0  0  0  0  0
    1.3085    7.5006    0.0000 C   0  0  0  0  0  0  0  0  0  0  0  0
    0.2712    8.1039    0.0000 C   0  0  0  0  0  0  0  0  0  0  0  0
    1.5752   10.3491    0.0000 C   0  0  0  0  0  0  0  0  0  0  0  0
 11 12  1  0
  5  6  1  0
 12 13  2  0
  3  6  2  0
 13 14  1  0
  6  7  1  0
 14 15  2  0
  1  2  2  0
 15 16  1  0
  7  8  2  0
 16 17  2  0
 17 12  1  0
  5  4  2  0
  2 18  1  0
  8  9  1  0
 15 19  1  0
  4  1  1  0
 14 20  1  0
  9 10  2  0
 20 21  1  0
 10  5  1  0
 21 22  1  0
 21 23  1  0
 10 11  1  0
 23 24  1  0
  2  3  1  0
 22 25  1  0
M  END
>  <Classification>  (203) 
0

>  <pchembl>  (203) 
4.11

>  <InChI_steorem>  (203) 
InChI=1S/C20H22ClN3O/c1-3-24(4-2)13-14-11-16(6-8-20(14)25)23-18-9-10-22-19-12-15(21)5-7-17(18)19/h5-12,25H,3-4,13H2,1-2H3,(H,22,23)

>  <source>  (203) 
ChEMBL25

>  <source_id>  (203) 
25

>  <optional_reference>  (203) 
10.1124/dmd.112.047068

>  <optional_origin>  (203) 
None

>  <target>  (203) 
BSEP

$$$$

     RDKit          2D

 26 28  0  0  0  0  0  0  0  0999 V2000
    2.3083    2.3798    0.0000 Cl  0  0  0  0  0  0  0  0  0  0  0  0
    0.1649   -1.3327    0.0000 O   0  0  0  0  0  0  0  0  0  0  0  0
   -0.5496   -2.5702    0.0000 O   0  0  0  0  0  0  0  0  0  0  0  0
    1.5938   -0.5077    0.0000 O   0  0  0  0  0  0  0  0  0  0  0  0
    3.0228   -1.3327    0.0000 O   0  0  0  0  0  0  0  0  0  0  0  0
   -0.5496   -0.0952    0.0000 N   0  0  0  0  0  0  0  0  0  0  0  0
   -0.5496    2.3798    0.0000 N   0  0  0  0  0  0  0  0  0  0  0  0
    0.1649    1.1423    0.0000 C   0  0  0  0  0  0  0  0  0  0  0  0
   -0.5496    0.7298    0.0000 C   0  0  0  0  0  0  0  0  0  0  0  0
    0.1649    1.9673    0.0000 C   0  0  0  0  0  0  0  0  0  0  0  0
   -1.2641   -0.5077    0.0000 C   0  0  0  0  0  0  0  0  0  0  0  0
   -1.2641   -1.3327    0.0000 C   0  0  0  0  0  0  0  0  0  0  0  0
    0.8793    0.7298    0.0000 C   0  0  0  0  0  0  0  0  0  0  0  0
   -1.2641    1.1423    0.0000 C   0  0  0  0  0  0  0  0  0  0  0  0
    0.8793    2.3798    0.0000 C   0  0  0  0  0  0  0  0  0  0  0  0
   -0.5496   -1.7452    0.0000 C   0  0  0  0  0  0  0  0  0  0  0  0
    1.5938    1.9673    0.0000 C   0  0  0  0  0  0  0  0  0  0  0  0
   -1.2641    1.9673    0.0000 C   0  0  0  0  0  0  0  0  0  0  0  0
   -1.9785   -0.0952    0.0000 C   0  0  0  0  0  0  0  0  0  0  0  0
    1.5938    1.1423    0.0000 C   0  0  0  0  0  0  0  0  0  0  0  0
   -1.9785   -1.7452    0.0000 C   0  0  0  0  0  0  0  0  0  0  0  0
   -2.6930   -0.5077    0.0000 C   0  0  0  0  0  0  0  0  0  0  0  0
   -2.6930   -1.3327    0.0000 C   0  0  0  0  0  0  0  0  0  0  0  0
    0.8793   -1.7452    0.0000 C   0  0  0  0  0  0  0  0  0  0  0  0
    1.5938   -1.3327    0.0000 C   0  0  0  0  0  0  0  0  0  0  0  0
    2.3083   -1.7452    0.0000 C   0  0  0  0  0  0  0  0  0  0  0  0
  1 17  1  0
  2 16  1  0
  2 24  1  0
  3 16  2  0
  4 25  1  0
  5 26  1  0
  6  9  1  0
  6 11  1  0
  7 10  2  0
  7 18  1  0
  8  9  2  0
  8 10  1  0
  8 13  1  0
  9 14  1  0
 10 15  1  0
 11 12  2  0
 11 19  1  0
 12 16  1  0
 12 21  1  0
 13 20  2  0
 14 18  2  0
 15 17  2  0
 17 20  1  0
 19 22  2  0
 21 23  2  0
 22 23  1  0
 24 25  1  0
 25 26  1  0
M  END
>  <Classification>  (204) 
0

>  <pchembl>  (204) 
4.65

>  <InChI_steorem>  (204) 
InChI=1S/C19H17ClN2O4/c20-12-5-6-14-17(7-8-21-18(14)9-12)22-16-4-2-1-3-15(16)19(25)26-11-13(24)10-23/h1-9,13,23-24H,10-11H2,(H,21,22)

>  <source>  (204) 
ChEMBL25

>  <source_id>  (204) 
25

>  <optional_reference>  (204) 
10.1124/dmd.111.040758

>  <optional_origin>  (204) 
None

>  <target>  (204) 
BSEP

$$$$

     RDKit          2D

 26 29  0  0  0  0  0  0  0  0999 V2000
    0.0212   -8.9049    0.0000 C   0  0  0  0  0  0  0  0  0  0  0  0
    0.0201   -9.7322    0.0000 C   0  0  0  0  0  0  0  0  0  0  0  0
    0.7349  -10.1451    0.0000 C   0  0  0  0  0  0  0  0  0  0  0  0
    0.7331   -8.4921    0.0000 C   0  0  0  0  0  0  0  0  0  0  0  0
    1.4485   -8.9012    0.0000 C   0  0  0  0  0  0  0  0  0  0  0  0
    1.4519   -9.7297    0.0000 C   0  0  0  0  0  0  0  0  0  0  0  0
    2.1671  -10.1387    0.0000 C   0  0  0  0  0  0  0  0  0  0  0  0
    2.8835   -9.7238    0.0000 C   0  0  0  0  0  0  0  0  0  0  0  0
    2.1603   -8.4818    0.0000 C   0  0  0  0  0  0  0  0  0  0  0  0
    2.8778   -8.8929    0.0000 C   0  0  0  0  0  0  0  0  0  0  0  0
    3.5886   -8.4794    0.0000 N   0  0  0  0  0  0  0  0  0  0  0  0
    2.8707   -7.2420    0.0000 C   0  0  0  0  0  0  0  0  0  0  0  0
    2.1536   -7.6571    0.0000 C   0  0  0  0  0  0  0  0  0  0  0  0
    4.3039   -8.8906    0.0000 C   0  0  0  0  0  0  0  0  0  0  0  0
    2.8689   -6.4170    0.0000 C   0  0  0  0  0  0  0  0  0  0  0  0
    3.5824   -6.0028    0.0000 N   0  0  0  0  0  0  0  0  0  0  0  0
    2.1535   -6.0061    0.0000 O   0  0  0  0  0  0  0  0  0  0  0  0
    4.2978   -6.4137    0.0000 C   0  0  0  0  0  0  0  0  0  0  0  0
    5.0113   -5.9996    0.0000 C   0  0  0  0  0  0  0  0  0  0  0  0
    4.2997   -7.2387    0.0000 C   0  0  0  0  0  0  0  0  0  0  0  0
    3.5861   -7.6528    0.0000 C   0  0  0  0  0  0  0  0  0  0  0  0
    5.0151   -7.6496    0.0000 C   0  0  0  0  0  0  0  0  0  0  0  0
    5.7267   -6.4105    0.0000 O   0  0  0  0  0  0  0  0  0  0  0  0
    0.9875  -10.9292    0.0000 N   0  0  0  0  0  0  0  0  0  0  0  0
    1.8125  -10.9292    0.0000 C   0  0  0  0  0  0  0  0  0  0  0  0
    0.5017  -11.5960    0.0000 C   0  0  0  0  0  0  0  0  0  0  0  0
  7  8  1  0
  8 10  1  0
 12 15  1  0
  9 10  1  0
 15 16  1  0
  5  4  1  0
 15 17  2  0
  4  1  2  0
 18 16  1  0
  5  6  2  0
 18 19  1  0
 18 20  1  0
  2  3  2  0
  9 13  2  0
 20 22  1  0
 10 11  1  0
 19 23  1  0
 24 25  1  0
 25  7  2  0
  3 24  1  0
 11 21  1  0
 24 26  1  0
 21 12  1  0
 12 13  1  0
  3  6  1  0
  1  2  1  0
  5  9  1  0
 11 14  1  0
  6  7  1  0
M  END
>  <Classification>  (205) 
0

>  <pchembl>  (205) 
4.48

>  <InChI_steorem>  (205) 
InChI=1S/C21H27N3O2/c1-4-15(12-25)22-21(26)14-8-17-16-6-5-7-18-20(16)13(10-23(18)2)9-19(17)24(3)11-14/h5-8,10,14-15,19,25H,4,9,11-12H2,1-3H3,(H,22,26)

>  <source>  (205) 
ChEMBL25

>  <source_id>  (205) 
25

>  <optional_reference>  (205) 
10.1124/dmd.112.047068

>  <optional_origin>  (205) 
None

>  <target>  (205) 
BSEP

$$$$

     RDKit          2D

 28 32  0  0  0  0  0  0  0  0999 V2000
    1.7500   -0.5792    0.0000 C   0  0  0  0  0  0  0  0  0  0  0  0
    1.7667   -1.6542    0.0000 C   0  0  0  0  0  0  0  0  0  0  0  0
    0.7167   -0.2667    0.0000 C   0  0  0  0  0  0  0  0  0  0  0  0
    0.1042   -1.1542    0.0000 C   0  0  0  0  0  0  0  0  0  0  0  0
    0.7542   -2.0042    0.0000 O   0  0  0  0  0  0  0  0  0  0  0  0
   -1.5083   -0.2542    0.0000 C   0  0  0  0  0  0  0  0  0  0  0  0
   -0.9458   -1.1750    0.0000 C   0  0  0  0  0  0  0  0  0  0  0  0
    2.5292    0.1458    0.0000 C   0  0  0  0  0  0  0  0  0  0  0  0
   -1.4750   -2.1125    0.0000 N   0  0  0  0  0  0  0  0  0  0  0  0
   -2.5833   -0.2750    0.0000 C   0  0  0  0  0  0  0  0  0  0  0  0
   -0.9958    0.6708    0.0000 C   0  0  0  0  0  0  0  0  0  0  0  0
   -1.5500    1.5875    0.0000 C   0  0  0  0  0  0  0  0  0  0  0  0
   -2.6208    1.5708    0.0000 C   0  0  0  0  0  0  0  0  0  0  0  0
    0.4750    0.7625    0.0000 C   0  0  0  0  0  0  0  0  0  0  0  0
   -3.1458    0.6250    0.0000 C   0  0  0  0  0  0  0  0  0  0  0  0
    2.6500   -2.2667    0.0000 O   0  0  0  0  0  0  0  0  0  0  0  0
   -1.2375    2.6208    0.0000 O   0  0  0  0  0  0  0  0  0  0  0  0
   -2.9833    2.5833    0.0000 O   0  0  0  0  0  0  0  0  0  0  0  0
    2.2792    1.1875    0.0000 C   0  0  0  0  0  0  0  0  0  0  0  0
   -2.1208    3.2333    0.0000 C   0  0  0  0  0  0  0  0  0  0  0  0
   -2.5458   -2.1292    0.0000 C   0  0  0  0  0  0  0  0  0  0  0  0
   -3.1083   -1.2167    0.0000 C   0  0  0  0  0  0  0  0  0  0  0  0
    1.2542    1.5000    0.0000 C   0  0  0  0  0  0  0  0  0  0  0  0
    3.5542   -0.1542    0.0000 O   0  0  0  0  0  0  0  0  0  0  0  0
    3.0667    1.9208    0.0000 O   0  0  0  0  0  0  0  0  0  0  0  0
   -0.9125   -3.0292    0.0000 C   0  0  0  0  0  0  0  0  0  0  0  0
    4.3417    0.5625    0.0000 C   0  0  0  0  0  0  0  0  0  0  0  0
    2.8167    2.9708    0.0000 C   0  0  0  0  0  0  0  0  0  0  0  0
  2  1  1  0
  3  1  2  0
  4  3  1  0
  5  2  1  0
  6  7  1  0
  7  4  1  0
  8  1  1  0
  9  7  1  0
 10  6  2  0
 11  6  1  0
 12 11  2  0
 13 12  1  0
 14  3  1  0
 15 10  1  0
 16  2  2  0
 17 12  1  0
 18 13  1  0
 19  8  2  0
 20 17  1  0
 21  9  1  0
 22 21  1  0
 23 19  1  0
 24  8  1  0
 25 19  1  0
 26  9  1  0
 27 24  1  0
 28 25  1  0
  4  5  1  0
 14 23  2  0
 10 22  1  0
 15 13  2  0
 18 20  1  0
M  END
>  <Classification>  (206) 
0

>  <pchembl>  (206) 
4.18

>  <InChI_steorem>  (206) 
InChI=1S/C21H21NO6/c1-22-7-6-11-8-15-16(27-10-26-15)9-13(11)18(22)19-12-4-5-14(24-2)20(25-3)17(12)21(23)28-19/h4-5,8-9,18-19H,6-7,10H2,1-3H3

>  <source>  (206) 
ChEMBL25

>  <source_id>  (206) 
25

>  <optional_reference>  (206) 
10.1124/dmd.112.047068

>  <optional_origin>  (206) 
None

>  <target>  (206) 
BSEP

$$$$

     RDKit          2D

 29 31  0  0  0  0  0  0  0  0999 V2000
    4.1954    0.8838    0.0000 S   0  0  0  0  0  0  0  0  0  0  0  0
    6.1827   -0.0431    0.0000 O   0  0  0  0  0  0  0  0  0  0  0  0
    5.5141   -1.4314    0.0000 O   0  0  0  0  0  0  0  0  0  0  0  0
    7.0572    3.2802    0.0000 O   0  0  0  0  0  0  0  0  0  0  0  0
    7.4202   -0.7576    0.0000 O   0  0  0  0  0  0  0  0  0  0  0  0
    4.1954   -0.9700    0.0000 N   0  0  0  0  0  0  0  0  0  0  0  0
    4.4330   -3.1398    0.0000 N   0  0  0  0  0  0  0  0  0  0  0  0
    4.9997    0.7002    0.0000 C   0  0  0  0  0  0  0  0  0  0  0  0
    5.3577   -0.0431    0.0000 C   0  0  0  0  0  0  0  0  0  0  0  0
    3.5504   -0.4556    0.0000 C   0  0  0  0  0  0  0  0  0  0  0  0
    4.9997   -0.7864    0.0000 C   0  0  0  0  0  0  0  0  0  0  0  0
    3.5504    0.3694    0.0000 C   0  0  0  0  0  0  0  0  0  0  0  0
    5.5141    1.3452    0.0000 C   0  0  0  0  0  0  0  0  0  0  0  0
    2.8359   -0.8681    0.0000 C   0  0  0  0  0  0  0  0  0  0  0  0
    2.8359    0.7819    0.0000 C   0  0  0  0  0  0  0  0  0  0  0  0
    4.0118   -1.7743    0.0000 C   0  0  0  0  0  0  0  0  0  0  0  0
    5.2127    2.1132    0.0000 C   0  0  0  0  0  0  0  0  0  0  0  0
    6.3299    1.2222    0.0000 C   0  0  0  0  0  0  0  0  0  0  0  0
    2.1214   -0.4556    0.0000 C   0  0  0  0  0  0  0  0  0  0  0  0
    2.1214    0.3694    0.0000 C   0  0  0  0  0  0  0  0  0  0  0  0
    6.5952   -0.7576    0.0000 C   0  0  0  0  0  0  0  0  0  0  0  0
    6.5428    2.6352    0.0000 C   0  0  0  0  0  0  0  0  0  0  0  0
    5.7270    2.7582    0.0000 C   0  0  0  0  0  0  0  0  0  0  0  0
    6.8442    1.8672    0.0000 C   0  0  0  0  0  0  0  0  0  0  0  0
    4.6166   -2.3355    0.0000 C   0  0  0  0  0  0  0  0  0  0  0  0
    6.1827   -1.4721    0.0000 C   0  0  0  0  0  0  0  0  0  0  0  0
    3.6446   -3.3829    0.0000 C   0  0  0  0  0  0  0  0  0  0  0  0
    5.0378   -3.7009    0.0000 C   0  0  0  0  0  0  0  0  0  0  0  0
    6.7558    4.0482    0.0000 C   0  0  0  0  0  0  0  0  0  0  0  0
  1  8  1  0
  1 12  1  0
  2  9  1  0
  2 21  1  0
  3 11  2  0
  4 22  1  0
  4 29  1  0
  5 21  2  0
  6 10  1  0
  6 11  1  0
  6 16  1  0
  7 25  1  0
  7 27  1  0
  7 28  1  0
  8  9  1  0
  8 13  1  0
  9 11  1  0
 10 12  2  0
 10 14  1  0
 12 15  1  0
 13 17  2  0
 13 18  1  0
 14 19  2  0
 15 20  2  0
 16 25  1  0
 17 23  1  0
 18 24  2  0
 19 20  1  0
 21 26  1  0
 22 23  2  0
 22 24  1  0
M  END
>  <Classification>  (207) 
0

>  <pchembl>  (207) 
4.09

>  <InChI_steorem>  (207) 
InChI=1S/C22H26N2O4S/c1-15(25)28-20-21(16-9-11-17(27-4)12-10-16)29-19-8-6-5-7-18(19)24(22(20)26)14-13-23(2)3/h5-12,20-21H,13-14H2,1-4H3

>  <source>  (207) 
ChEMBL25

>  <source_id>  (207) 
25

>  <optional_reference>  (207) 
10.1124/dmd.112.047068

>  <optional_origin>  (207) 
None

>  <target>  (207) 
BSEP

$$$$

     RDKit          2D

 29 31  0  0  0  0  0  0  0  0999 V2000
    8.3512   -7.2201    0.0000 C   0  0  0  0  0  0  0  0  0  0  0  0
    8.3337   -6.4116    0.0000 C   0  0  0  0  0  0  0  0  0  0  0  0
    9.0640   -7.6388    0.0000 C   0  0  0  0  0  0  0  0  0  0  0  0
    7.6354   -7.6266    0.0000 C   0  0  0  0  0  0  0  0  0  0  0  0
    7.6369   -6.8165    0.0000 C   0  0  0  0  0  0  0  0  0  0  0  0
    8.3321   -5.5778    0.0000 C   0  0  0  0  0  0  0  0  0  0  0  0
    9.0611   -8.4639    0.0000 C   0  0  0  0  0  0  0  0  0  0  0  0
    7.6290   -8.4547    0.0000 C   0  0  0  0  0  0  0  0  0  0  0  0
    6.9134   -6.4126    0.0000 C   0  0  0  0  0  0  0  0  0  0  0  0
    7.6048   -5.1715    0.0000 C   0  0  0  0  0  0  0  0  0  0  0  0
    8.3446   -8.8767    0.0000 C   0  0  0  0  0  0  0  0  0  0  0  0
    6.8938   -5.6009    0.0000 N   0  0  0  0  0  0  0  0  0  0  0  0
    6.1894   -5.2075    0.0000 C   0  0  0  0  0  0  0  0  0  0  0  0
    5.4930   -5.6197    0.0000 C   0  0  0  0  0  0  0  0  0  0  0  0
    4.7754   -5.2141    0.0000 C   0  0  0  0  0  0  0  0  0  0  0  0
    4.0628   -5.6371    0.0000 C   0  0  0  0  0  0  0  0  0  0  0  0
    3.3415   -5.2294    0.0000 C   0  0  0  0  0  0  0  0  0  0  0  0
    4.0780   -6.4567    0.0000 O   0  0  0  0  0  0  0  0  0  0  0  0
    2.6309   -5.6486    0.0000 C   0  0  0  0  0  0  0  0  0  0  0  0
    3.3262   -4.4098    0.0000 C   0  0  0  0  0  0  0  0  0  0  0  0
    1.9148   -5.2489    0.0000 C   0  0  0  0  0  0  0  0  0  0  0  0
    2.6037   -4.0216    0.0000 C   0  0  0  0  0  0  0  0  0  0  0  0
    1.8981   -4.4237    0.0000 C   0  0  0  0  0  0  0  0  0  0  0  0
    1.1784   -4.0217    0.0000 F   0  0  0  0  0  0  0  0  0  0  0  0
    9.0396   -5.9934    0.0000 O   0  0  0  0  0  0  0  0  0  0  0  0
    9.7747   -8.8780    0.0000 C   0  0  0  0  0  0  0  0  0  0  0  0
    9.7729   -9.7030    0.0000 F   0  0  0  0  0  0  0  0  0  0  0  0
   10.4901   -8.4671    0.0000 F   0  0  0  0  0  0  0  0  0  0  0  0
   10.4833   -9.2875    0.0000 F   0  0  0  0  0  0  0  0  0  0  0  0
  3  7  2  0
  4  8  1  0
  5  9  1  0
  6 10  1  0
  7 11  1  0
  8 11  2  0
  9 12  1  0
 10 12  1  0
 12 13  1  0
 13 14  1  0
 14 15  1  0
 15 16  1  0
 16 17  1  0
 16 18  2  0
 17 19  2  0
 17 20  1  0
 19 21  1  0
 20 22  2  0
 21 23  2  0
 22 23  1  0
 23 24  1  0
  2 25  1  0
  1  2  1  0
  7 26  1  0
 26 27  1  0
  1  3  1  0
 26 28  1  0
  1  4  2  0
 26 29  1  0
  2  5  1  0
  2  6  1  0
M  END
>  <Classification>  (208) 
0

>  <pchembl>  (208) 
4.71

>  <InChI_steorem>  (208) 
InChI=1S/C22H23F4NO2/c23-19-8-6-16(7-9-19)20(28)5-2-12-27-13-10-21(29,11-14-27)17-3-1-4-18(15-17)22(24,25)26/h1,3-4,6-9,15,29H,2,5,10-14H2

>  <source>  (208) 
ChEMBL25

>  <source_id>  (208) 
25

>  <optional_reference>  (208) 
10.1124/dmd.112.047068

>  <optional_origin>  (208) 
None

>  <target>  (208) 
BSEP

$$$$

     RDKit          2D

 29 32  0  0  0  0  0  0  0  0999 V2000
    2.2688    2.5045    0.0000 C   0  0  0  0  0  0  0  0  0  0  0  0
    1.5543    2.0920    0.0000 C   0  0  0  0  0  0  0  0  0  0  0  0
    1.5543    1.2670    0.0000 C   0  0  0  0  0  0  0  0  0  0  0  0
    2.2688    0.8545    0.0000 C   0  0  0  0  0  0  0  0  0  0  0  0
    2.9833    1.2670    0.0000 C   0  0  0  0  0  0  0  0  0  0  0  0
    2.9833    2.0920    0.0000 C   0  0  0  0  0  0  0  0  0  0  0  0
    3.7678    1.0120    0.0000 O   0  0  0  0  0  0  0  0  0  0  0  0
    4.2528    1.6795    0.0000 C   0  0  0  0  0  0  0  0  0  0  0  0
    3.7679    2.3469    0.0000 O   0  0  0  0  0  0  0  0  0  0  0  0
    0.8398    2.5045    0.0000 C   0  0  0  0  0  0  0  0  0  0  0  0
    0.8398    0.8545    0.0000 C   0  0  0  0  0  0  0  0  0  0  0  0
    0.1253    1.2670    0.0000 C   0  0  0  0  0  0  0  0  0  0  0  0
   -0.5892    0.8545    0.0000 C   0  0  0  0  0  0  0  0  0  0  0  0
    0.1253    2.0920    0.0000 O   0  0  0  0  0  0  0  0  0  0  0  0
   -1.3428    1.1900    0.0000 S   0  0  0  0  0  0  0  0  0  0  0  0
   -1.8948    0.5769    0.0000 C   0  0  0  0  0  0  0  0  0  0  0  0
   -1.4823   -0.1375    0.0000 C   0  0  0  0  0  0  0  0  0  0  0  0
   -0.6754    0.0340    0.0000 C   0  0  0  0  0  0  0  0  0  0  0  0
   -0.0623   -0.5181    0.0000 S   0  0  0  0  0  0  0  0  0  0  0  0
    0.5210   -1.1014    0.0000 N   0  0  0  0  0  0  0  0  0  0  0  0
    0.5056    0.0804    0.0000 O   0  0  0  0  0  0  0  0  0  0  0  0
   -0.6302   -1.1165    0.0000 O   0  0  0  0  0  0  0  0  0  0  0  0
    1.3460   -1.1014    0.0000 C   0  0  0  0  0  0  0  0  0  0  0  0
    1.8310   -1.7689    0.0000 C   0  0  0  0  0  0  0  0  0  0  0  0
    2.6156   -1.5139    0.0000 C   0  0  0  0  0  0  0  0  0  0  0  0
    2.6156   -0.6889    0.0000 N   0  0  0  0  0  0  0  0  0  0  0  0
    1.8310   -0.4340    0.0000 O   0  0  0  0  0  0  0  0  0  0  0  0
    3.2830   -1.9988    0.0000 C   0  0  0  0  0  0  0  0  0  0  0  0
    1.5760   -2.5535    0.0000 Cl  0  0  0  0  0  0  0  0  0  0  0  0
  1  2  2  0
  1  6  1  0
  2  3  1  0
  3  4  2  0
  4  5  1  0
  6  9  1  0
  6  5  2  0
  5  7  1  0
  7  8  1  0
  8  9  1  0
  2 10  1  0
  3 11  1  0
 11 12  1  0
 12 13  1  0
 12 14  2  0
 13 15  1  0
 13 18  2  0
 15 16  1  0
 16 17  2  0
 17 18  1  0
 18 19  1  0
 19 20  1  0
 19 21  2  0
 19 22  2  0
 20 23  1  0
 23 24  2  0
 23 27  1  0
 24 25  1  0
 25 26  2  0
 26 27  1  0
 25 28  1  0
 24 29  1  0
M  END
>  <Classification>  (209) 
0

>  <pchembl>  (209) 
4.9

>  <InChI_steorem>  (209) 
InChI=1S/C18H15ClN2O6S2/c1-9-5-13-14(26-8-25-13)7-11(9)6-12(22)17-15(3-4-28-17)29(23,24)21-18-16(19)10(2)20-27-18/h3-5,7,21H,6,8H2,1-2H3

>  <source>  (209) 
ChEMBL25

>  <source_id>  (209) 
25

>  <optional_reference>  (209) 
10.1093/toxsci/kft176

>  <optional_origin>  (209) 
None

>  <target>  (209) 
BSEP

$$$$

     RDKit          2D

 30 32  0  0  0  0  0  0  0  0999 V2000
   10.8854  -23.9847    0.0000 C   0  0  0  0  0  0  0  0  0  0  0  0
   11.5965  -23.5728    0.0000 C   0  0  0  0  0  0  0  0  0  0  0  0
   12.3121  -23.9847    0.0000 C   0  0  0  0  0  0  0  0  0  0  0  0
   13.0231  -23.5728    0.0000 C   0  0  0  0  0  0  0  0  0  0  0  0
   13.7342  -23.9847    0.0000 C   0  0  0  0  0  0  0  0  0  0  0  0
   14.4453  -23.5728    0.0000 C   0  0  0  0  0  0  0  0  0  0  0  0
   15.1563  -23.9847    0.0000 C   0  0  0  0  0  0  0  0  0  0  0  0
   15.1529  -24.8133    0.0000 O   0  0  0  0  0  0  0  0  0  0  0  0
   15.8759  -23.5711    0.0000 O   0  0  0  0  0  0  0  0  0  0  0  0
   13.7342  -24.8133    0.0000 O   0  0  0  0  0  0  0  0  0  0  0  0
   12.3121  -24.8133    0.0000 O   0  0  0  0  0  0  0  0  0  0  0  0
   10.1704  -23.5711    0.0000 C   0  0  0  0  0  0  0  0  0  0  0  0
   10.0800  -22.7501    0.0000 C   0  0  0  0  0  0  0  0  0  0  0  0
    9.4133  -23.9126    0.0000 N   0  0  0  0  0  0  0  0  0  0  0  0
    8.8580  -23.2973    0.0000 C   0  0  0  0  0  0  0  0  0  0  0  0
    9.2730  -22.5849    0.0000 C   0  0  0  0  0  0  0  0  0  0  0  0
    8.8606  -21.8747    0.0000 C   0  0  0  0  0  0  0  0  0  0  0  0
    8.0334  -21.8747    0.0000 C   0  0  0  0  0  0  0  0  0  0  0  0
    7.6260  -22.5903    0.0000 C   0  0  0  0  0  0  0  0  0  0  0  0
    8.0378  -23.3002    0.0000 C   0  0  0  0  0  0  0  0  0  0  0  0
    9.2449  -24.7208    0.0000 C   0  0  0  0  0  0  0  0  0  0  0  0
    8.4569  -24.9783    0.0000 C   0  0  0  0  0  0  0  0  0  0  0  0
    9.8551  -25.2715    0.0000 C   0  0  0  0  0  0  0  0  0  0  0  0
   10.6923  -22.1957    0.0000 C   0  0  0  0  0  0  0  0  0  0  0  0
   11.4780  -22.4495    0.0000 C   0  0  0  0  0  0  0  0  0  0  0  0
   12.0849  -21.8918    0.0000 C   0  0  0  0  0  0  0  0  0  0  0  0
   11.9108  -21.0843    0.0000 C   0  0  0  0  0  0  0  0  0  0  0  0
   11.1205  -20.8347    0.0000 C   0  0  0  0  0  0  0  0  0  0  0  0
   10.5099  -21.3905    0.0000 C   0  0  0  0  0  0  0  0  0  0  0  0
   12.5217  -20.5287    0.0000 F   0  0  0  0  0  0  0  0  0  0  0  0
  1  2  2  3
  2  3  1  0
  3  4  1  0
  4  5  1  0
  5  6  1  0
  6  7  1  0
  7  8  1  0
  7  9  2  0
  5 10  1  0
  3 11  1  0
  1 12  1  0
 12 13  2  0
 13 16  1  0
 15 14  1  0
 14 12  1  0
 15 16  2  0
 16 17  1  0
 17 18  2  0
 18 19  1  0
 19 20  2  0
 20 15  1  0
 14 21  1  0
 21 22  1  0
 21 23  1  0
 13 24  1  0
 24 25  2  0
 25 26  1  0
 26 27  2  0
 27 28  1  0
 28 29  2  0
 29 24  1  0
 27 30  1  0
M  END
>  <Classification>  (210) 
0

>  <pchembl>  (210) 
4.44

>  <InChI_steorem>  (210) 
InChI=1S/C24H26FNO4/c1-15(2)26-21-6-4-3-5-20(21)24(16-7-9-17(25)10-8-16)22(26)12-11-18(27)13-19(28)14-23(29)30/h3-12,15,18-19,27-28H,13-14H2,1-2H3,(H,29,30)

>  <source>  (210) 
ChEMBL25

>  <source_id>  (210) 
25

>  <optional_reference>  (210) 
10.1093/toxsci/kfq269

>  <optional_origin>  (210) 
None

>  <target>  (210) 
BSEP

$$$$

     RDKit          2D

 30 33  0  0  0  0  0  0  0  0999 V2000
   -1.8853   -0.1196    0.0000 N   0  0  0  0  0  0  0  0  0  0  0  0
   -1.2237    0.3735    0.0000 N   0  0  0  0  0  0  0  0  0  0  0  0
   -1.4882    1.1552    0.0000 C   0  0  0  0  0  0  0  0  0  0  0  0
   -2.3134    1.1451    0.0000 C   0  0  0  0  0  0  0  0  0  0  0  0
   -2.5586    0.3579    0.0000 C   0  0  0  0  0  0  0  0  0  0  0  0
   -3.2727   -0.0478    0.0000 C   0  0  0  0  0  0  0  0  0  0  0  0
   -3.9836    0.3727    0.0000 C   0  0  0  0  0  0  0  0  0  0  0  0
   -4.7011   -0.0326    0.0000 C   0  0  0  0  0  0  0  0  0  0  0  0
   -4.7088   -0.8583    0.0000 C   0  0  0  0  0  0  0  0  0  0  0  0
   -3.9932   -1.2769    0.0000 C   0  0  0  0  0  0  0  0  0  0  0  0
   -3.2787   -0.8692    0.0000 C   0  0  0  0  0  0  0  0  0  0  0  0
   -2.8064    1.8064    0.0000 C   0  0  0  0  0  0  0  0  0  0  0  0
   -1.0842    1.8747    0.0000 C   0  0  0  0  0  0  0  0  0  0  0  0
   -0.2595    1.8847    0.0000 N   0  0  0  0  0  0  0  0  0  0  0  0
   -1.5052    2.5839    0.0000 O   0  0  0  0  0  0  0  0  0  0  0  0
    0.1442    2.6039    0.0000 N   0  0  0  0  0  0  0  0  0  0  0  0
    0.9708    2.6086    0.0000 C   0  0  0  0  0  0  0  0  0  0  0  0
    1.3747    3.3219    0.0000 C   0  0  0  0  0  0  0  0  0  0  0  0
    0.9575    4.0341    0.0000 C   0  0  0  0  0  0  0  0  0  0  0  0
    0.1317    4.0320    0.0000 C   0  0  0  0  0  0  0  0  0  0  0  0
   -0.2761    3.3011    0.0000 C   0  0  0  0  0  0  0  0  0  0  0  0
   -1.8731   -0.9422    0.0000 C   0  0  0  0  0  0  0  0  0  0  0  0
   -2.5839   -1.3627    0.0000 C   0  0  0  0  0  0  0  0  0  0  0  0
   -2.5742   -2.1867    0.0000 C   0  0  0  0  0  0  0  0  0  0  0  0
   -1.8544   -2.5911    0.0000 C   0  0  0  0  0  0  0  0  0  0  0  0
   -1.1429   -2.1656    0.0000 C   0  0  0  0  0  0  0  0  0  0  0  0
   -1.1561   -1.3430    0.0000 C   0  0  0  0  0  0  0  0  0  0  0  0
   -5.4263   -1.2652    0.0000 Cl  0  0  0  0  0  0  0  0  0  0  0  0
   -0.4481   -0.9201    0.0000 Cl  0  0  0  0  0  0  0  0  0  0  0  0
   -1.8433   -3.4159    0.0000 Cl  0  0  0  0  0  0  0  0  0  0  0  0
  2  3  2  0
 13 15  2  0
  7  8  2  0
 14 16  1  0
 16 17  1  0
  3  4  1  0
  8  9  1  0
  4  5  2  0
  9 10  2  0
  5  1  1  0
 16 21  1  0
 17 18  1  0
 18 19  1  0
 19 20  1  0
 20 21  1  0
 10 11  1  0
 11  6  2  0
 22 23  2  0
  5  6  1  0
 23 24  1  0
  1  2  1  0
 24 25  2  0
  4 12  1  0
 25 26  1  0
 26 27  2  0
 27 22  1  0
  1 22  1  0
  3 13  1  0
  9 28  1  0
  6  7  1  0
 27 29  1  0
 13 14  1  0
 25 30  1  0
M  END
>  <Classification>  (211) 
0

>  <pchembl>  (211) 
4.6

>  <InChI_steorem>  (211) 
InChI=1S/C22H21Cl3N4O/c1-14-20(22(30)27-28-11-3-2-4-12-28)26-29(19-10-9-17(24)13-18(19)25)21(14)15-5-7-16(23)8-6-15/h5-10,13H,2-4,11-12H2,1H3,(H,27,30)

>  <source>  (211) 
ChEMBL25

>  <source_id>  (211) 
25

>  <optional_reference>  (211) 
10.1093/toxsci/kft176

>  <optional_origin>  (211) 
None

>  <target>  (211) 
BSEP

$$$$

     RDKit          2D

 27 30  0  0  0  0  0  0  0  0999 V2000
    2.1958   -8.6500    0.0000 C   0  0  0  0  0  0  0  0  0  0  0  0
    4.0417   -7.6000    0.0000 C   0  0  0  0  0  0  0  0  0  0  0  0
    2.1958   -9.3542    0.0000 C   0  0  0  0  0  0  0  0  0  0  0  0
    4.7167   -7.3875    0.0000 C   0  0  0  0  0  0  0  0  0  0  0  0
    2.8125   -8.2917    0.0000 C   0  0  0  0  0  0  0  0  0  0  0  0
    3.4250   -8.6542    0.0000 C   0  0  0  0  0  0  0  0  0  0  0  0
    4.0375   -8.3042    0.0000 C   0  0  0  0  0  0  0  0  0  0  0  0
    1.5875   -8.2917    0.0000 C   0  0  0  0  0  0  0  0  0  0  0  0
    3.4292   -7.2375    0.0000 C   0  0  0  0  0  0  0  0  0  0  0  0
    2.8167   -7.5875    0.0000 C   0  0  0  0  0  0  0  0  0  0  0  0
    3.4167   -9.3625    0.0000 C   0  0  0  0  0  0  0  0  0  0  0  0
    1.5875   -9.7125    0.0000 C   0  0  0  0  0  0  0  0  0  0  0  0
    2.8042   -9.7125    0.0000 C   0  0  0  0  0  0  0  0  0  0  0  0
    4.7167   -6.6792    0.0000 C   0  0  0  0  0  0  0  0  0  0  0  0
    5.1292   -7.9625    0.0000 C   0  0  0  0  0  0  0  0  0  0  0  0
    4.7042   -8.5292    0.0000 C   0  0  0  0  0  0  0  0  0  0  0  0
    0.9792   -8.6500    0.0000 C   0  0  0  0  0  0  0  0  0  0  0  0
    0.9792   -9.3542    0.0000 C   0  0  0  0  0  0  0  0  0  0  0  0
    4.1000   -6.3292    0.0000 O   0  0  0  0  0  0  0  0  0  0  0  0
    0.3625   -9.7042    0.0000 O   0  0  0  0  0  0  0  0  0  0  0  0
    5.3292   -7.0292    0.0000 O   0  0  0  0  0  0  0  0  0  0  0  0
    2.1917   -7.9417    0.0000 C   0  0  0  0  0  0  0  0  0  0  0  0
    4.0417   -6.8917    0.0000 C   0  0  0  0  0  0  0  0  0  0  0  0
    2.2042   -7.2292    0.0000 O   0  0  0  0  0  0  0  0  0  0  0  0
    5.3250   -6.3167    0.0000 C   0  0  0  0  0  0  0  0  0  0  0  0
    5.9417   -6.6667    0.0000 O   0  0  0  0  0  0  0  0  0  0  0  0
    2.8042  -10.4167    0.0000 C   0  0  0  0  0  0  0  0  0  0  0  0
  2  9  1  0
  3  1  1  0
  4  2  1  0
  5  1  1  0
  6  5  1  0
  7  6  1  0
  8  1  1  0
  9 10  1  0
 10  5  1  0
 11  6  1  0
 12  3  2  0
 13  3  1  0
 14  4  1  0
 15 16  1  0
 16  7  1  0
 17  8  2  0
 18 12  1  0
 19 14  2  0
 20 18  2  0
  4 21  1  0
  1 22  1  0
  2 23  1  0
 10 24  1  0
 25 14  1  0
 26 25  1  0
 13 27  1  0
 11 13  1  0
  7  2  1  0
 17 18  1  0
  4 15  1  0
M  END
>  <Classification>  (212) 
0

>  <pchembl>  (212) 
4.48

>  <InChI_steorem>  (212) 
InChI=1S/C22H30O5/c1-12-8-14-15-5-7-22(27,18(26)11-23)21(15,3)10-17(25)19(14)20(2)6-4-13(24)9-16(12)20/h4,6,9,12,14-15,17,19,23,25,27H,5,7-8,10-11H2,1-3H3

>  <source>  (212) 
ChEMBL25

>  <source_id>  (212) 
25

>  <optional_reference>  (212) 
10.1124/dmd.112.047068

>  <optional_origin>  (212) 
None

>  <target>  (212) 
BSEP

$$$$

     RDKit          2D

 30 33  0  0  0  0  0  0  0  0999 V2000
    6.6125   -3.9667    0.0000 S   0  0  0  0  0  0  0  0  0  0  0  0
    4.1458   -3.9667    0.0000 C   0  0  0  0  0  0  0  0  0  0  0  0
    4.7667   -3.6083    0.0000 C   0  0  0  0  0  0  0  0  0  0  0  0
    4.1500   -2.5333    0.0000 S   0  0  0  0  0  0  0  0  0  0  0  0
    6.0000   -3.6125    0.0000 C   0  0  0  0  0  0  0  0  0  0  0  0
    4.7708   -2.8958    0.0000 C   0  0  0  0  0  0  0  0  0  0  0  0
    3.5333   -3.6083    0.0000 C   0  0  0  0  0  0  0  0  0  0  0  0
    5.3833   -3.9667    0.0000 C   0  0  0  0  0  0  0  0  0  0  0  0
    3.5333   -2.8958    0.0000 C   0  0  0  0  0  0  0  0  0  0  0  0
    7.2292   -3.6125    0.0000 N   0  0  0  0  0  0  0  0  0  0  0  0
    6.9625   -4.5792    0.0000 O   0  0  0  0  0  0  0  0  0  0  0  0
    6.2542   -4.5792    0.0000 O   0  0  0  0  0  0  0  0  0  0  0  0
    5.3750   -6.0917    0.0000 N   0  0  0  0  0  0  0  0  0  0  0  0
    6.5958   -6.8000    0.0000 N   0  0  0  0  0  0  0  0  0  0  0  0
    4.1458   -4.6750    0.0000 C   0  0  0  0  0  0  0  0  0  0  0  0
    6.0000   -2.8958    0.0000 C   0  0  0  0  0  0  0  0  0  0  0  0
    5.3833   -2.5417    0.0000 C   0  0  0  0  0  0  0  0  0  0  0  0
    5.9792   -7.1542    0.0000 C   0  0  0  0  0  0  0  0  0  0  0  0
    6.6000   -6.0917    0.0000 C   0  0  0  0  0  0  0  0  0  0  0  0
    5.3708   -6.8000    0.0000 C   0  0  0  0  0  0  0  0  0  0  0  0
    5.9833   -5.7333    0.0000 C   0  0  0  0  0  0  0  0  0  0  0  0
    4.7625   -5.0292    0.0000 C   0  0  0  0  0  0  0  0  0  0  0  0
    4.7625   -5.7375    0.0000 C   0  0  0  0  0  0  0  0  0  0  0  0
    2.9208   -3.9625    0.0000 C   0  0  0  0  0  0  0  0  0  0  0  0
    2.9208   -2.5417    0.0000 C   0  0  0  0  0  0  0  0  0  0  0  0
    7.2083   -7.1583    0.0000 C   0  0  0  0  0  0  0  0  0  0  0  0
    7.8417   -3.9667    0.0000 C   0  0  0  0  0  0  0  0  0  0  0  0
    7.2292   -2.9042    0.0000 C   0  0  0  0  0  0  0  0  0  0  0  0
    2.3083   -3.6083    0.0000 C   0  0  0  0  0  0  0  0  0  0  0  0
    2.3083   -2.9000    0.0000 C   0  0  0  0  0  0  0  0  0  0  0  0
  2  3  1  0
  3  8  2  0
  4  6  1  0
  5  1  1  0
  6 17  2  0
  7  2  1  0
  8  5  1  0
  9  4  1  0
 10  1  1  0
 11  1  2  0
 12  1  2  0
 13 23  1  0
 14 19  1  0
 15  2  2  3
 16  5  2  0
 17 16  1  0
 18 20  1  0
 19 21  1  0
 20 13  1  0
 21 13  1  0
 22 15  1  0
 23 22  1  0
 24  7  2  0
 25  9  2  0
 26 14  1  0
 27 10  1  0
 28 10  1  0
 29 24  1  0
 30 25  1  0
  3  6  1  0
  7  9  1  0
 29 30  2  0
 14 18  1  0
M  END
>  <Classification>  (213) 
0

>  <pchembl>  (213) 
4.52

>  <InChI_steorem>  (213) 
InChI=1S/C23H29N3O2S2/c1-24(2)30(27,28)18-10-11-23-21(17-18)19(20-7-4-5-9-22(20)29-23)8-6-12-26-15-13-25(3)14-16-26/h4-5,7-11,17H,6,12-16H2,1-3H3

>  <source>  (213) 
ChEMBL25

>  <source_id>  (213) 
25

>  <optional_reference>  (213) 
10.1124/dmd.112.047068

>  <optional_origin>  (213) 
None

>  <target>  (213) 
BSEP

$$$$

     RDKit          2D

 30 34  0  0  0  0  0  0  0  0999 V2000
    4.9848   -0.4917    0.0000 O   0  0  0  0  0  0  0  0  0  0  0  0
    2.7242    0.9758    0.0000 O   0  0  0  0  0  0  0  0  0  0  0  0
    4.2233   -0.0067    0.0000 O   0  0  0  0  0  0  0  0  0  0  0  0
    2.7242    2.3107    0.0000 O   0  0  0  0  0  0  0  0  0  0  0  0
    6.3618   -2.6740    0.0000 O   0  0  0  0  0  0  0  0  0  0  0  0
    4.7548   -1.9437    0.0000 O   0  0  0  0  0  0  0  0  0  0  0  0
    7.9758   -2.3309    0.0000 O   0  0  0  0  0  0  0  0  0  0  0  0
    6.3667    1.2308    0.0000 N   0  0  0  0  0  0  0  0  0  0  0  0
    5.6522    0.8183    0.0000 C   0  0  0  0  0  0  0  0  0  0  0  0
    5.6522   -0.0067    0.0000 C   0  0  0  0  0  0  0  0  0  0  0  0
    4.9378    1.2308    0.0000 C   0  0  0  0  0  0  0  0  0  0  0  0
    6.3197   -0.4917    0.0000 C   0  0  0  0  0  0  0  0  0  0  0  0
    6.0647   -1.2763    0.0000 C   0  0  0  0  0  0  0  0  0  0  0  0
    4.2233    0.8183    0.0000 C   0  0  0  0  0  0  0  0  0  0  0  0
    4.9378    2.0558    0.0000 C   0  0  0  0  0  0  0  0  0  0  0  0
    5.2397   -1.2763    0.0000 C   0  0  0  0  0  0  0  0  0  0  0  0
    3.5088    1.2308    0.0000 C   0  0  0  0  0  0  0  0  0  0  0  0
    6.6168   -1.8894    0.0000 C   0  0  0  0  0  0  0  0  0  0  0  0
    3.5088    2.0558    0.0000 C   0  0  0  0  0  0  0  0  0  0  0  0
    4.2233    2.4683    0.0000 C   0  0  0  0  0  0  0  0  0  0  0  0
    7.1267   -0.3201    0.0000 C   0  0  0  0  0  0  0  0  0  0  0  0
    7.4237   -1.7179    0.0000 C   0  0  0  0  0  0  0  0  0  0  0  0
    5.6522    2.4683    0.0000 C   0  0  0  0  0  0  0  0  0  0  0  0
    6.3667    2.0558    0.0000 C   0  0  0  0  0  0  0  0  0  0  0  0
    7.6787   -0.9332    0.0000 C   0  0  0  0  0  0  0  0  0  0  0  0
    2.2393    1.6433    0.0000 C   0  0  0  0  0  0  0  0  0  0  0  0
    7.0812    0.8183    0.0000 C   0  0  0  0  0  0  0  0  0  0  0  0
    3.5088   -0.4192    0.0000 C   0  0  0  0  0  0  0  0  0  0  0  0
    6.9139   -3.2871    0.0000 C   0  0  0  0  0  0  0  0  0  0  0  0
    7.7208   -3.1156    0.0000 C   0  0  0  0  0  0  0  0  0  0  0  0
  1 10  1  0
  1 16  1  0
  2 17  1  0
  2 26  1  0
  3 14  1  0
  3 28  1  0
  4 19  1  0
  4 26  1  0
  5 18  1  0
  5 29  1  0
  6 16  2  0
  7 22  1  0
  7 30  1  0
  8  9  1  0
  8 24  1  0
  8 27  1  0
  9 10  1  0
  9 11  1  0
 10 12  1  0
 11 14  1  0
 11 15  2  0
 12 13  2  0
 12 21  1  0
 13 16  1  0
 13 18  1  0
 14 17  2  0
 15 20  1  0
 15 23  1  0
 17 19  1  0
 18 22  2  0
 19 20  2  0
 21 25  2  0
 22 25  1  0
 23 24  1  0
M  END
>  <Classification>  (214) 
0

>  <pchembl>  (214) 
4.62

>  <InChI_steorem>  (214) 
InChI=1S/C22H23NO7/c1-23-8-7-11-9-14-20(29-10-28-14)21(27-4)15(11)17(23)18-12-5-6-13(25-2)19(26-3)16(12)22(24)30-18/h5-6,9,17-18H,7-8,10H2,1-4H3

>  <source>  (214) 
ChEMBL25

>  <source_id>  (214) 
25

>  <optional_reference>  (214) 
10.1124/dmd.112.047068

>  <optional_origin>  (214) 
None

>  <target>  (214) 
BSEP

$$$$

     RDKit          2D

 31 33  0  0  0  0  0  0  0  0999 V2000
   -0.8333   -1.1500    0.0000 C   0  0  0  0  0  0  0  0  0  0  0  0
   -0.8333   -1.8750    0.0000 C   0  0  0  0  0  0  0  0  0  0  0  0
   -0.2208   -0.7792    0.0000 C   0  0  0  0  0  0  0  0  0  0  0  0
    0.3792   -1.1500    0.0000 C   0  0  0  0  0  0  0  0  0  0  0  0
    0.3792   -1.8750    0.0000 C   0  0  0  0  0  0  0  0  0  0  0  0
   -0.2208   -2.2292    0.0000 C   0  0  0  0  0  0  0  0  0  0  0  0
   -1.5333   -0.9292    0.0000 C   0  0  0  0  0  0  0  0  0  0  0  0
   -1.9333   -1.5125    0.0000 O   0  0  0  0  0  0  0  0  0  0  0  0
   -1.5333   -2.0750    0.0000 C   0  0  0  0  0  0  0  0  0  0  0  0
    0.9917   -0.8000    0.0000 C   0  0  0  0  0  0  0  0  0  0  0  0
    1.6167   -1.1500    0.0000 C   0  0  0  0  0  0  0  0  0  0  0  0
    6.5292   -1.1625    0.0000 N   0  0  0  0  0  0  0  0  0  0  0  0
    4.0667   -1.1500    0.0000 C   0  0  0  0  0  0  0  0  0  0  0  0
   -1.7708   -0.2625    0.0000 O   0  0  0  0  0  0  0  0  0  0  0  0
    2.2292   -0.7792    0.0000 C   0  0  0  0  0  0  0  0  0  0  0  0
    4.0667   -1.8500    0.0000 O   0  0  0  0  0  0  0  0  0  0  0  0
   -0.2208   -0.0625    0.0000 O   0  0  0  0  0  0  0  0  0  0  0  0
    7.7792   -1.8500    0.0000 O   0  0  0  0  0  0  0  0  0  0  0  0
    0.9917   -2.2375    0.0000 O   0  0  0  0  0  0  0  0  0  0  0  0
    3.4542   -0.8000    0.0000 C   0  0  0  0  0  0  0  0  0  0  0  0
    2.8417   -1.1500    0.0000 C   0  0  0  0  0  0  0  0  0  0  0  0
    4.6792   -0.8000    0.0000 O   0  0  0  0  0  0  0  0  0  0  0  0
   -0.2208   -2.9375    0.0000 C   0  0  0  0  0  0  0  0  0  0  0  0
    5.9292   -0.8000    0.0000 C   0  0  0  0  0  0  0  0  0  0  0  0
    5.3042   -1.1500    0.0000 C   0  0  0  0  0  0  0  0  0  0  0  0
    7.1667   -0.7792    0.0000 C   0  0  0  0  0  0  0  0  0  0  0  0
    6.5417   -1.8500    0.0000 C   0  0  0  0  0  0  0  0  0  0  0  0
    7.7792   -1.1375    0.0000 C   0  0  0  0  0  0  0  0  0  0  0  0
    7.1667   -2.2167    0.0000 C   0  0  0  0  0  0  0  0  0  0  0  0
    2.2292   -0.0792    0.0000 C   0  0  0  0  0  0  0  0  0  0  0  0
    1.6167   -1.8917    0.0000 C   0  0  0  0  0  0  0  0  0  0  0  0
  2  1  1  0
  3  1  2  0
  4  3  1  0
  5  4  2  0
  6  2  2  0
  7  1  1  0
  8  7  1  0
  9  2  1  0
 10  4  1  0
 11 10  1  0
 12 24  1  0
 13 20  1  0
 14  7  2  0
 15 11  2  3
 16 13  2  0
 17  3  1  0
 18 28  1  0
 19  5  1  0
 20 21  1  0
 21 15  1  0
 22 13  1  0
 23  6  1  0
 24 25  1  0
 25 22  1  0
 26 12  1  0
 27 12  1  0
 28 26  1  0
 29 27  1  0
 30 15  1  0
 31 19  1  0
  8  9  1  0
  5  6  1  0
 18 29  1  0
M  END
>  <Classification>  (215) 
0

>  <pchembl>  (215) 
4.12

>  <InChI_steorem>  (215) 
InChI=1S/C23H31NO7/c1-15(5-7-19(25)30-13-10-24-8-11-29-12-9-24)4-6-17-21(26)20-18(14-31-23(20)27)16(2)22(17)28-3/h4,26H,5-14H2,1-3H3

>  <source>  (215) 
ChEMBL25

>  <source_id>  (215) 
25

>  <optional_reference>  (215) 
10.1093/toxsci/kft176

>  <optional_origin>  (215) 
None

>  <target>  (215) 
BSEP

$$$$

     RDKit          2D

 31 33  0  0  0  0  0  0  0  0999 V2000
    2.4909    1.0270    0.0000 O   0  0  0  0  0  0  0  0  0  0  0  0
    5.0089   -1.6751    0.0000 O   0  0  0  0  0  0  0  0  0  0  0  0
    5.0089   -0.2462    0.0000 O   0  0  0  0  0  0  0  0  0  0  0  0
    2.5239    3.8649    0.0000 O   0  0  0  0  0  0  0  0  0  0  0  0
    3.9170    3.5469    0.0000 O   0  0  0  0  0  0  0  0  0  0  0  0
    3.5499    1.9383    0.0000 N   0  0  0  0  0  0  0  0  0  0  0  0
    3.3589   -0.2462    0.0000 N   0  0  0  0  0  0  0  0  0  0  0  0
    4.3178    2.2397    0.0000 C   0  0  0  0  0  0  0  0  0  0  0  0
    3.3067    1.1499    0.0000 C   0  0  0  0  0  0  0  0  0  0  0  0
    3.7714    0.4683    0.0000 C   0  0  0  0  0  0  0  0  0  0  0  0
    5.0323    1.8272    0.0000 C   0  0  0  0  0  0  0  0  0  0  0  0
    4.5941    0.4066    0.0000 C   0  0  0  0  0  0  0  0  0  0  0  0
    5.1553    1.0114    0.0000 C   0  0  0  0  0  0  0  0  0  0  0  0
    4.3178    3.0647    0.0000 C   0  0  0  0  0  0  0  0  0  0  0  0
    2.9451    2.4994    0.0000 C   0  0  0  0  0  0  0  0  0  0  0  0
    5.7468    2.2397    0.0000 C   0  0  0  0  0  0  0  0  0  0  0  0
    3.7714   -0.9607    0.0000 C   0  0  0  0  0  0  0  0  0  0  0  0
    5.0323    3.4772    0.0000 C   0  0  0  0  0  0  0  0  0  0  0  0
    5.7468    3.0647    0.0000 C   0  0  0  0  0  0  0  0  0  0  0  0
    3.1287    3.3037    0.0000 C   0  0  0  0  0  0  0  0  0  0  0  0
    4.5964   -0.9607    0.0000 C   0  0  0  0  0  0  0  0  0  0  0  0
    3.3589   -1.6751    0.0000 C   0  0  0  0  0  0  0  0  0  0  0  0
    3.7714   -2.3896    0.0000 C   0  0  0  0  0  0  0  0  0  0  0  0
    3.3589   -3.1041    0.0000 C   0  0  0  0  0  0  0  0  0  0  0  0
    3.7714   -3.8185    0.0000 C   0  0  0  0  0  0  0  0  0  0  0  0
    2.5339   -3.1041    0.0000 C   0  0  0  0  0  0  0  0  0  0  0  0
    5.8339   -1.6751    0.0000 C   0  0  0  0  0  0  0  0  0  0  0  0
    3.3589   -4.5330    0.0000 C   0  0  0  0  0  0  0  0  0  0  0  0
    2.1214   -3.8185    0.0000 C   0  0  0  0  0  0  0  0  0  0  0  0
    2.5339   -4.5330    0.0000 C   0  0  0  0  0  0  0  0  0  0  0  0
    6.2464   -2.3896    0.0000 C   0  0  0  0  0  0  0  0  0  0  0  0
  1  9  2  0
  2 21  1  0
  2 27  1  0
  3 21  2  0
  4 20  2  0
  5 20  1  0
  6  8  1  0
  6  9  1  0
  6 15  1  0
  7 10  1  0
  7 17  1  0
  8 11  2  0
  8 14  1  0
  9 10  1  0
 10 12  1  0
 11 13  1  0
 11 16  1  0
 12 13  1  0
 14 18  2  0
 15 20  1  0
 16 19  2  0
 17 21  1  0
 17 22  1  0
 18 19  1  0
 22 23  1  0
 23 24  1  0
 24 25  2  0
 24 26  1  0
 25 28  1  0
 26 29  2  0
 27 31  1  0
 28 30  2  0
 29 30  1  0
M  END
>  <Classification>  (216) 
0

>  <pchembl>  (216) 
4.13

>  <InChI_steorem>  (216) 
InChI=1S/C24H28N2O5/c1-2-31-24(30)20(14-12-17-8-4-3-5-9-17)25-19-15-13-18-10-6-7-11-21(18)26(23(19)29)16-22(27)28/h3-11,19-20,25H,2,12-16H2,1H3,(H,27,28)

>  <source>  (216) 
ChEMBL25

>  <source_id>  (216) 
25

>  <optional_reference>  (216) 
10.1124/dmd.112.047068

>  <optional_origin>  (216) 
None

>  <target>  (216) 
BSEP

$$$$

     RDKit          2D

 30 33  0  0  0  0  0  0  0  0999 V2000
    5.3375   -5.5792    0.0000 N   0  0  0  0  0  0  0  0  0  0  0  0
    5.3375   -4.8750    0.0000 C   0  0  0  0  0  0  0  0  0  0  0  0
    4.6250   -5.5792    0.0000 C   0  0  0  0  0  0  0  0  0  0  0  0
    4.6250   -4.8750    0.0000 C   0  0  0  0  0  0  0  0  0  0  0  0
    2.5792   -3.8417    0.0000 C   0  0  0  0  0  0  0  0  0  0  0  0
    2.7875   -4.5167    0.0000 C   0  0  0  0  0  0  0  0  0  0  0  0
    6.0125   -5.8042    0.0000 C   0  0  0  0  0  0  0  0  0  0  0  0
    6.0125   -4.6542    0.0000 S   0  0  0  0  0  0  0  0  0  0  0  0
    3.4042   -4.8667    0.0000 C   0  0  0  0  0  0  0  0  0  0  0  0
    1.8625   -3.8375    0.0000 N   0  0  0  0  0  0  0  0  0  0  0  0
    6.4292   -5.2375    0.0000 C   0  0  0  0  0  0  0  0  0  0  0  0
    4.0250   -4.5292    0.0000 N   0  0  0  0  0  0  0  0  0  0  0  0
    2.9292   -3.2250    0.0000 C   0  0  0  0  0  0  0  0  0  0  0  0
    1.6500   -4.5083    0.0000 O   0  0  0  0  0  0  0  0  0  0  0  0
    2.2167   -4.9417    0.0000 C   0  0  0  0  0  0  0  0  0  0  0  0
    6.0292   -6.5167    0.0000 C   0  0  0  0  0  0  0  0  0  0  0  0
    4.1417   -6.0917    0.0000 O   0  0  0  0  0  0  0  0  0  0  0  0
    3.6417   -3.2250    0.0000 C   0  0  0  0  0  0  0  0  0  0  0  0
    2.5792   -2.6167    0.0000 C   0  0  0  0  0  0  0  0  0  0  0  0
    3.4000   -5.5750    0.0000 O   0  0  0  0  0  0  0  0  0  0  0  0
    6.6542   -6.8542    0.0000 O   0  0  0  0  0  0  0  0  0  0  0  0
    5.4292   -6.8875    0.0000 O   0  0  0  0  0  0  0  0  0  0  0  0
    4.0000   -3.8417    0.0000 Cl  0  0  0  0  0  0  0  0  0  0  0  0
    1.8667   -2.6042    0.0000 Cl  0  0  0  0  0  0  0  0  0  0  0  0
    6.9542   -4.7542    0.0000 C   0  0  0  0  0  0  0  0  0  0  0  0
    6.9542   -5.7042    0.0000 C   0  0  0  0  0  0  0  0  0  0  0  0
    2.2125   -5.6375    0.0000 C   0  0  0  0  0  0  0  0  0  0  0  0
    3.6375   -2.0042    0.0000 C   0  0  0  0  0  0  0  0  0  0  0  0
    3.9875   -2.6167    0.0000 C   0  0  0  0  0  0  0  0  0  0  0  0
    2.9292   -2.0000    0.0000 C   0  0  0  0  0  0  0  0  0  0  0  0
  2  1  1  0
  3  1  1  0
  4  3  1  0
  5  6  1  0
  6  9  1  0
  7  1  1  0
  8  2  1  0
  9 12  1  0
 10  5  2  0
 11  7  1  0
  4 12  1  0
 13  5  1  0
 14 15  1  0
 15  6  2  0
  7 16  1  0
 17  3  2  0
 18 13  2  0
 19 13  1  0
 20  9  2  0
 21 16  1  0
 22 16  2  0
 23 18  1  0
 24 19  1  0
 25 11  1  0
 26 11  1  0
 27 15  1  0
 28 30  1  0
 29 18  1  0
 30 19  2  0
 11  8  1  0
  4  2  1  0
 14 10  1  0
 28 29  2  0
M  END
>  <Classification>  (217) 
0

>  <pchembl>  (217) 
4.16

>  <InChI_steorem>  (217) 
InChI=1S/C19H17Cl2N3O5S/c1-7-10(12(23-29-7)11-8(20)5-4-6-9(11)21)15(25)22-13-16(26)24-14(18(27)28)19(2,3)30-17(13)24/h4-6,13-14,17H,1-3H3,(H,22,25)(H,27,28)

>  <source>  (217) 
ChEMBL25

>  <source_id>  (217) 
25

>  <optional_reference>  (217) 
10.1124/dmd.111.040758

>  <optional_origin>  (217) 
None

>  <target>  (217) 
BSEP

$$$$

     RDKit          2D

 33 35  0  0  0  0  0  0  0  0999 V2000
   -3.3250    0.0246    0.0000 O   0  0  0  0  0  0  0  0  0  0  0  0
   -3.2642    1.5839    0.0000 O   0  0  0  0  0  0  0  0  0  0  0  0
   -0.8998   -0.2575    0.0000 O   0  0  0  0  0  0  0  0  0  0  0  0
   -0.0748    1.1714    0.0000 O   0  0  0  0  0  0  0  0  0  0  0  0
   -0.0748    2.6003    0.0000 O   0  0  0  0  0  0  0  0  0  0  0  0
    6.5252   -1.6865    0.0000 O   0  0  0  0  0  0  0  0  0  0  0  0
    6.5252   -0.2575    0.0000 O   0  0  0  0  0  0  0  0  0  0  0  0
   -2.5498   -0.2575    0.0000 C   0  0  0  0  0  0  0  0  0  0  0  0
   -2.1373    0.4569    0.0000 C   0  0  0  0  0  0  0  0  0  0  0  0
   -2.5498    1.1714    0.0000 C   0  0  0  0  0  0  0  0  0  0  0  0
   -3.1818   -0.7878    0.0000 C   0  0  0  0  0  0  0  0  0  0  0  0
   -1.3123    0.4569    0.0000 C   0  0  0  0  0  0  0  0  0  0  0  0
   -3.2642    0.7589    0.0000 C   0  0  0  0  0  0  0  0  0  0  0  0
   -2.1373    1.8859    0.0000 C   0  0  0  0  0  0  0  0  0  0  0  0
   -0.8998    1.1714    0.0000 C   0  0  0  0  0  0  0  0  0  0  0  0
   -1.9178   -0.7878    0.0000 C   0  0  0  0  0  0  0  0  0  0  0  0
   -1.3123    1.8859    0.0000 C   0  0  0  0  0  0  0  0  0  0  0  0
   -3.4639   -1.5631    0.0000 C   0  0  0  0  0  0  0  0  0  0  0  0
   -2.9336   -2.1951    0.0000 C   0  0  0  0  0  0  0  0  0  0  0  0
    0.3377    1.8859    0.0000 C   0  0  0  0  0  0  0  0  0  0  0  0
   -0.0748   -0.2575    0.0000 C   0  0  0  0  0  0  0  0  0  0  0  0
   -3.2158   -2.9703    0.0000 C   0  0  0  0  0  0  0  0  0  0  0  0
    1.1627    1.8859    0.0000 C   0  0  0  0  0  0  0  0  0  0  0  0
   -2.6855   -3.6023    0.0000 C   0  0  0  0  0  0  0  0  0  0  0  0
   -4.0283   -3.1136    0.0000 C   0  0  0  0  0  0  0  0  0  0  0  0
    1.5752    1.1714    0.0000 C   0  0  0  0  0  0  0  0  0  0  0  0
    2.4002    1.1714    0.0000 C   0  0  0  0  0  0  0  0  0  0  0  0
    2.8127    0.4569    0.0000 C   0  0  0  0  0  0  0  0  0  0  0  0
    3.6377    0.4569    0.0000 C   0  0  0  0  0  0  0  0  0  0  0  0
    4.0502   -0.2575    0.0000 C   0  0  0  0  0  0  0  0  0  0  0  0
    4.8752   -0.2575    0.0000 C   0  0  0  0  0  0  0  0  0  0  0  0
    5.2877   -0.9720    0.0000 C   0  0  0  0  0  0  0  0  0  0  0  0
    6.1127   -0.9720    0.0000 C   0  0  0  0  0  0  0  0  0  0  0  0
  1  8  1  0
  1 11  1  0
  2 10  1  0
  2 13  1  0
  3 12  1  0
  3 21  1  0
  4 15  1  0
  4 20  1  0
  5 20  2  0
  6 33  1  0
  7 33  2  0
  8  9  1  0
  8 11  1  0
  8 16  1  0
  9 10  1  0
  9 12  1  0
 10 13  1  0
 10 14  1  0
 11 18  1  0
 12 15  1  0
 14 17  1  0
 15 17  1  0
 18 19  1  0
 19 22  2  3
 20 23  1  0
 22 24  1  0
 22 25  1  0
 23 26  2  3
 26 27  1  0
 27 28  2  3
 28 29  1  0
 29 30  2  3
 30 31  1  0
 31 32  2  3
 32 33  1  0
M  END
>  <Classification>  (218) 
0

>  <pchembl>  (218) 
4.59

>  <InChI_steorem>  (218) 
InChI=1S/C26H34O7/c1-18(2)13-14-20-25(3,33-20)24-23(30-4)19(15-16-26(24)17-31-26)32-22(29)12-10-8-6-5-7-9-11-21(27)28/h5-13,19-20,23-24H,14-17H2,1-4H3,(H,27,28)

>  <source>  (218) 
ChEMBL25

>  <source_id>  (218) 
25

>  <optional_reference>  (218) 
10.1124/dmd.112.047068

>  <optional_origin>  (218) 
None

>  <target>  (218) 
BSEP

$$$$

     RDKit          2D

 34 36  0  0  0  0  0  0  0  0999 V2000
   19.8440  -19.9772    0.0000 C   0  0  0  0  0  0  0  0  0  0  0  0
   19.1281  -20.3897    0.0000 N   0  0  0  0  0  0  0  0  0  0  0  0
   18.4164  -19.9772    0.0000 C   0  0  0  0  0  0  0  0  0  0  0  0
   19.1281  -21.2147    0.0000 C   0  0  0  0  0  0  0  0  0  0  0  0
   18.4164  -21.6272    0.0000 O   0  0  0  0  0  0  0  0  0  0  0  0
   19.8440  -21.6272    0.0000 C   0  0  0  0  0  0  0  0  0  0  0  0
   19.8440  -22.4564    0.0000 C   0  0  0  0  0  0  0  0  0  0  0  0
   19.1281  -22.8689    0.0000 S   0  0  0  0  0  0  0  0  0  0  0  0
   19.1281  -23.6939    0.0000 C   0  0  0  0  0  0  0  0  0  0  0  0
   18.4164  -24.1064    0.0000 C   0  0  0  0  0  0  0  0  0  0  0  0
   18.4164  -24.9314    0.0000 C   0  0  0  0  0  0  0  0  0  0  0  0
   17.7006  -25.3439    0.0000 C   0  0  0  0  0  0  0  0  0  0  0  0
   16.9847  -24.9314    0.0000 C   0  0  0  0  0  0  0  0  0  0  0  0
   16.9847  -24.1064    0.0000 C   0  0  0  0  0  0  0  0  0  0  0  0
   17.7006  -23.6939    0.0000 C   0  0  0  0  0  0  0  0  0  0  0  0
   16.2730  -23.6939    0.0000 C   0  0  0  0  0  0  0  0  0  0  0  0
   15.5571  -24.1064    0.0000 C   0  0  0  0  0  0  0  0  0  0  0  0
   14.8413  -23.6939    0.0000 C   0  0  0  0  0  0  0  0  0  0  0  0
   14.1254  -24.1064    0.0000 N   0  0  0  0  0  0  0  0  0  0  0  0
   13.4137  -23.6939    0.0000 C   0  0  0  0  0  0  0  0  0  0  0  0
   13.4137  -22.8689    0.0000 C   0  0  0  0  0  0  0  0  0  0  0  0
   12.6978  -22.4564    0.0000 C   0  0  0  0  0  0  0  0  0  0  0  0
   11.9861  -22.8689    0.0000 C   0  0  0  0  0  0  0  0  0  0  0  0
   11.9861  -23.6939    0.0000 C   0  0  0  0  0  0  0  0  0  0  0  0
   12.6978  -24.1064    0.0000 C   0  0  0  0  0  0  0  0  0  0  0  0
   11.2703  -24.1064    0.0000 Cl  0  0  0  0  0  0  0  0  0  0  0  0
   14.1254  -22.4564    0.0000 C   0  0  0  0  0  0  0  0  0  0  0  0
   14.8413  -22.8689    0.0000 C   0  0  0  0  0  0  0  0  0  0  0  0
   19.8440  -24.1064    0.0000 S   0  0  0  0  0  0  0  0  0  0  0  0
   20.5598  -23.6939    0.0000 C   0  0  0  0  0  0  0  0  0  0  0  0
   20.5598  -22.8689    0.0000 C   0  0  0  0  0  0  0  0  0  0  0  0
   21.2715  -22.4564    0.0000 C   0  0  0  0  0  0  0  0  0  0  0  0
   21.2715  -21.6272    0.0000 O   0  0  0  0  0  0  0  0  0  0  0  0
   21.9874  -22.8689    0.0000 O   0  0  0  0  0  0  0  0  0  0  0  0
  1  2  1  0
  2  3  1  0
  2  4  1  0
  4  5  2  0
  4  6  1  0
  6  7  1  0
  7  8  1  0
  8  9  1  0
  9 10  1  0
 10 11  2  0
 11 12  1  0
 12 13  2  0
 13 14  1  0
 14 15  2  0
 10 15  1  0
 14 16  1  0
 16 17  2  3
 17 18  1  0
 18 19  2  0
 19 20  1  0
 20 21  2  0
 21 22  1  0
 22 23  2  0
 23 24  1  0
 24 25  2  0
 20 25  1  0
 24 26  1  0
 21 27  1  0
 27 28  2  0
 18 28  1  0
  9 29  1  0
 29 30  1  0
 30 31  1  0
 31 32  1  0
 32 33  2  0
 32 34  1  0
M  END
>  <Classification>  (219) 
1

>  <pchembl>  (219) 
5.46

>  <InChI_steorem>  (219) 
InChI=1S/C26H27ClN2O3S2/c1-29(2)24(30)12-14-33-26(34-15-13-25(31)32)20-5-3-4-18(16-20)6-10-22-11-8-19-7-9-21(27)17-23(19)28-22/h3-11,16-17,26H,12-15H2,1-2H3,(H,31,32)

>  <source>  (219) 
ChEMBL25

>  <source_id>  (219) 
25

>  <optional_reference>  (219) 
10.1093/toxsci/kfq269

>  <optional_origin>  (219) 
None

>  <target>  (219) 
BSEP

$$$$

     RDKit          2D

 34 38  0  0  0  0  0  0  0  0999 V2000
   -4.2045    0.9625    0.0000 C   0  0  0  0  0  0  0  0  0  0  0  0
   -4.2057    0.1350    0.0000 C   0  0  0  0  0  0  0  0  0  0  0  0
   -3.4882   -0.2780    0.0000 C   0  0  0  0  0  0  0  0  0  0  0  0
   -3.4902    1.3753    0.0000 C   0  0  0  0  0  0  0  0  0  0  0  0
   -2.7766    0.9666    0.0000 C   0  0  0  0  0  0  0  0  0  0  0  0
   -2.7763    0.1399    0.0000 C   0  0  0  0  0  0  0  0  0  0  0  0
   -1.9896   -0.1178    0.0000 N   0  0  0  0  0  0  0  0  0  0  0  0
   -1.5058    0.5537    0.0000 C   0  0  0  0  0  0  0  0  0  0  0  0
   -1.9908    1.2194    0.0000 N   0  0  0  0  0  0  0  0  0  0  0  0
   -1.5842    1.9354    0.0000 C   0  0  0  0  0  0  0  0  0  0  0  0
   -0.7592    1.9421    0.0000 C   0  0  0  0  0  0  0  0  0  0  0  0
   -0.3434    1.2259    0.0000 C   0  0  0  0  0  0  0  0  0  0  0  0
    0.4807    1.2323    0.0000 C   0  0  0  0  0  0  0  0  0  0  0  0
    0.8882    1.9490    0.0000 C   0  0  0  0  0  0  0  0  0  0  0  0
    0.4650    2.6653    0.0000 C   0  0  0  0  0  0  0  0  0  0  0  0
   -0.3576    2.6550    0.0000 C   0  0  0  0  0  0  0  0  0  0  0  0
    1.7131    1.9569    0.0000 F   0  0  0  0  0  0  0  0  0  0  0  0
   -0.6808    0.5545    0.0000 N   0  0  0  0  0  0  0  0  0  0  0  0
   -0.2675   -0.1621    0.0000 C   0  0  0  0  0  0  0  0  0  0  0  0
   -0.6814   -0.8761    0.0000 C   0  0  0  0  0  0  0  0  0  0  0  0
   -0.2720   -1.5905    0.0000 C   0  0  0  0  0  0  0  0  0  0  0  0
    0.5533   -1.5943    0.0000 N   0  0  0  0  0  0  0  0  0  0  0  0
    0.9676   -0.8769    0.0000 C   0  0  0  0  0  0  0  0  0  0  0  0
    0.5564   -0.1603    0.0000 C   0  0  0  0  0  0  0  0  0  0  0  0
    0.9636   -2.3082    0.0000 C   0  0  0  0  0  0  0  0  0  0  0  0
    1.7886   -2.3107    0.0000 C   0  0  0  0  0  0  0  0  0  0  0  0
    2.1989   -3.0246    0.0000 C   0  0  0  0  0  0  0  0  0  0  0  0
    1.7840   -3.7369    0.0000 C   0  0  0  0  0  0  0  0  0  0  0  0
    2.1935   -4.4502    0.0000 C   0  0  0  0  0  0  0  0  0  0  0  0
    3.0195   -4.4533    0.0000 C   0  0  0  0  0  0  0  0  0  0  0  0
    3.4341   -3.7364    0.0000 C   0  0  0  0  0  0  0  0  0  0  0  0
    3.0219   -3.0218    0.0000 C   0  0  0  0  0  0  0  0  0  0  0  0
    3.4308   -5.1712    0.0000 O   0  0  0  0  0  0  0  0  0  0  0  0
    4.2558   -5.1725    0.0000 C   0  0  0  0  0  0  0  0  0  0  0  0
 16 11  1  0
  6  7  1  0
 14 17  1  0
  7  8  2  0
  8 18  1  0
  8  9  1  0
 18 19  1  0
 19 20  1  0
  9  5  1  0
  4  1  2  0
  9 10  1  0
  5  6  2  0
 10 11  1  0
 19 24  1  0
 20 21  1  0
 21 22  1  0
 22 23  1  0
 23 24  1  0
 22 25  1  0
 11 12  2  0
 25 26  1  0
  2  3  2  0
 26 27  1  0
 12 13  1  0
 27 28  2  0
  3  6  1  0
 28 29  1  0
 13 14  2  0
 29 30  2  0
  1  2  1  0
 30 31  1  0
 14 15  1  0
 31 32  2  0
 32 27  1  0
  5  4  1  0
 30 33  1  0
 15 16  2  0
 33 34  1  0
M  END
>  <Classification>  (220) 
0

>  <pchembl>  (220) 
4.23

>  <InChI_steorem>  (220) 
InChI=1S/C28H31FN4O/c1-34-25-12-8-21(9-13-25)14-17-32-18-15-24(16-19-32)30-28-31-26-4-2-3-5-27(26)33(28)20-22-6-10-23(29)11-7-22/h2-13,24H,14-20H2,1H3,(H,30,31)

>  <source>  (220) 
ChEMBL25

>  <source_id>  (220) 
25

>  <optional_reference>  (220) 
10.1093/toxsci/kft176

>  <optional_origin>  (220) 
None

>  <target>  (220) 
BSEP

$$$$

     RDKit          2D

 33 36  0  0  0  0  0  0  0  0999 V2000
    5.9013   -0.1440    0.0000 O   0  0  0  0  0  0  0  0  0  0  0  0
    2.1214   -0.0710    0.0000 O   0  0  0  0  0  0  0  0  0  0  0  0
    3.0127    4.1221    0.0000 O   0  0  0  0  0  0  0  0  0  0  0  0
    7.4865   -0.5811    0.0000 O   0  0  0  0  0  0  0  0  0  0  0  0
   10.3443   -1.4061    0.0000 O   0  0  0  0  0  0  0  0  0  0  0  0
    9.6299   -2.6436    0.0000 O   0  0  0  0  0  0  0  0  0  0  0  0
    8.2009   -1.8186    0.0000 N   0  0  0  0  0  0  0  0  0  0  0  0
    4.5423   -0.5856    0.0000 C   0  0  0  0  0  0  0  0  0  0  0  0
    3.7354   -0.4141    0.0000 C   0  0  0  0  0  0  0  0  0  0  0  0
    3.4804    0.3705    0.0000 C   0  0  0  0  0  0  0  0  0  0  0  0
    4.0325    0.9836    0.0000 C   0  0  0  0  0  0  0  0  0  0  0  0
    3.7775    1.7683    0.0000 C   0  0  0  0  0  0  0  0  0  0  0  0
    5.0944    0.0275    0.0000 C   0  0  0  0  0  0  0  0  0  0  0  0
    4.6286   -1.4061    0.0000 C   0  0  0  0  0  0  0  0  0  0  0  0
    2.9706    1.9398    0.0000 C   0  0  0  0  0  0  0  0  0  0  0  0
    4.8394    0.8121    0.0000 C   0  0  0  0  0  0  0  0  0  0  0  0
    2.6735    0.5421    0.0000 C   0  0  0  0  0  0  0  0  0  0  0  0
    3.3229   -1.1286    0.0000 C   0  0  0  0  0  0  0  0  0  0  0  0
    3.8749   -1.7416    0.0000 C   0  0  0  0  0  0  0  0  0  0  0  0
    2.4185    1.3267    0.0000 C   0  0  0  0  0  0  0  0  0  0  0  0
    4.3296    2.3813    0.0000 C   0  0  0  0  0  0  0  0  0  0  0  0
    5.3431   -1.8186    0.0000 C   0  0  0  0  0  0  0  0  0  0  0  0
    5.3270   -0.8405    0.0000 C   0  0  0  0  0  0  0  0  0  0  0  0
    2.7156    2.7244    0.0000 C   0  0  0  0  0  0  0  0  0  0  0  0
    4.5845    1.5967    0.0000 C   0  0  0  0  0  0  0  0  0  0  0  0
    3.2676    3.3375    0.0000 C   0  0  0  0  0  0  0  0  0  0  0  0
    4.0746    3.1660    0.0000 C   0  0  0  0  0  0  0  0  0  0  0  0
    6.0575   -1.4061    0.0000 C   0  0  0  0  0  0  0  0  0  0  0  0
    5.3431   -2.6436    0.0000 C   0  0  0  0  0  0  0  0  0  0  0  0
    6.7720   -1.8186    0.0000 C   0  0  0  0  0  0  0  0  0  0  0  0
    7.4865   -1.4061    0.0000 C   0  0  0  0  0  0  0  0  0  0  0  0
    8.9154   -1.4061    0.0000 C   0  0  0  0  0  0  0  0  0  0  0  0
    9.6299   -1.8186    0.0000 C   0  0  0  0  0  0  0  0  0  0  0  0
 13  1  1  0
 17  2  1  0
 26  3  1  0
  4 31  2  0
  5 33  1  0
  6 33  2  0
  7 31  1  0
  7 32  1  0
  8  9  1  0
  8 13  1  0
  8 14  1  0
  8 23  1  0
 10  9  1  0
  9 18  1  0
 10 11  1  0
 10 17  1  0
 11 12  1  0
 11 16  1  0
 12 15  1  0
 12 21  1  0
 12 25  1  0
 13 16  1  0
 14 19  1  0
 14 22  1  0
 15 20  1  0
 15 24  1  0
 17 20  1  0
 18 19  1  0
 21 27  1  0
 22 28  1  0
 22 29  1  0
 24 26  1  0
 26 27  1  0
 28 30  1  0
 30 31  1  0
 32 33  1  0
M  END
>  <Classification>  (221) 
0

>  <pchembl>  (221) 
4.96

>  <InChI_steorem>  (221) 
InChI=1S/C26H43NO6/c1-14(4-7-22(31)27-13-23(32)33)17-5-6-18-24-19(12-21(30)26(17,18)3)25(2)9-8-16(28)10-15(25)11-20(24)29/h14-21,24,28-30H,4-13H2,1-3H3,(H,27,31)(H,32,33)

>  <source>  (221) 
ChEMBL25

>  <source_id>  (221) 
25

>  <optional_reference>  (221) 
10.1053/gast.2002.36591

>  <optional_origin>  (221) 
None

>  <target>  (221) 
BSEP

$$$$

     RDKit          2D

 34 37  0  0  0  0  0  0  0  0999 V2000
    7.1750   -3.7417    0.0000 C   0  0  0  0  0  0  0  0  0  0  0  0
    7.9375   -6.0958    0.0000 C   0  0  0  0  0  0  0  0  0  0  0  0
    7.9792   -3.9167    0.0000 C   0  0  0  0  0  0  0  0  0  0  0  0
    1.3708   -2.9250    0.0000 S   0  0  0  0  0  0  0  0  0  0  0  0
    7.6833   -5.3125    0.0000 C   0  0  0  0  0  0  0  0  0  0  0  0
    8.2333   -4.7000    0.0000 C   0  0  0  0  0  0  0  0  0  0  0  0
    8.7458   -6.2708    0.0000 C   0  0  0  0  0  0  0  0  0  0  0  0
    9.0417   -4.8708    0.0000 C   0  0  0  0  0  0  0  0  0  0  0  0
    7.0875   -2.9250    0.0000 C   0  0  0  0  0  0  0  0  0  0  0  0
    6.6208   -4.3583    0.0000 C   0  0  0  0  0  0  0  0  0  0  0  0
    9.2958   -5.6542    0.0000 C   0  0  0  0  0  0  0  0  0  0  0  0
    6.8750   -5.1417    0.0000 C   0  0  0  0  0  0  0  0  0  0  0  0
    8.3917   -3.2000    0.0000 C   0  0  0  0  0  0  0  0  0  0  0  0
    7.3875   -6.7125    0.0000 C   0  0  0  0  0  0  0  0  0  0  0  0
    7.8417   -2.5875    0.0000 C   0  0  0  0  0  0  0  0  0  0  0  0
    2.0833   -2.5125    0.0000 C   0  0  0  0  0  0  0  0  0  0  0  0
    0.9583   -2.2083    0.0000 O   0  0  0  0  0  0  0  0  0  0  0  0
    0.6583   -3.3375    0.0000 O   0  0  0  0  0  0  0  0  0  0  0  0
    4.2292   -2.9250    0.0000 C   0  0  0  0  0  0  0  0  0  0  0  0
    9.0000   -7.0542    0.0000 C   0  0  0  0  0  0  0  0  0  0  0  0
    1.7833   -3.6375    0.0000 O   0  0  0  0  0  0  0  0  0  0  0  0
    4.2292   -3.7500    0.0000 O   0  0  0  0  0  0  0  0  0  0  0  0
    6.3708   -2.5125    0.0000 C   0  0  0  0  0  0  0  0  0  0  0  0
    3.5125   -2.5125    0.0000 N   0  0  0  0  0  0  0  0  0  0  0  0
    5.6583   -2.9250    0.0000 C   0  0  0  0  0  0  0  0  0  0  0  0
    9.5958   -4.2583    0.0000 O   0  0  0  0  0  0  0  0  0  0  0  0
    4.9417   -2.5125    0.0000 C   0  0  0  0  0  0  0  0  0  0  0  0
    2.8000   -2.9250    0.0000 C   0  0  0  0  0  0  0  0  0  0  0  0
    6.3875   -3.4875    0.0000 C   0  0  0  0  0  0  0  0  0  0  0  0
    7.6417   -7.4958    0.0000 C   0  0  0  0  0  0  0  0  0  0  0  0
    8.4458   -7.6667    0.0000 C   0  0  0  0  0  0  0  0  0  0  0  0
    7.1292   -5.9250    0.0000 C   0  0  0  0  0  0  0  0  0  0  0  0
    8.7042   -8.4500    0.0000 O   0  0  0  0  0  0  0  0  0  0  0  0
    6.3708   -1.6875    0.0000 C   0  0  0  0  0  0  0  0  0  0  0  0
  2  5  1  0
  3  1  1  0
  4 16  1  0
  5 12  1  0
  6  3  1  0
  7  2  1  0
  8  6  1  0
  9  1  1  0
 10  1  1  0
 11  8  1  0
 12 10  1  0
 13  3  1  0
 14  2  1  0
 15  9  1  0
 16 28  1  0
 17  4  2  0
 18  4  2  0
 19 27  1  0
 20  7  1  0
 21  4  1  0
 22 19  2  0
 23  9  1  0
 24 19  1  0
 25 23  1  0
  8 26  1  0
 27 25  1  0
 28 24  1  0
  1 29  1  0
 30 14  1  0
 31 30  1  0
  2 32  1  0
 31 33  1  0
 23 34  1  0
 15 13  1  0
  5  6  1  0
 11  7  1  0
 31 20  1  0
M  END
>  <Classification>  (222) 
0

>  <pchembl>  (222) 
4.55

>  <InChI_steorem>  (222) 
InChI=1S/C26H45NO6S/c1-16(4-7-23(30)27-12-13-34(31,32)33)19-5-6-20-24-21(9-11-26(19,20)3)25(2)10-8-18(28)14-17(25)15-22(24)29/h16-22,24,28-29H,4-15H2,1-3H3,(H,27,30)(H,31,32,33)

>  <source>  (222) 
ChEMBL25

>  <source_id>  (222) 
25

>  <optional_reference>  (222) 
10.1053/gast.2002.36591

>  <optional_origin>  (222) 
None

>  <target>  (222) 
BSEP

$$$$

     RDKit          2D

 37 40  0  0  0  0  0  0  0  0999 V2000
    2.9831   -8.9048    0.0000 C   0  0  0  0  0  0  0  0  0  0  0  0
    3.6952   -8.4965    0.0000 C   0  0  0  0  0  0  0  0  0  0  0  0
    2.2710   -8.4965    0.0000 C   0  0  0  0  0  0  0  0  0  0  0  0
    2.2710   -7.6714    0.0000 C   0  0  0  0  0  0  0  0  0  0  0  0
    1.5604   -7.2611    0.0000 C   0  0  0  0  0  0  0  0  0  0  0  0
    0.8453   -7.6714    0.0000 C   0  0  0  0  0  0  0  0  0  0  0  0
    0.8453   -8.4965    0.0000 C   0  0  0  0  0  0  0  0  0  0  0  0
    1.5604   -8.9112    0.0000 C   0  0  0  0  0  0  0  0  0  0  0  0
    1.5616   -9.7363    0.0000 C   0  0  0  0  0  0  0  0  0  0  0  0
    0.1303   -8.9082    0.0000 O   0  0  0  0  0  0  0  0  0  0  0  0
    2.2669   -6.8464    0.0000 C   0  0  0  0  0  0  0  0  0  0  0  0
    2.9831   -7.2547    0.0000 C   0  0  0  0  0  0  0  0  0  0  0  0
    3.6934   -7.6744    0.0000 C   0  0  0  0  0  0  0  0  0  0  0  0
    3.7084   -6.0273    0.0000 C   0  0  0  0  0  0  0  0  0  0  0  0
    2.9874   -6.4320    0.0000 C   0  0  0  0  0  0  0  0  0  0  0  0
    4.4186   -6.4471    0.0000 C   0  0  0  0  0  0  0  0  0  0  0  0
    4.4126   -7.2675    0.0000 C   0  0  0  0  0  0  0  0  0  0  0  0
    5.1911   -7.5268    0.0000 C   0  0  0  0  0  0  0  0  0  0  0  0
    5.6770   -6.8671    0.0000 C   0  0  0  0  0  0  0  0  0  0  0  0
    5.2003   -6.1993    0.0000 C   0  0  0  0  0  0  0  0  0  0  0  0
    5.6183   -5.4881    0.0000 C   0  0  0  0  0  0  0  0  0  0  0  0
    6.4434   -5.4945    0.0000 C   0  0  0  0  0  0  0  0  0  0  0  0
    6.8614   -4.7831    0.0000 O   0  0  0  0  0  0  0  0  0  0  0  0
    6.8503   -6.2121    0.0000 O   0  0  0  0  0  0  0  0  0  0  0  0
    5.2113   -4.7702    0.0000 C   0  0  0  0  0  0  0  0  0  0  0  0
    5.6293   -4.0590    0.0000 C   0  0  0  0  0  0  0  0  0  0  0  0
    5.2224   -3.3413    0.0000 C   0  0  0  0  0  0  0  0  0  0  0  0
    5.6404   -2.6300    0.0000 C   0  0  0  0  0  0  0  0  0  0  0  0
    5.2335   -1.9123    0.0000 C   0  0  0  0  0  0  0  0  0  0  0  0
    6.4655   -2.6364    0.0000 C   0  0  0  0  0  0  0  0  0  0  0  0
    2.2766   -6.0132    0.0000 O   0  0  0  0  0  0  0  0  0  0  0  0
    3.6878   -6.8464    0.0000 C   0  0  0  0  0  0  0  0  0  0  0  0
    4.4045   -8.0923    0.0000 C   0  0  0  0  0  0  0  0  0  0  0  0
    6.5021   -6.8732    0.0000 O   0  0  0  0  0  0  0  0  0  0  0  0
    6.9093   -7.5907    0.0000 C   0  0  0  0  0  0  0  0  0  0  0  0
    7.7342   -7.5968    0.0000 C   0  0  0  0  0  0  0  0  0  0  0  0
    6.4915   -8.3022    0.0000 O   0  0  0  0  0  0  0  0  0  0  0  0
 17 18  1  0
 18 19  1  0
 19 20  1  0
 20 16  1  0
  2 13  1  0
  8  9  1  0
  3  4  1  0
  7 10  1  0
 20 21  2  3
  4 11  1  0
 21 22  1  0
 22 23  1  0
 22 24  2  0
 12 13  1  0
 21 25  1  0
 25 26  1  0
  4 12  1  0
 26 27  1  0
  3  1  1  0
 27 28  2  3
  1  2  1  0
 28 29  1  0
 12 15  1  0
 28 30  1  0
 13 17  1  0
 16 14  1  0
 15 31  1  0
 14 15  1  0
 13 32  1  0
 16 17  1  0
  3  8  1  0
 17 33  1  0
  4  5  1  0
 19 34  1  0
 34 35  1  0
  5  6  1  0
 35 36  1  0
  6  7  1  0
 35 37  2  0
  7  8  1  0
M  END
>  <Classification>  (223) 
0

>  <pchembl>  (223) 
4.94

>  <InChI_steorem>  (223) 
InChI=1S/C31H48O6/c1-17(2)9-8-10-20(28(35)36)26-22-15-24(34)27-29(5)13-12-23(33)18(3)21(29)11-14-30(27,6)31(22,7)16-25(26)37-19(4)32/h9,18,21-25,27,33-34H,8,10-16H2,1-7H3,(H,35,36)

>  <source>  (223) 
ChEMBL25

>  <source_id>  (223) 
25

>  <optional_reference>  (223) 
10.1124/dmd.111.040758

>  <optional_origin>  (223) 
None

>  <target>  (223) 
BSEP

$$$$

     RDKit          2D

 50 53  0  0  0  0  0  0  0  0999 V2000
  -16.7652   -0.1473    0.0000 C   0  0  0  0  0  0  0  0  0  0  0  0
  -16.3527   -0.8618    0.0000 C   0  0  0  0  0  0  0  0  0  0  0  0
  -15.5277   -0.8618    0.0000 O   0  0  0  0  0  0  0  0  0  0  0  0
  -14.8132   -1.2743    0.0000 C   0  0  0  0  0  0  0  0  0  0  0  0
  -14.0987   -0.8618    0.0000 C   0  0  0  0  0  0  0  0  0  0  0  0
  -14.0987   -0.0368    0.0000 C   0  0  0  0  0  0  0  0  0  0  0  0
  -13.6862   -1.5763    0.0000 C   0  0  0  0  0  0  0  0  0  0  0  0
  -14.8132    0.3757    0.0000 O   0  0  0  0  0  0  0  0  0  0  0  0
  -13.3843    0.3757    0.0000 C   0  0  0  0  0  0  0  0  0  0  0  0
  -13.3843    1.2007    0.0000 C   0  0  0  0  0  0  0  0  0  0  0  0
  -12.5874    0.1622    0.0000 C   0  0  0  0  0  0  0  0  0  0  0  0
  -12.3739   -0.6347    0.0000 O   0  0  0  0  0  0  0  0  0  0  0  0
  -11.7905    0.3757    0.0000 C   0  0  0  0  0  0  0  0  0  0  0  0
  -11.8447    1.2080    0.0000 C   0  0  0  0  0  0  0  0  0  0  0  0
  -10.9655    0.3757    0.0000 C   0  0  0  0  0  0  0  0  0  0  0  0
  -10.2510    0.7882    0.0000 C   0  0  0  0  0  0  0  0  0  0  0  0
   -9.5365    0.3757    0.0000 C   0  0  0  0  0  0  0  0  0  0  0  0
   -9.5365   -0.4493    0.0000 C   0  0  0  0  0  0  0  0  0  0  0  0
   -8.8221   -0.8618    0.0000 C   0  0  0  0  0  0  0  0  0  0  0  0
  -10.2510   -0.8618    0.0000 C   0  0  0  0  0  0  0  0  0  0  0  0
  -10.8344   -0.2784    0.0000 O   0  0  0  0  0  0  0  0  0  0  0  0
  -10.2510   -1.6868    0.0000 N   0  0  0  0  0  0  0  0  0  0  0  0
  -10.6635   -2.4013    0.0000 C   0  0  0  0  0  0  0  0  0  0  0  0
  -12.0925   -2.4013    0.0000 C   0  0  0  0  0  0  0  0  0  0  0  0
  -12.8069   -1.9888    0.0000 C   0  0  0  0  0  0  0  0  0  0  0  0
  -13.5215   -2.4013    0.0000 C   0  0  0  0  0  0  0  0  0  0  0  0
  -13.5215   -3.2263    0.0000 C   0  0  0  0  0  0  0  0  0  0  0  0
  -12.8069   -3.6388    0.0000 C   0  0  0  0  0  0  0  0  0  0  0  0
  -11.3780   -3.6388    0.0000 C   0  0  0  0  0  0  0  0  0  0  0  0
  -10.6635   -3.2263    0.0000 C   0  0  0  0  0  0  0  0  0  0  0  0
  -11.3780   -1.9888    0.0000 C   0  0  0  0  0  0  0  0  0  0  0  0
  -11.3780   -1.1638    0.0000 O   0  0  0  0  0  0  0  0  0  0  0  0
  -12.5934   -1.1919    0.0000 O   0  0  0  0  0  0  0  0  0  0  0  0
  -11.3780   -4.4638    0.0000 O   0  0  0  0  0  0  0  0  0  0  0  0
  -14.1345   -3.7783    0.0000 O   0  0  0  0  0  0  0  0  0  0  0  0
  -13.7989   -4.5320    0.0000 C   0  0  0  0  0  0  0  0  0  0  0  0
  -12.9785   -4.4457    0.0000 C   0  0  0  0  0  0  0  0  0  0  0  0
  -12.4264   -5.0588    0.0000 O   0  0  0  0  0  0  0  0  0  0  0  0
  -13.5854   -5.3288    0.0000 C   0  0  0  0  0  0  0  0  0  0  0  0
  -14.6239   -4.5320    0.0000 O   0  0  0  0  0  0  0  0  0  0  0  0
  -14.8375   -3.7351    0.0000 C   0  0  0  0  0  0  0  0  0  0  0  0
  -15.6344   -3.5215    0.0000 C   0  0  0  0  0  0  0  0  0  0  0  0
  -16.0469   -2.8071    0.0000 C   0  0  0  0  0  0  0  0  0  0  0  0
  -16.8438   -2.5935    0.0000 O   0  0  0  0  0  0  0  0  0  0  0  0
  -15.3324   -2.3946    0.0000 C   0  0  0  0  0  0  0  0  0  0  0  0
  -14.6179   -2.8071    0.0000 C   0  0  0  0  0  0  0  0  0  0  0  0
  -14.1048   -1.8179    0.0000 C   0  0  0  0  0  0  0  0  0  0  0  0
  -16.9360   -1.4452    0.0000 O   0  0  0  0  0  0  0  0  0  0  0  0
  -12.0925   -3.2263    0.0000 C   0  0  0  0  0  0  0  0  0  0  0  0
  -17.6407   -2.8070    0.0000 C   0  0  0  0  0  0  0  0  0  0  0  0
  1  2  1  0
  2  3  1  0
  4  3  1  0
  4  5  1  0
  5  6  1  0
  5  7  1  0
  6  8  1  0
  6  9  1  0
  9 10  1  0
  9 11  1  0
 11 12  1  0
 11 13  1  0
 13 14  1  0
 13 15  1  0
 15 16  2  0
 16 17  1  0
 17 18  2  0
 18 19  1  0
 18 20  1  0
 20 21  2  0
 20 22  1  0
 22 23  1  0
 30 23  1  0
 23 31  2  0
 24 25  2  0
 24 31  1  0
 25 26  1  0
 26 27  2  0
 29 30  2  0
 31 32  1  0
 25 33  1  0
 29 34  1  0
 27 35  1  0
 27 28  1  0
 37 28  1  0
 35 36  1  0
 36 37  1  0
 37 38  2  0
 36 39  1  0
 36 40  1  0
 40 41  1  0
 41 42  2  0
 42 43  1  0
 43 44  1  0
 43 45  1  0
  4 45  1  0
 45 46  1  0
 26 47  1  0
  2 48  2  0
 24 49  1  0
 28 49  2  0
 49 29  1  0
 44 50  1  0
M  END
>  <Classification>  (224) 
0

>  <pchembl>  (224) 
4.51

>  <InChI_steorem>  (224) 
InChI=1S/C37H47NO12/c1-16-11-10-12-17(2)36(46)38-23-15-24(40)26-27(32(23)44)31(43)21(6)34-28(26)35(45)37(8,50-34)48-14-13-25(47-9)18(3)33(49-22(7)39)20(5)30(42)19(4)29(16)41/h10-16,18-20,25,29-30,33,40-44H,1-9H3,(H,38,46)

>  <source>  (224) 
ChEMBL25

>  <source_id>  (224) 
25

>  <optional_reference>  (224) 
10.1053/gast.2002.36591

>  <optional_origin>  (224) 
None

>  <target>  (224) 
BSEP

$$$$

     RDKit          2D

 51 57  0  0  0  0  0  0  0  0999 V2000
   -7.0495   -5.6835    0.0000 C   0  0  0  0  0  0  0  0  0  0  0  0
   -7.3466   -4.2858    0.0000 C   0  0  0  0  0  0  0  0  0  0  0  0
   -5.2575   -3.0877    0.0000 O   0  0  0  0  0  0  0  0  0  0  0  0
   -6.2847   -3.3296    0.0000 O   0  0  0  0  0  0  0  0  0  0  0  0
    5.6518    3.1791    0.0000 F   0  0  0  0  0  0  0  0  0  0  0  0
    5.9505    6.0213    0.0000 F   0  0  0  0  0  0  0  0  0  0  0  0
    5.8011    4.6002    0.0000 C   0  0  0  0  0  0  0  0  0  0  0  0
    1.1987    0.8448    0.0000 C   0  0  0  0  0  0  0  0  0  0  0  0
    0.1368    1.8010    0.0000 C   0  0  0  0  0  0  0  0  0  0  0  0
    0.6467    0.2317    0.0000 C   0  0  0  0  0  0  0  0  0  0  0  0
   -0.4153    1.1879    0.0000 C   0  0  0  0  0  0  0  0  0  0  0  0
   -2.1135   -2.8337    0.0000 C   0  0  0  0  0  0  0  0  0  0  0  0
   -3.1754   -1.8776    0.0000 C   0  0  0  0  0  0  0  0  0  0  0  0
   -2.6655   -3.4468    0.0000 C   0  0  0  0  0  0  0  0  0  0  0  0
   -3.7275   -2.4907    0.0000 C   0  0  0  0  0  0  0  0  0  0  0  0
    5.4656    5.3539    0.0000 C   0  0  0  0  0  0  0  0  0  0  0  0
    5.1378    0.8445    0.0000 C   0  0  0  0  0  0  0  0  0  0  0  0
    4.4957    4.0190    0.0000 C   0  0  0  0  0  0  0  0  0  0  0  0
    4.0579    1.6291    0.0000 C   0  0  0  0  0  0  0  0  0  0  0  0
   -3.8530   -4.6954    0.0000 C   0  0  0  0  0  0  0  0  0  0  0  0
   -6.2425   -5.5120    0.0000 C   0  0  0  0  0  0  0  0  0  0  0  0
    3.6753    2.5979    0.0000 C   0  0  0  0  0  0  0  0  0  0  0  0
   -0.4574   -0.9944    0.0000 C   0  0  0  0  0  0  0  0  0  0  0  0
   -1.5193   -0.0383    0.0000 C   0  0  0  0  0  0  0  0  0  0  0  0
   -1.0094   -1.6075    0.0000 C   0  0  0  0  0  0  0  0  0  0  0  0
   -2.0714   -0.6514    0.0000 C   0  0  0  0  0  0  0  0  0  0  0  0
    2.3027    2.0710    0.0000 C   0  0  0  0  0  0  0  0  0  0  0  0
    4.7253    2.9391    0.0000 C   0  0  0  0  0  0  0  0  0  0  0  0
    4.3128    0.8445    0.0000 N   0  0  0  0  0  0  0  0  0  0  0  0
    5.3927    1.6291    0.0000 N   0  0  0  0  0  0  0  0  0  0  0  0
   -4.5675   -5.1079    0.0000 N   0  0  0  0  0  0  0  0  0  0  0  0
    1.4958    2.2426    0.0000 O   0  0  0  0  0  0  0  0  0  0  0  0
    3.3977    3.9036    0.0000 O   0  0  0  0  0  0  0  0  0  0  0  0
    5.3162    3.9328    0.0000 C   0  0  0  0  0  0  0  0  0  0  0  0
    4.1602    4.7727    0.0000 C   0  0  0  0  0  0  0  0  0  0  0  0
    0.9437    1.6295    0.0000 C   0  0  0  0  0  0  0  0  0  0  0  0
   -0.1603    0.4033    0.0000 C   0  0  0  0  0  0  0  0  0  0  0  0
   -2.3685   -2.0491    0.0000 C   0  0  0  0  0  0  0  0  0  0  0  0
   -3.4725   -3.2753    0.0000 C   0  0  0  0  0  0  0  0  0  0  0  0
    4.6451    5.4401    0.0000 C   0  0  0  0  0  0  0  0  0  0  0  0
   -4.8450   -3.8022    0.0000 C   0  0  0  0  0  0  0  0  0  0  0  0
   -6.5396   -4.1143    0.0000 C   0  0  0  0  0  0  0  0  0  0  0  0
   -5.9876   -4.7274    0.0000 C   0  0  0  0  0  0  0  0  0  0  0  0
   -0.7124   -0.2098    0.0000 N   0  0  0  0  0  0  0  0  0  0  0  0
   -1.8164   -1.4360    0.0000 N   0  0  0  0  0  0  0  0  0  0  0  0
    4.7253    2.1141    0.0000 N   0  0  0  0  0  0  0  0  0  0  0  0
   -4.0246   -3.8884    0.0000 N   0  0  0  0  0  0  0  0  0  0  0  0
   -5.1806   -4.5558    0.0000 N   0  0  0  0  0  0  0  0  0  0  0  0
    4.0108    3.3516    0.0000 C   0  0  0  0  0  0  0  0  0  0  0  0
    2.6833    3.4911    0.0000 C   0  0  0  0  0  0  0  0  0  0  0  0
    2.8548    2.6841    0.0000 C   0  0  0  0  0  0  0  0  0  0  0  0
  1 21  1  0
  2 42  1  0
 41  3  2  0
 42  4  1  0
 34  5  1  0
 16  6  1  0
  7 16  2  0
  7 34  1  0
  8 10  2  0
  8 36  1  0
  9 11  1  0
  9 36  2  0
 10 37  1  0
 11 37  2  0
 12 14  2  0
 12 38  1  0
 13 15  1  0
 13 38  2  0
 14 39  1  0
 15 39  2  0
 16 40  1  0
 17 29  1  0
 17 30  2  0
 18 34  2  0
 18 35  1  0
 49 18  1  0
 19 29  2  0
 19 46  1  0
 20 31  2  0
 20 47  1  0
 21 43  1  0
 49 22  1  0
 51 22  1  0
 23 25  1  0
 23 44  1  0
 24 26  1  0
 24 44  1  0
 25 45  1  0
 26 45  1  0
 27 32  1  0
 51 27  1  0
 28 46  1  0
 49 28  1  0
 30 46  1  0
 31 48  1  0
 36 32  1  0
 49 33  1  0
 50 33  1  0
 35 40  2  0
 37 44  1  0
 38 45  1  0
 39 47  1  0
 41 47  1  0
 41 48  1  0
 42 43  1  0
 43 48  1  0
 50 51  1  0
M  END
>  <Classification>  (225) 
1

>  <pchembl>  (225) 
5.09

>  <InChI_steorem>  (225) 
InChI=1S/C37H42F2N8O4/c1-3-35(26(2)48)47-36(49)46(25-42-47)31-7-5-29(6-8-31)43-14-16-44(17-15-43)30-9-11-32(12-10-30)50-20-27-19-37(51-21-27,22-45-24-40-23-41-45)33-13-4-28(38)18-34(33)39/h4-13,18,23-27,35,48H,3,14-17,19-22H2,1-2H3

>  <source>  (225) 
ChEMBL25

>  <source_id>  (225) 
25

>  <optional_reference>  (225) 
10.1093/toxsci/kft176

>  <optional_origin>  (225) 
None

>  <target>  (225) 
BSEP

$$$$

     RDKit          2D

 58 63  0  0  0  0  0  0  0  0999 V2000
    1.0016    0.0177    0.0000 C   0  0  0  0  0  0  0  0  0  0  0  0
    1.8410   -0.2327    0.0000 C   0  0  0  0  0  0  0  0  0  0  0  0
    2.7093   -0.0728    0.0000 C   0  0  0  0  0  0  0  0  0  0  0  0
    3.1379   -0.7778    0.0000 C   0  0  0  0  0  0  0  0  0  0  0  0
    3.9627   -0.7591    0.0000 C   0  0  0  0  0  0  0  0  0  0  0  0
    4.3589   -0.0354    0.0000 C   0  0  0  0  0  0  0  0  0  0  0  0
    3.9303    0.6695    0.0000 C   0  0  0  0  0  0  0  0  0  0  0  0
    3.1055    0.6508    0.0000 C   0  0  0  0  0  0  0  0  0  0  0  0
    2.3935    0.7841    0.0000 C   0  0  0  0  0  0  0  0  0  0  0  0
    1.4451    0.8351    0.0000 C   0  0  0  0  0  0  0  0  0  0  0  0
    0.8282    0.4936    0.0000 C   0  0  0  0  0  0  0  0  0  0  0  0
   -0.0655    0.6853    0.0000 C   0  0  0  0  0  0  0  0  0  0  0  0
   -0.5304    0.1749    0.0000 C   0  0  0  0  0  0  0  0  0  0  0  0
    0.2816   -0.2665    0.0000 C   0  0  0  0  0  0  0  0  0  0  0  0
    1.0137    1.2144    0.0000 C   0  0  0  0  0  0  0  0  0  0  0  0
    1.1837    2.0217    0.0000 C   0  0  0  0  0  0  0  0  0  0  0  0
    0.5658    1.9072    0.0000 C   0  0  0  0  0  0  0  0  0  0  0  0
   -0.3175    1.4708    0.0000 C   0  0  0  0  0  0  0  0  0  0  0  0
    3.1724    1.4731    0.0000 C   0  0  0  0  0  0  0  0  0  0  0  0
    3.1566   -1.6026    0.0000 C   0  0  0  0  0  0  0  0  0  0  0  0
    1.0371   -0.8066    0.0000 O   0  0  0  0  0  0  0  0  0  0  0  0
    1.7966   -1.0565    0.0000 O   0  0  0  0  0  0  0  0  0  0  0  0
    2.3461   -1.0093    0.0000 O   0  0  0  0  0  0  0  0  0  0  0  0
    3.9814   -1.5838    0.0000 O   0  0  0  0  0  0  0  0  0  0  0  0
    4.3265    1.3932    0.0000 O   0  0  0  0  0  0  0  0  0  0  0  0
    2.4918    1.6032    0.0000 O   0  0  0  0  0  0  0  0  0  0  0  0
    1.2603    1.6391    0.0000 O   0  0  0  0  0  0  0  0  0  0  0  0
   -1.3439    0.0377    0.0000 O   0  0  0  0  0  0  0  0  0  0  0  0
   -1.8695    0.6736    0.0000 C   0  0  0  0  0  0  0  0  0  0  0  0
   -1.5815    1.4467    0.0000 O   0  0  0  0  0  0  0  0  0  0  0  0
   -2.6830    0.5364    0.0000 C   0  0  0  0  0  0  0  0  0  0  0  0
   -2.9709   -0.2367    0.0000 O   0  0  0  0  0  0  0  0  0  0  0  0
   -3.2085    1.1724    0.0000 C   0  0  0  0  0  0  0  0  0  0  0  0
   -2.9206    1.9455    0.0000 C   0  0  0  0  0  0  0  0  0  0  0  0
   -3.4461    2.5814    0.0000 C   0  0  0  0  0  0  0  0  0  0  0  0
   -3.1582    3.3545    0.0000 C   0  0  0  0  0  0  0  0  0  0  0  0
   -2.3447    3.4917    0.0000 C   0  0  0  0  0  0  0  0  0  0  0  0
   -1.8191    2.8558    0.0000 C   0  0  0  0  0  0  0  0  0  0  0  0
   -2.1071    2.0827    0.0000 C   0  0  0  0  0  0  0  0  0  0  0  0
   -4.0221    1.0352    0.0000 N   0  0  0  0  0  0  0  0  0  0  0  0
   -4.3100    0.2621    0.0000 C   0  0  0  0  0  0  0  0  0  0  0  0
   -3.7845   -0.3738    0.0000 O   0  0  0  0  0  0  0  0  0  0  0  0
   -5.1235    0.1249    0.0000 O   0  0  0  0  0  0  0  0  0  0  0  0
   -5.6491    0.7608    0.0000 C   0  0  0  0  0  0  0  0  0  0  0  0
   -6.1746    1.3968    0.0000 C   0  0  0  0  0  0  0  0  0  0  0  0
   -6.2850    0.2353    0.0000 C   0  0  0  0  0  0  0  0  0  0  0  0
   -5.0132    1.2864    0.0000 C   0  0  0  0  0  0  0  0  0  0  0  0
    1.0609   -1.4300    0.0000 C   0  0  0  0  0  0  0  0  0  0  0  0
    0.3697   -0.9796    0.0000 O   0  0  0  0  0  0  0  0  0  0  0  0
    1.0165   -2.2538    0.0000 C   0  0  0  0  0  0  0  0  0  0  0  0
    1.7077   -2.7041    0.0000 C   0  0  0  0  0  0  0  0  0  0  0  0
    1.6632   -3.5279    0.0000 C   0  0  0  0  0  0  0  0  0  0  0  0
    0.9276   -3.9014    0.0000 C   0  0  0  0  0  0  0  0  0  0  0  0
    0.2364   -3.4510    0.0000 C   0  0  0  0  0  0  0  0  0  0  0  0
    0.2808   -2.6272    0.0000 C   0  0  0  0  0  0  0  0  0  0  0  0
    2.1507   -1.8108    0.0000 C   0  0  0  0  0  0  0  0  0  0  0  0
    2.7471   -2.3808    0.0000 O   0  0  0  0  0  0  0  0  0  0  0  0
    1.3588   -2.0424    0.0000 C   0  0  0  0  0  0  0  0  0  0  0  0
  1  2  1  0
  1 14  1  0
  1 15  1  0
  1 21  1  0
  2  3  1  0
  2 22  1  0
  3  4  1  0
  3  8  1  0
  4  5  1  0
 20  4  1  0
  4 23  1  0
  5  6  1  0
  5 24  1  0
  6  7  1  0
  7  8  1  0
  7 25  1  0
  8  9  1  0
  8 19  1  0
 10  9  1  0
  9 26  2  0
 10 11  1  0
 10 27  1  0
 11 12  2  0
 11 15  1  0
 12 13  1  0
 12 18  1  0
 13 14  1  0
 13 28  1  0
 15 16  1  0
 15 17  1  0
 20 24  1  0
 48 22  1  0
 56 23  1  0
 29 28  1  0
 29 30  2  0
 29 31  1  0
 31 32  1  0
 31 33  1  0
 33 34  1  0
 33 40  1  0
 34 35  2  0
 34 39  1  0
 35 36  1  0
 36 37  2  0
 37 38  1  0
 38 39  2  0
 41 40  1  0
 41 42  2  0
 41 43  1  0
 44 43  1  0
 44 45  1  0
 44 46  1  0
 44 47  1  0
 48 49  2  0
 48 50  1  0
 50 51  2  0
 50 55  1  0
 51 52  1  0
 52 53  2  0
 53 54  1  0
 54 55  2  0
 56 57  2  0
 56 58  1  0
M  END
>  <Classification>  (226) 
0

>  <pchembl>  (226) 
4.39

>  <InChI_steorem>  (226) 
InChI=1S/C43H53NO14/c1-22-26(55-37(51)32(48)30(24-15-11-9-12-16-24)44-38(52)58-39(3,4)5)20-43(53)35(56-36(50)25-17-13-10-14-18-25)33-41(8,34(49)31(47)29(22)40(43,6)7)27(46)19-28-42(33,21-54-28)57-23(2)45/h9-18,26-28,30-33,35,46-48,53H,19-21H2,1-8H3,(H,44,52)

>  <source>  (226) 
ChEMBL25

>  <source_id>  (226) 
25

>  <optional_reference>  (226) 
10.1093/toxsci/kft176

>  <optional_origin>  (226) 
None

>  <target>  (226) 
BSEP

$$$$

     RDKit          2D

 62 68  0  0  0  0  0  0  0  0999 V2000
    1.2659    2.4297    0.0000 O   0  0  0  0  0  0  0  0  0  0  0  0
    0.0626    1.7814    0.0000 O   0  0  0  0  0  0  0  0  0  0  0  0
   -0.7701    1.4056    0.0000 O   0  0  0  0  0  0  0  0  0  0  0  0
   -1.3705    0.8449    0.0000 O   0  0  0  0  0  0  0  0  0  0  0  0
    0.2336   -1.3940    0.0000 O   0  0  0  0  0  0  0  0  0  0  0  0
    1.3514   -1.1849    0.0000 O   0  0  0  0  0  0  0  0  0  0  0  0
    3.0723    0.3298    0.0000 O   0  0  0  0  0  0  0  0  0  0  0  0
   -3.0191   -0.1820    0.0000 O   0  0  0  0  0  0  0  0  0  0  0  0
   -0.7878    3.0130    0.0000 O   0  0  0  0  0  0  0  0  0  0  0  0
   -1.1492    2.9182    0.0000 O   0  0  0  0  0  0  0  0  0  0  0  0
    1.1096   -2.5689    0.0000 O   0  0  0  0  0  0  0  0  0  0  0  0
   -2.7950   -1.5661    0.0000 O   0  0  0  0  0  0  0  0  0  0  0  0
   -4.7100   -0.5166    0.0000 O   0  0  0  0  0  0  0  0  0  0  0  0
   -5.2033   -3.6869    0.0000 O   0  0  0  0  0  0  0  0  0  0  0  0
   -5.2951   -2.2314    0.0000 N   0  0  0  0  0  0  0  0  0  0  0  0
    0.7702    0.5178    0.0000 C   0  0  0  0  0  0  0  0  0  0  0  0
    0.8527    1.3386    0.0000 C   0  0  0  0  0  0  0  0  0  0  0  0
    1.4399    0.0359    0.0000 C   0  0  0  0  0  0  0  0  0  0  0  0
   -0.7951    0.2273    0.0000 C   0  0  0  0  0  0  0  0  0  0  0  0
   -0.1782    0.5688    0.0000 C   0  0  0  0  0  0  0  0  0  0  0  0
   -0.6096    0.9481    0.0000 C   0  0  0  0  0  0  0  0  0  0  0  0
    1.6049    1.6776    0.0000 C   0  0  0  0  0  0  0  0  0  0  0  0
   -0.6217   -0.2486    0.0000 C   0  0  0  0  0  0  0  0  0  0  0  0
    1.0860   -0.3391    0.0000 C   0  0  0  0  0  0  0  0  0  0  0  0
    2.1920    0.3749    0.0000 C   0  0  0  0  0  0  0  0  0  0  0  0
    0.2177   -0.4990    0.0000 C   0  0  0  0  0  0  0  0  0  0  0  0
    0.5137    2.0908    0.0000 C   0  0  0  0  0  0  0  0  0  0  0  0
    2.2745    1.1957    0.0000 C   0  0  0  0  0  0  0  0  0  0  0  0
   -1.6888    0.4190    0.0000 C   0  0  0  0  0  0  0  0  0  0  0  0
   -1.3417   -0.5328    0.0000 C   0  0  0  0  0  0  0  0  0  0  0  0
   -2.1537   -0.0914    0.0000 C   0  0  0  0  0  0  0  0  0  0  0  0
    2.1081   -0.5633    0.0000 C   0  0  0  0  0  0  0  0  0  0  0  0
   -1.4670    1.4260    0.0000 C   0  0  0  0  0  0  0  0  0  0  0  0
   -0.6510    1.9344    0.0000 C   0  0  0  0  0  0  0  0  0  0  0  0
   -0.0335    2.6789    0.0000 C   0  0  0  0  0  0  0  0  0  0  0  0
   -1.4132    2.1366    0.0000 C   0  0  0  0  0  0  0  0  0  0  0  0
   -1.5877   -1.3764    0.0000 C   0  0  0  0  0  0  0  0  0  0  0  0
    0.3472   -2.2536    0.0000 C   0  0  0  0  0  0  0  0  0  0  0  0
   -2.2221    1.9743    0.0000 C   0  0  0  0  0  0  0  0  0  0  0  0
   -3.3609   -0.9658    0.0000 C   0  0  0  0  0  0  0  0  0  0  0  0
    0.6330    3.1651    0.0000 C   0  0  0  0  0  0  0  0  0  0  0  0
   -4.1986   -1.1640    0.0000 C   0  0  0  0  0  0  0  0  0  0  0  0
   -2.4860    1.1927    0.0000 C   0  0  0  0  0  0  0  0  0  0  0  0
   -2.7670    2.5938    0.0000 C   0  0  0  0  0  0  0  0  0  0  0  0
   -0.3070   -2.7562    0.0000 C   0  0  0  0  0  0  0  0  0  0  0  0
   -4.5168   -1.9636    0.0000 C   0  0  0  0  0  0  0  0  0  0  0  0
   -3.2949    1.0305    0.0000 C   0  0  0  0  0  0  0  0  0  0  0  0
   -3.5759    2.4315    0.0000 C   0  0  0  0  0  0  0  0  0  0  0  0
   -4.0055   -2.6110    0.0000 C   0  0  0  0  0  0  0  0  0  0  0  0
   -3.8398    1.6499    0.0000 C   0  0  0  0  0  0  0  0  0  0  0  0
   -5.6679   -3.0051    0.0000 C   0  0  0  0  0  0  0  0  0  0  0  0
   -3.1891   -2.4919    0.0000 C   0  0  0  0  0  0  0  0  0  0  0  0
   -4.3105   -3.3775    0.0000 C   0  0  0  0  0  0  0  0  0  0  0  0
   -6.4906   -3.0666    0.0000 C   0  0  0  0  0  0  0  0  0  0  0  0
   -2.6778   -3.1393    0.0000 C   0  0  0  0  0  0  0  0  0  0  0  0
   -3.7991   -4.0250    0.0000 C   0  0  0  0  0  0  0  0  0  0  0  0
   -2.9828   -3.9058    0.0000 C   0  0  0  0  0  0  0  0  0  0  0  0
   -6.8487   -3.8098    0.0000 C   0  0  0  0  0  0  0  0  0  0  0  0
   -6.9553   -2.3849    0.0000 C   0  0  0  0  0  0  0  0  0  0  0  0
   -7.6715   -3.8713    0.0000 C   0  0  0  0  0  0  0  0  0  0  0  0
   -7.7780   -2.4464    0.0000 C   0  0  0  0  0  0  0  0  0  0  0  0
   -8.1361   -3.1896    0.0000 C   0  0  0  0  0  0  0  0  0  0  0  0
 22  1  1  0
  1 27  1  0
 17  2  1  0
  2 35  1  0
 20  3  1  0
  3 36  1  0
 19  4  1  0
 26  5  1  0
  5 38  1  0
  6 24  2  0
 25  7  1  0
 31  8  1  0
  8 40  1  0
  9 35  2  0
 10 36  2  0
 11 38  2  0
 12 40  2  0
 42 13  1  0
 14 51  2  0
 46 15  1  0
 15 51  1  0
 16 17  1  0
 16 18  1  0
 16 20  1  0
 17 22  1  0
 17 27  1  0
 18 24  1  0
 18 25  1  0
 18 32  1  0
 19 20  1  0
 19 21  1  0
 19 29  1  0
 21 23  1  0
 21 33  1  0
 21 34  1  0
 22 28  1  0
 23 26  1  0
 23 30  2  0
 24 26  1  0
 25 28  1  0
 29 31  1  0
 30 31  1  0
 30 37  1  0
 35 41  1  0
 36 39  1  0
 38 45  1  0
 39 43  2  0
 39 44  1  0
 40 42  1  0
 42 46  1  0
 43 47  1  0
 44 48  2  0
 46 49  1  0
 47 50  2  0
 48 50  1  0
 49 52  2  0
 49 53  1  0
 51 54  1  0
 52 55  1  0
 53 56  2  0
 54 58  2  0
 54 59  1  0
 55 57  2  0
 56 57  1  0
 58 60  1  0
 59 61  2  0
 60 62  2  0
 61 62  1  0
M  END
>  <Classification>  (227) 
0

>  <pchembl>  (227) 
4.54

>  <InChI_steorem>  (227) 
InChI=1S/C47H51NO14/c1-25-31(60-43(56)36(52)35(28-16-10-7-11-17-28)48-41(54)29-18-12-8-13-19-29)23-47(57)40(61-42(55)30-20-14-9-15-21-30)38-45(6,32(51)22-33-46(38,24-58-33)62-27(3)50)39(53)37(59-26(2)49)34(25)44(47,4)5/h7-21,31-33,35-38,40,51-52,57H,22-24H2,1-6H3,(H,48,54)

>  <source>  (227) 
ChEMBL25

>  <source_id>  (227) 
25

>  <optional_reference>  (227) 
10.1023/a:1023278211849

>  <optional_origin>  (227) 
None

>  <target>  (227) 
BSEP

$$$$

     RDKit          2D

 34 38  0  0  0  0  0  0  0  0999 V2000
   15.1691  -16.5829    0.0000 C   0  0  0  0  0  0  0  0  0  0  0  0
   15.1680  -17.4103    0.0000 C   0  0  0  0  0  0  0  0  0  0  0  0
   15.8827  -17.8231    0.0000 C   0  0  0  0  0  0  0  0  0  0  0  0
   16.5992  -17.4098    0.0000 C   0  0  0  0  0  0  0  0  0  0  0  0
   16.5963  -16.5793    0.0000 C   0  0  0  0  0  0  0  0  0  0  0  0
   15.8809  -16.1702    0.0000 C   0  0  0  0  0  0  0  0  0  0  0  0
   17.3107  -17.8204    0.0000 C   0  0  0  0  0  0  0  0  0  0  0  0
   17.3107  -18.6465    0.0000 C   0  0  0  0  0  0  0  0  0  0  0  0
   18.0249  -19.0578    0.0000 C   0  0  0  0  0  0  0  0  0  0  0  0
   18.7397  -18.6442    0.0000 C   0  0  0  0  0  0  0  0  0  0  0  0
   18.7357  -17.8150    0.0000 C   0  0  0  0  0  0  0  0  0  0  0  0
   18.0209  -17.4073    0.0000 C   0  0  0  0  0  0  0  0  0  0  0  0
   19.4536  -19.0537    0.0000 C   0  0  0  0  0  0  0  0  0  0  0  0
   19.4540  -19.8797    0.0000 C   0  0  0  0  0  0  0  0  0  0  0  0
   20.1656  -20.2899    0.0000 C   0  0  0  0  0  0  0  0  0  0  0  0
   20.1647  -18.6381    0.0000 O   0  0  0  0  0  0  0  0  0  0  0  0
   20.8808  -19.0529    0.0000 C   0  0  0  0  0  0  0  0  0  0  0  0
   20.8803  -19.8769    0.0000 C   0  0  0  0  0  0  0  0  0  0  0  0
   21.5924  -20.2875    0.0000 C   0  0  0  0  0  0  0  0  0  0  0  0
   22.3057  -19.8754    0.0000 C   0  0  0  0  0  0  0  0  0  0  0  0
   22.3021  -19.0483    0.0000 C   0  0  0  0  0  0  0  0  0  0  0  0
   21.5894  -18.6414    0.0000 C   0  0  0  0  0  0  0  0  0  0  0  0
   23.0148  -18.6326    0.0000 C   0  0  0  0  0  0  0  0  0  0  0  0
   23.7310  -19.0418    0.0000 C   0  0  0  0  0  0  0  0  0  0  0  0
   23.0110  -17.8076    0.0000 C   0  0  0  0  0  0  0  0  0  0  0  0
   24.4437  -18.6261    0.0000 C   0  0  0  0  0  0  0  0  0  0  0  0
   25.1599  -19.0354    0.0000 O   0  0  0  0  0  0  0  0  0  0  0  0
   24.4399  -17.8011    0.0000 O   0  0  0  0  0  0  0  0  0  0  0  0
   23.4149  -17.0922    0.0000 C   0  0  0  0  0  0  0  0  0  0  0  0
   22.5899  -17.0960    0.0000 C   0  0  0  0  0  0  0  0  0  0  0  0
   23.7348  -19.8668    0.0000 C   0  0  0  0  0  0  0  0  0  0  0  0
   17.3092  -16.1642    0.0000 F   0  0  0  0  0  0  0  0  0  0  0  0
   14.4531  -17.8222    0.0000 O   0  0  0  0  0  0  0  0  0  0  0  0
   13.7391  -17.4092    0.0000 C   0  0  0  0  0  0  0  0  0  0  0  0
  1  2  2  0
  2  3  1  0
  3  4  2  0
  4  5  1  0
  5  6  2  0
  6  1  1  0
  7  8  2  0
  8  9  1  0
  9 10  2  0
 10 11  1  0
 11 12  2  0
 12  7  1  0
  4  7  1  0
 13 14  1  0
 13 16  1  0
 14 15  1  0
 15 18  1  0
 17 16  1  0
 10 13  1  0
 17 18  2  0
 18 19  1  0
 19 20  2  0
 20 21  1  0
 21 22  2  0
 22 17  1  0
 21 23  1  0
 23 24  1  0
 23 25  1  0
 24 26  1  0
 26 27  2  0
 26 28  1  0
 29 25  1  0
 30 29  1  0
 25 30  1  0
 24 31  1  0
  5 32  1  0
  2 33  1  0
 33 34  1  0
M  END
>  <Classification>  (228) 
1

>  <pchembl>  (228) 
5.85

>  <InChI_steorem>  (228) 
InChI=1S/C29H29FO4/c1-17(29(31)32)28(21-8-9-21)22-10-7-20-11-14-26(34-27(20)15-22)19-5-3-18(4-6-19)24-16-23(33-2)12-13-25(24)30/h3-7,10,12-13,15-17,21,26,28H,8-9,11,14H2,1-2H3,(H,31,32)

>  <source>  (228) 
ChEMBL26

>  <source_id>  (228) 
26

>  <optional_reference>  (228) 
10.1021/acsmedchemlett.8b00149

>  <optional_origin>  (228) 
None

>  <target>  (228) 
BSEP

$$$$

     RDKit          2D

 34 38  0  0  0  0  0  0  0  0999 V2000
   15.7585   -2.0659    0.0000 N   0  0  0  0  0  0  0  0  0  0  0  0
   15.7574   -2.8938    0.0000 C   0  0  0  0  0  0  0  0  0  0  0  0
   16.4733   -3.3090    0.0000 C   0  0  0  0  0  0  0  0  0  0  0  0
   17.1906   -2.8933    0.0000 C   0  0  0  0  0  0  0  0  0  0  0  0
   17.1878   -2.0622    0.0000 C   0  0  0  0  0  0  0  0  0  0  0  0
   16.4715   -1.6550    0.0000 C   0  0  0  0  0  0  0  0  0  0  0  0
   17.9033   -3.3063    0.0000 C   0  0  0  0  0  0  0  0  0  0  0  0
   17.9033   -4.1329    0.0000 C   0  0  0  0  0  0  0  0  0  0  0  0
   18.6185   -4.5424    0.0000 N   0  0  0  0  0  0  0  0  0  0  0  0
   19.3302   -4.1305    0.0000 C   0  0  0  0  0  0  0  0  0  0  0  0
   19.3263   -3.3008    0.0000 C   0  0  0  0  0  0  0  0  0  0  0  0
   18.6145   -2.8909    0.0000 C   0  0  0  0  0  0  0  0  0  0  0  0
   20.0451   -4.5383    0.0000 C   0  0  0  0  0  0  0  0  0  0  0  0
   20.0455   -5.3648    0.0000 C   0  0  0  0  0  0  0  0  0  0  0  0
   20.7582   -5.7776    0.0000 C   0  0  0  0  0  0  0  0  0  0  0  0
   20.7574   -4.1245    0.0000 O   0  0  0  0  0  0  0  0  0  0  0  0
   21.4745   -4.5376    0.0000 C   0  0  0  0  0  0  0  0  0  0  0  0
   21.4740   -5.3621    0.0000 C   0  0  0  0  0  0  0  0  0  0  0  0
   22.1872   -5.7751    0.0000 C   0  0  0  0  0  0  0  0  0  0  0  0
   22.9014   -5.3606    0.0000 C   0  0  0  0  0  0  0  0  0  0  0  0
   22.8979   -4.5330    0.0000 C   0  0  0  0  0  0  0  0  0  0  0  0
   22.1842   -4.1278    0.0000 C   0  0  0  0  0  0  0  0  0  0  0  0
   23.6116   -4.1191    0.0000 C   0  0  0  0  0  0  0  0  0  0  0  0
   24.3289   -4.5266    0.0000 C   0  0  0  0  0  0  0  0  0  0  0  0
   23.6079   -3.2935    0.0000 C   0  0  0  0  0  0  0  0  0  0  0  0
   25.0384   -4.1126    0.0000 C   0  0  0  0  0  0  0  0  0  0  0  0
   25.7558   -4.5201    0.0000 O   0  0  0  0  0  0  0  0  0  0  0  0
   25.0347   -3.2829    0.0000 O   0  0  0  0  0  0  0  0  0  0  0  0
   24.0099   -2.5771    0.0000 C   0  0  0  0  0  0  0  0  0  0  0  0
   23.1844   -2.5808    0.0000 C   0  0  0  0  0  0  0  0  0  0  0  0
   24.3326   -5.3521    0.0000 C   0  0  0  0  0  0  0  0  0  0  0  0
   15.0415   -3.3080    0.0000 O   0  0  0  0  0  0  0  0  0  0  0  0
   14.3264   -2.8927    0.0000 C   0  0  0  0  0  0  0  0  0  0  0  0
   17.9018   -1.6489    0.0000 F   0  0  0  0  0  0  0  0  0  0  0  0
  1  2  2  0
  2  3  1  0
  3  4  2  0
  4  5  1  0
  5  6  2  0
  6  1  1  0
  7  8  2  0
  8  9  1  0
  9 10  2  0
 10 11  1  0
 11 12  2  0
 12  7  1  0
  4  7  1  0
 13 14  1  0
 13 16  1  0
 14 15  1  0
 15 18  1  0
 17 16  1  0
 10 13  1  0
 17 18  2  0
 18 19  1  0
 19 20  2  0
 20 21  1  0
 21 22  2  0
 22 17  1  0
 21 23  1  0
 23 24  1  0
 23 25  1  0
 24 26  1  0
 26 27  2  0
 26 28  1  0
 29 25  1  0
 30 29  1  0
 25 30  1  0
 24 31  1  0
  2 32  1  0
 32 33  1  0
  5 34  1  0
M  END
>  <Classification>  (229) 
1

>  <pchembl>  (229) 
5.5

>  <InChI_steorem>  (229) 
InChI=1S/C27H27FN2O4/c1-15(27(31)32)26(17-4-5-17)18-6-3-16-8-10-23(34-24(16)11-18)22-9-7-19(13-29-22)20-12-25(33-2)30-14-21(20)28/h3,6-7,9,11-15,17,23,26H,4-5,8,10H2,1-2H3,(H,31,32)

>  <source>  (229) 
ChEMBL26

>  <source_id>  (229) 
26

>  <optional_reference>  (229) 
10.1021/acsmedchemlett.8b00149

>  <optional_origin>  (229) 
None

>  <target>  (229) 
BSEP

$$$$

     RDKit          2D

 34 38  0  0  0  0  0  0  0  0999 V2000
   26.6707  -16.4590    0.0000 C   0  0  0  0  0  0  0  0  0  0  0  0
   26.6695  -17.2865    0.0000 C   0  0  0  0  0  0  0  0  0  0  0  0
   27.3844  -17.6993    0.0000 C   0  0  0  0  0  0  0  0  0  0  0  0
   28.1008  -17.2860    0.0000 C   0  0  0  0  0  0  0  0  0  0  0  0
   28.0979  -16.4554    0.0000 C   0  0  0  0  0  0  0  0  0  0  0  0
   27.3825  -16.0463    0.0000 C   0  0  0  0  0  0  0  0  0  0  0  0
   28.8124  -17.6966    0.0000 C   0  0  0  0  0  0  0  0  0  0  0  0
   28.8123  -18.5228    0.0000 C   0  0  0  0  0  0  0  0  0  0  0  0
   29.5266  -18.9341    0.0000 N   0  0  0  0  0  0  0  0  0  0  0  0
   30.2415  -18.5205    0.0000 C   0  0  0  0  0  0  0  0  0  0  0  0
   30.2376  -17.6911    0.0000 C   0  0  0  0  0  0  0  0  0  0  0  0
   29.5227  -17.2835    0.0000 C   0  0  0  0  0  0  0  0  0  0  0  0
   30.9554  -18.9299    0.0000 C   0  0  0  0  0  0  0  0  0  0  0  0
   30.9558  -19.7560    0.0000 C   0  0  0  0  0  0  0  0  0  0  0  0
   31.6675  -20.1663    0.0000 C   0  0  0  0  0  0  0  0  0  0  0  0
   31.6666  -18.5143    0.0000 O   0  0  0  0  0  0  0  0  0  0  0  0
   32.3828  -18.9292    0.0000 C   0  0  0  0  0  0  0  0  0  0  0  0
   32.3823  -19.7533    0.0000 C   0  0  0  0  0  0  0  0  0  0  0  0
   33.0945  -20.1639    0.0000 C   0  0  0  0  0  0  0  0  0  0  0  0
   33.8077  -19.7517    0.0000 C   0  0  0  0  0  0  0  0  0  0  0  0
   33.8042  -18.9246    0.0000 C   0  0  0  0  0  0  0  0  0  0  0  0
   33.0914  -18.5176    0.0000 C   0  0  0  0  0  0  0  0  0  0  0  0
   34.5169  -18.5088    0.0000 C   0  0  0  0  0  0  0  0  0  0  0  0
   35.2332  -18.9181    0.0000 C   0  0  0  0  0  0  0  0  0  0  0  0
   34.5132  -17.6838    0.0000 C   0  0  0  0  0  0  0  0  0  0  0  0
   35.9458  -18.5024    0.0000 C   0  0  0  0  0  0  0  0  0  0  0  0
   36.6622  -18.9117    0.0000 O   0  0  0  0  0  0  0  0  0  0  0  0
   35.9422  -17.6773    0.0000 O   0  0  0  0  0  0  0  0  0  0  0  0
   34.9170  -16.9684    0.0000 C   0  0  0  0  0  0  0  0  0  0  0  0
   34.0920  -16.9721    0.0000 C   0  0  0  0  0  0  0  0  0  0  0  0
   35.2369  -19.7432    0.0000 C   0  0  0  0  0  0  0  0  0  0  0  0
   25.9547  -17.6984    0.0000 O   0  0  0  0  0  0  0  0  0  0  0  0
   25.2405  -17.2853    0.0000 C   0  0  0  0  0  0  0  0  0  0  0  0
   28.8109  -16.0403    0.0000 F   0  0  0  0  0  0  0  0  0  0  0  0
  1  2  2  0
  2  3  1  0
  3  4  2  0
  4  5  1  0
  5  6  2  0
  6  1  1  0
  7  8  2  0
  8  9  1  0
  9 10  2  0
 10 11  1  0
 11 12  2  0
 12  7  1  0
  4  7  1  0
 13 14  1  0
 13 16  1  0
 14 15  1  0
 15 18  1  0
 17 16  1  0
 10 13  1  0
 17 18  2  0
 18 19  1  0
 19 20  2  0
 20 21  1  0
 21 22  2  0
 22 17  1  0
 21 23  1  0
 23 24  1  0
 23 25  1  0
 24 26  1  0
 26 27  2  0
 26 28  1  0
 29 25  1  0
 30 29  1  0
 25 30  1  0
 24 31  1  0
  2 32  1  0
 32 33  1  0
  5 34  1  0
M  END
>  <Classification>  (230) 
1

>  <pchembl>  (230) 
6.52

>  <InChI_steorem>  (230) 
InChI=1S/C28H28FNO4/c1-16(28(31)32)27(18-4-5-18)19-6-3-17-8-12-25(34-26(17)13-19)24-11-7-20(15-30-24)22-14-21(33-2)9-10-23(22)29/h3,6-7,9-11,13-16,18,25,27H,4-5,8,12H2,1-2H3,(H,31,32)

>  <source>  (230) 
ChEMBL26

>  <source_id>  (230) 
26

>  <optional_reference>  (230) 
10.1021/acsmedchemlett.8b00149

>  <optional_origin>  (230) 
None

>  <target>  (230) 
BSEP

$$$$

     RDKit          2D

 34 38  0  0  0  0  0  0  0  0999 V2000
   29.1563  -24.3370    0.0000 N   0  0  0  0  0  0  0  0  0  0  0  0
   29.1552  -25.1643    0.0000 C   0  0  0  0  0  0  0  0  0  0  0  0
   29.8699  -25.5772    0.0000 C   0  0  0  0  0  0  0  0  0  0  0  0
   30.5864  -25.1639    0.0000 C   0  0  0  0  0  0  0  0  0  0  0  0
   30.5836  -24.3333    0.0000 C   0  0  0  0  0  0  0  0  0  0  0  0
   29.8681  -23.9242    0.0000 C   0  0  0  0  0  0  0  0  0  0  0  0
   31.2979  -25.5744    0.0000 C   0  0  0  0  0  0  0  0  0  0  0  0
   31.2979  -26.4006    0.0000 C   0  0  0  0  0  0  0  0  0  0  0  0
   32.0122  -26.8118    0.0000 C   0  0  0  0  0  0  0  0  0  0  0  0
   32.7269  -26.3981    0.0000 C   0  0  0  0  0  0  0  0  0  0  0  0
   32.7230  -25.5689    0.0000 C   0  0  0  0  0  0  0  0  0  0  0  0
   32.0081  -25.1613    0.0000 C   0  0  0  0  0  0  0  0  0  0  0  0
   33.4408  -26.8077    0.0000 C   0  0  0  0  0  0  0  0  0  0  0  0
   33.4413  -27.6337    0.0000 C   0  0  0  0  0  0  0  0  0  0  0  0
   34.1528  -28.0440    0.0000 C   0  0  0  0  0  0  0  0  0  0  0  0
   34.1520  -26.3921    0.0000 O   0  0  0  0  0  0  0  0  0  0  0  0
   34.8680  -26.8070    0.0000 C   0  0  0  0  0  0  0  0  0  0  0  0
   34.8675  -27.6310    0.0000 C   0  0  0  0  0  0  0  0  0  0  0  0
   35.5796  -28.0416    0.0000 C   0  0  0  0  0  0  0  0  0  0  0  0
   36.2929  -27.6294    0.0000 C   0  0  0  0  0  0  0  0  0  0  0  0
   36.2894  -26.8023    0.0000 C   0  0  0  0  0  0  0  0  0  0  0  0
   35.5766  -26.3954    0.0000 C   0  0  0  0  0  0  0  0  0  0  0  0
   37.0020  -26.3866    0.0000 C   0  0  0  0  0  0  0  0  0  0  0  0
   37.7183  -26.7959    0.0000 C   0  0  0  0  0  0  0  0  0  0  0  0
   36.9982  -25.5616    0.0000 C   0  0  0  0  0  0  0  0  0  0  0  0
   38.4309  -26.3802    0.0000 C   0  0  0  0  0  0  0  0  0  0  0  0
   39.1472  -26.7894    0.0000 O   0  0  0  0  0  0  0  0  0  0  0  0
   38.4271  -25.5552    0.0000 O   0  0  0  0  0  0  0  0  0  0  0  0
   37.4022  -24.8463    0.0000 C   0  0  0  0  0  0  0  0  0  0  0  0
   36.5772  -24.8500    0.0000 C   0  0  0  0  0  0  0  0  0  0  0  0
   37.7220  -27.6209    0.0000 C   0  0  0  0  0  0  0  0  0  0  0  0
   28.4404  -25.5763    0.0000 O   0  0  0  0  0  0  0  0  0  0  0  0
   27.7263  -25.1632    0.0000 C   0  0  0  0  0  0  0  0  0  0  0  0
   33.4353  -25.1528    0.0000 F   0  0  0  0  0  0  0  0  0  0  0  0
  1  2  2  0
  2  3  1  0
  3  4  2  0
  4  5  1  0
  5  6  2  0
  6  1  1  0
  7  8  2  0
  8  9  1  0
  9 10  2  0
 10 11  1  0
 11 12  2  0
 12  7  1  0
  4  7  1  0
 13 14  1  0
 13 16  1  0
 14 15  1  0
 15 18  1  0
 17 16  1  0
 13 10  1  0
 17 18  2  0
 18 19  1  0
 19 20  2  0
 20 21  1  0
 21 22  2  0
 22 17  1  0
 21 23  1  0
 23 24  1  0
 23 25  1  0
 24 26  1  0
 26 27  2  0
 26 28  1  0
 29 25  1  0
 30 29  1  0
 25 30  1  0
 24 31  1  0
  2 32  1  0
 32 33  1  0
 11 34  1  0
M  END
>  <Classification>  (231) 
1

>  <pchembl>  (231) 
5.46

>  <InChI_steorem>  (231) 
InChI=1S/C28H28FNO4/c1-16(28(31)32)27(18-4-5-18)21-6-3-17-8-10-24(34-25(17)14-21)22-9-7-19(13-23(22)29)20-11-12-30-26(15-20)33-2/h3,6-7,9,11-16,18,24,27H,4-5,8,10H2,1-2H3,(H,31,32)

>  <source>  (231) 
ChEMBL26

>  <source_id>  (231) 
26

>  <optional_reference>  (231) 
10.1021/acsmedchemlett.8b00149

>  <optional_origin>  (231) 
None

>  <target>  (231) 
BSEP

$$$$

     RDKit          2D

 33 36  0  0  0  0  0  0  0  0999 V2000
   31.8787  -25.3825    0.0000 O   0  0  0  0  0  0  0  0  0  0  0  0
   31.0615  -25.3825    0.0000 S   0  0  0  0  0  0  0  0  0  0  0  0
   31.4701  -26.0902    0.0000 O   0  0  0  0  0  0  0  0  0  0  0  0
   31.0402  -23.2706    0.0000 N   0  0  0  0  0  0  0  0  0  0  0  0
   26.6206  -24.6519    0.0000 C   0  0  0  0  0  0  0  0  0  0  0  0
   26.6206  -25.4691    0.0000 C   0  0  0  0  0  0  0  0  0  0  0  0
   27.3259  -25.8736    0.0000 C   0  0  0  0  0  0  0  0  0  0  0  0
   28.0312  -25.4691    0.0000 C   0  0  0  0  0  0  0  0  0  0  0  0
   28.0312  -24.6519    0.0000 C   0  0  0  0  0  0  0  0  0  0  0  0
   27.3259  -24.2392    0.0000 C   0  0  0  0  0  0  0  0  0  0  0  0
   28.7383  -25.8787    0.0000 C   0  0  0  0  0  0  0  0  0  0  0  0
   28.7401  -24.2454    0.0000 C   0  0  0  0  0  0  0  0  0  0  0  0
   29.4466  -24.6561    0.0000 N   0  0  0  0  0  0  0  0  0  0  0  0
   28.7425  -23.4282    0.0000 O   0  0  0  0  0  0  0  0  0  0  0  0
   28.7371  -26.6959    0.0000 C   0  0  0  0  0  0  0  0  0  0  0  0
   29.4466  -25.4712    0.0000 O   0  0  0  0  0  0  0  0  0  0  0  0
   28.0278  -27.1018    0.0000 C   0  0  0  0  0  0  0  0  0  0  0  0
   28.0263  -27.9182    0.0000 C   0  0  0  0  0  0  0  0  0  0  0  0
   28.7339  -28.3287    0.0000 C   0  0  0  0  0  0  0  0  0  0  0  0
   29.4446  -27.9167    0.0000 C   0  0  0  0  0  0  0  0  0  0  0  0
   29.4426  -27.1017    0.0000 C   0  0  0  0  0  0  0  0  0  0  0  0
   28.7361  -29.1489    0.0000 C   0  0  0  0  0  0  0  0  0  0  0  0
   28.0750  -29.6292    0.0000 C   0  0  0  0  0  0  0  0  0  0  0  0
   28.3274  -30.4064    0.0000 C   0  0  0  0  0  0  0  0  0  0  0  0
   29.1447  -30.4065    0.0000 N   0  0  0  0  0  0  0  0  0  0  0  0
   29.3971  -29.6294    0.0000 N   0  0  0  0  0  0  0  0  0  0  0  0
   27.8470  -31.0675    0.0000 C   0  0  0  0  0  0  0  0  0  0  0  0
   30.1555  -24.2496    0.0000 C   0  0  0  0  0  0  0  0  0  0  0  0
   30.8981  -24.5853    0.0000 C   0  0  0  0  0  0  0  0  0  0  0  0
   31.4467  -23.9796    0.0000 N   0  0  0  0  0  0  0  0  0  0  0  0
   30.2404  -23.4383    0.0000 C   0  0  0  0  0  0  0  0  0  0  0  0
   32.2625  -23.9792    0.0000 C   0  0  0  0  0  0  0  0  0  0  0  0
   30.4550  -25.9295    0.0000 N   0  0  0  0  0  0  0  0  0  0  0  0
  2  1  2  0
  3  2  2  0
  5  6  1  0
  5 10  1  0
  6  7  1  0
  7  8  1  0
  8  9  1  0
  9 10  1  0
  8 11  1  0
  9 12  1  0
 12 13  1  0
 12 14  2  0
 11 15  1  0
 11 16  2  0
 15 17  2  0
 17 18  1  0
 18 19  2  0
 19 20  1  0
 20 21  2  0
 21 15  1  0
 22 23  1  0
 23 24  2  0
 24 25  1  0
 25 26  1  0
 26 22  2  0
 19 22  1  0
 24 27  1  0
 13 28  1  0
 28 29  2  0
 29 30  1  0
 30  4  1  0
  4 31  2  0
 31 28  1  0
 30 32  1  0
 29  2  1  0
  2 33  1  0
M  END
>  <Classification>  (232) 
0

>  <pchembl>  (232) 
4.13

>  <InChI_steorem>  (232) 
InChI=1S/C22H26N6O4S/c1-13-11-18(27-26-13)14-7-9-15(10-8-14)20(29)16-5-3-4-6-17(16)21(30)25-19-12-24-28(2)22(19)33(23,31)32/h7-12,16-17H,3-6H2,1-2H3,(H,25,30)(H,26,27)(H2,23,31,32)

>  <source>  (232) 
ChEMBL28

>  <source_id>  (232) 
28

>  <optional_reference>  (232) 
10.1021/acs.jmedchem.8b02004

>  <optional_origin>  (232) 
None

>  <target>  (232) 
BSEP

$$$$

     RDKit          2D

 33 37  0  0  0  0  0  0  0  0999 V2000
   38.1892  -24.7469    0.0000 C   0  0  0  0  0  0  0  0  0  0  0  0
   38.1892  -25.5641    0.0000 C   0  0  0  0  0  0  0  0  0  0  0  0
   38.8945  -25.9685    0.0000 C   0  0  0  0  0  0  0  0  0  0  0  0
   39.5998  -25.5641    0.0000 C   0  0  0  0  0  0  0  0  0  0  0  0
   39.5998  -24.7469    0.0000 C   0  0  0  0  0  0  0  0  0  0  0  0
   38.8945  -24.3341    0.0000 C   0  0  0  0  0  0  0  0  0  0  0  0
   40.3069  -25.9737    0.0000 C   0  0  0  0  0  0  0  0  0  0  0  0
   40.3087  -24.3403    0.0000 C   0  0  0  0  0  0  0  0  0  0  0  0
   41.0152  -24.7510    0.0000 N   0  0  0  0  0  0  0  0  0  0  0  0
   40.3111  -23.5232    0.0000 O   0  0  0  0  0  0  0  0  0  0  0  0
   40.3057  -26.7909    0.0000 C   0  0  0  0  0  0  0  0  0  0  0  0
   41.0152  -25.5661    0.0000 O   0  0  0  0  0  0  0  0  0  0  0  0
   39.5964  -27.1967    0.0000 C   0  0  0  0  0  0  0  0  0  0  0  0
   39.5949  -28.0132    0.0000 C   0  0  0  0  0  0  0  0  0  0  0  0
   40.3025  -28.4236    0.0000 C   0  0  0  0  0  0  0  0  0  0  0  0
   41.0132  -28.0117    0.0000 C   0  0  0  0  0  0  0  0  0  0  0  0
   41.0112  -27.1966    0.0000 C   0  0  0  0  0  0  0  0  0  0  0  0
   40.3047  -29.2439    0.0000 C   0  0  0  0  0  0  0  0  0  0  0  0
   39.6436  -29.7241    0.0000 C   0  0  0  0  0  0  0  0  0  0  0  0
   39.8960  -30.5014    0.0000 C   0  0  0  0  0  0  0  0  0  0  0  0
   40.7133  -30.5015    0.0000 N   0  0  0  0  0  0  0  0  0  0  0  0
   40.9658  -29.7243    0.0000 N   0  0  0  0  0  0  0  0  0  0  0  0
   39.4156  -31.1624    0.0000 C   0  0  0  0  0  0  0  0  0  0  0  0
   41.7241  -24.3445    0.0000 C   0  0  0  0  0  0  0  0  0  0  0  0
   42.6106  -23.3614    0.0000 N   0  0  0  0  0  0  0  0  0  0  0  0
   41.8109  -23.5291    0.0000 C   0  0  0  0  0  0  0  0  0  0  0  0
   43.0172  -24.0704    0.0000 N   0  0  0  0  0  0  0  0  0  0  0  0
   42.4683  -24.6706    0.0000 C   0  0  0  0  0  0  0  0  0  0  0  0
   42.7124  -25.4419    0.0000 C   0  0  0  0  0  0  0  0  0  0  0  0
   43.5056  -25.6191    0.0000 N   0  0  0  0  0  0  0  0  0  0  0  0
   44.0545  -25.0188    0.0000 C   0  0  0  0  0  0  0  0  0  0  0  0
   43.8102  -24.2413    0.0000 C   0  0  0  0  0  0  0  0  0  0  0  0
   42.1601  -26.0442    0.0000 O   0  0  0  0  0  0  0  0  0  0  0  0
  1  2  1  0
  1  6  1  0
  2  3  1  0
  3  4  1  0
  4  5  1  0
  5  6  1  0
  4  7  1  0
  5  8  1  0
  8  9  1  0
  8 10  2  0
  7 11  1  0
  7 12  2  0
 11 13  2  0
 13 14  1  0
 14 15  2  0
 15 16  1  0
 16 17  2  0
 17 11  1  0
 18 19  1  0
 19 20  2  0
 20 21  1  0
 21 22  1  0
 22 18  2  0
 15 18  1  0
 20 23  1  0
  9 24  1  0
 24 28  2  0
 27 25  1  0
 25 26  2  0
 26 24  1  0
 27 28  1  0
 27 32  1  0
 28 29  1  0
 29 30  1  0
 30 31  1  0
 31 32  1  0
 29 33  2  0
M  END
>  <Classification>  (233) 
0

>  <pchembl>  (233) 
4.13

>  <InChI_steorem>  (233) 
InChI=1S/C24H26N6O3/c1-14-12-19(29-28-14)15-6-8-16(9-7-15)22(31)17-4-2-3-5-18(17)23(32)27-20-13-26-30-11-10-25-24(33)21(20)30/h6-9,12-13,17-18H,2-5,10-11H2,1H3,(H,25,33)(H,27,32)(H,28,29)

>  <source>  (233) 
ChEMBL28

>  <source_id>  (233) 
28

>  <optional_reference>  (233) 
10.1021/acs.jmedchem.8b02004

>  <optional_origin>  (233) 
None

>  <target>  (233) 
BSEP

$$$$

     RDKit          2D

 37 40  0  0  0  0  0  0  0  0999 V2000
    6.5733  -19.4475    0.0000 N   0  0  0  0  0  0  0  0  0  0  0  0
    6.5721  -20.2670    0.0000 C   0  0  0  0  0  0  0  0  0  0  0  0
    7.2802  -20.6760    0.0000 N   0  0  0  0  0  0  0  0  0  0  0  0
    7.9898  -20.2665    0.0000 C   0  0  0  0  0  0  0  0  0  0  0  0
    7.9870  -19.4439    0.0000 C   0  0  0  0  0  0  0  0  0  0  0  0
    7.2784  -19.0386    0.0000 C   0  0  0  0  0  0  0  0  0  0  0  0
    7.2731  -18.2243    0.0000 C   0  0  0  0  0  0  0  0  0  0  0  0
    7.9812  -17.8142    0.0000 C   0  0  0  0  0  0  0  0  0  0  0  0
    7.9791  -16.9977    0.0000 C   0  0  0  0  0  0  0  0  0  0  0  0
    7.2697  -16.5904    0.0000 C   0  0  0  0  0  0  0  0  0  0  0  0
    6.5609  -17.0055    0.0000 C   0  0  0  0  0  0  0  0  0  0  0  0
    6.5664  -17.8206    0.0000 C   0  0  0  0  0  0  0  0  0  0  0  0
    8.6982  -20.6740    0.0000 N   0  0  0  0  0  0  0  0  0  0  0  0
    8.6858  -16.5874    0.0000 F   0  0  0  0  0  0  0  0  0  0  0  0
    5.8611  -18.2332    0.0000 C   0  0  0  0  0  0  0  0  0  0  0  0
    5.8505  -16.6015    0.0000 N   0  0  0  0  0  0  0  0  0  0  0  0
    5.8452  -15.7844    0.0000 C   0  0  0  0  0  0  0  0  0  0  0  0
    5.1348  -15.3804    0.0000 C   0  0  0  0  0  0  0  0  0  0  0  0
    6.5502  -15.3712    0.0000 O   0  0  0  0  0  0  0  0  0  0  0  0
    5.1328  -14.5645    0.0000 C   0  0  0  0  0  0  0  0  0  0  0  0
    4.4233  -14.1606    0.0000 C   0  0  0  0  0  0  0  0  0  0  0  0
    3.7173  -14.5738    0.0000 C   0  0  0  0  0  0  0  0  0  0  0  0
    3.7253  -15.3952    0.0000 C   0  0  0  0  0  0  0  0  0  0  0  0
    4.4353  -15.7954    0.0000 C   0  0  0  0  0  0  0  0  0  0  0  0
    3.0071  -14.1674    0.0000 C   0  0  0  0  0  0  0  0  0  0  0  0
    2.5929  -13.4629    0.0000 C   0  0  0  0  0  0  0  0  0  0  0  0
    2.1899  -14.1738    0.0000 C   0  0  0  0  0  0  0  0  0  0  0  0
    4.4444  -16.6126    0.0000 F   0  0  0  0  0  0  0  0  0  0  0  0
    8.6932  -19.0326    0.0000 O   0  0  0  0  0  0  0  0  0  0  0  0
    9.4024  -19.4385    0.0000 C   0  0  0  0  0  0  0  0  0  0  0  0
   10.1086  -19.0273    0.0000 C   0  0  0  0  0  0  0  0  0  0  0  0
   10.8178  -19.4332    0.0000 N   0  0  0  0  0  0  0  0  0  0  0  0
   10.8209  -20.2504    0.0000 C   0  0  0  0  0  0  0  0  0  0  0  0
   11.5240  -19.0219    0.0000 C   0  0  0  0  0  0  0  0  0  0  0  0
   12.2332  -19.4279    0.0000 C   0  0  0  0  0  0  0  0  0  0  0  0
   12.9394  -19.0166    0.0000 C   0  0  0  0  0  0  0  0  0  0  0  0
   11.5209  -18.2048    0.0000 O   0  0  0  0  0  0  0  0  0  0  0  0
  1  2  2  0
  2  3  1  0
  3  4  2  0
  4  5  1  0
  5  6  2  0
  6  1  1  0
  7  8  2  0
  8  9  1  0
  9 10  2  0
 10 11  1  0
 11 12  2  0
 12  7  1  0
  6  7  1  0
  4 13  1  0
  9 14  1  0
 12 15  1  0
 11 16  1  0
 16 17  1  0
 17 18  1  0
 17 19  2  0
 18 20  2  0
 20 21  1  0
 21 22  2  0
 22 23  1  0
 23 24  2  0
 24 18  1  0
 26 25  1  0
 27 26  1  0
 25 27  1  0
 22 25  1  0
 24 28  1  0
  5 29  1  0
 29 30  1  0
 30 31  1  0
 31 32  1  0
 32 33  1  0
 32 34  1  0
 34 35  1  0
 35 36  2  0
 34 37  2  0
M  END
>  <Classification>  (234) 
1

>  <pchembl>  (234) 
5.18

>  <InChI_steorem>  (234) 
InChI=1S/C27H27F2N5O3/c1-4-23(35)34(3)9-10-37-25-24(31-14-32-26(25)30)20-12-18(28)13-22(15(20)2)33-27(36)19-8-7-17(11-21(19)29)16-5-6-16/h4,7-8,11-14,16H,1,5-6,9-10H2,2-3H3,(H,33,36)(H2,30,31,32)

>  <source>  (234) 
ChEMBL28

>  <source_id>  (234) 
28

>  <optional_reference>  (234) 
10.1021/acs.jmedchem.9b01916

>  <optional_origin>  (234) 
None

>  <target>  (234) 
BSEP

$$$$

     RDKit          2D

 27 30  0  0  0  0  0  0  0  0999 V2000
   14.9757  -13.6371    0.0000 C   0  0  0  0  0  0  0  0  0  0  0  0
   15.6869  -13.2233    0.0000 N   0  0  0  0  0  0  0  0  0  0  0  0
   16.3977  -13.6405    0.0000 C   0  0  0  0  0  0  0  0  0  0  0  0
   17.1027  -13.2301    0.0000 C   0  0  0  0  0  0  0  0  0  0  0  0
   17.1056  -12.4085    0.0000 C   0  0  0  0  0  0  0  0  0  0  0  0
   16.3974  -11.9988    0.0000 C   0  0  0  0  0  0  0  0  0  0  0  0
   15.6821  -12.4067    0.0000 C   0  0  0  0  0  0  0  0  0  0  0  0
   16.3989  -11.1775    0.0000 C   0  0  0  0  0  0  0  0  0  0  0  0
   17.1074  -10.7661    0.0000 O   0  0  0  0  0  0  0  0  0  0  0  0
   15.6878  -10.7635    0.0000 N   0  0  0  0  0  0  0  0  0  0  0  0
   15.6893   -9.9421    0.0000 C   0  0  0  0  0  0  0  0  0  0  0  0
   17.8136  -13.6444    0.0000 C   0  0  0  0  0  0  0  0  0  0  0  0
   17.8118  -14.4657    0.0000 O   0  0  0  0  0  0  0  0  0  0  0  0
   18.5263  -13.2333    0.0000 N   0  0  0  0  0  0  0  0  0  0  0  0
   19.2372  -13.6475    0.0000 C   0  0  0  0  0  0  0  0  0  0  0  0
   14.2632  -13.2255    0.0000 C   0  0  0  0  0  0  0  0  0  0  0  0
   14.2642  -12.4049    0.0000 C   0  0  0  0  0  0  0  0  0  0  0  0
   13.5525  -11.9975    0.0000 C   0  0  0  0  0  0  0  0  0  0  0  0
   19.6511  -14.3585    0.0000 C   0  0  0  0  0  0  0  0  0  0  0  0
   20.0612  -13.6475    0.0000 C   0  0  0  0  0  0  0  0  0  0  0  0
   14.9697  -11.9991    0.0000 O   0  0  0  0  0  0  0  0  0  0  0  0
   12.8395  -12.4034    0.0000 C   0  0  0  0  0  0  0  0  0  0  0  0
   13.5565  -13.6406    0.0000 C   0  0  0  0  0  0  0  0  0  0  0  0
   12.8442  -13.2339    0.0000 C   0  0  0  0  0  0  0  0  0  0  0  0
   12.2382  -13.7871    0.0000 N   0  0  0  0  0  0  0  0  0  0  0  0
   12.5786  -14.5333    0.0000 C   0  0  0  0  0  0  0  0  0  0  0  0
   13.3923  -14.4427    0.0000 C   0  0  0  0  0  0  0  0  0  0  0  0
  1  2  1  0
  2  3  1  0
  2  7  1  0
  3  4  2  0
  4  5  1  0
  5  6  2  0
  6  7  1  0
  6  8  1  0
  8  9  2  0
  8 10  1  0
 10 11  1  0
  4 12  1  0
 12 13  2  0
 12 14  1  0
 14 15  1  0
  1 16  1  0
 16 17  2  0
 17 18  1  0
 18 22  2  0
 23 16  1  0
 19 15  1  0
 20 19  1  0
 15 20  1  0
  7 21  2  0
 24 22  1  0
 23 24  2  0
 24 25  1  0
 25 26  1  0
 26 27  2  0
 27 23  1  0
M  END
>  <Classification>  (235) 
0

>  <pchembl>  (235) 
4.3

>  <InChI_steorem>  (235) 
InChI=1S/C20H20N4O3/c1-21-19(26)16-9-13(18(25)23-14-5-6-14)11-24(20(16)27)10-12-3-2-4-17-15(12)7-8-22-17/h2-4,7-9,11,14,22H,5-6,10H2,1H3,(H,21,26)(H,23,25)

>  <source>  (235) 
ChEMBL29

>  <source_id>  (235) 
29

>  <optional_reference>  (235) 
10.1021/acs.jmedchem.0c00796

>  <optional_origin>  (235) 
None

>  <target>  (235) 
BSEP

$$$$

     RDKit          2D

 37 41  0  0  0  0  0  0  0  0999 V2000
   18.7294   -5.0157    0.0000 C   0  0  0  0  0  0  0  0  0  0  0  0
   19.4372   -4.6041    0.0000 C   0  0  0  0  0  0  0  0  0  0  0  0
   20.1490   -5.0157    0.0000 C   0  0  0  0  0  0  0  0  0  0  0  0
   20.1490   -5.8348    0.0000 C   0  0  0  0  0  0  0  0  0  0  0  0
   19.4372   -6.2423    0.0000 C   0  0  0  0  0  0  0  0  0  0  0  0
   18.7294   -5.8348    0.0000 C   0  0  0  0  0  0  0  0  0  0  0  0
   17.9511   -6.0848    0.0000 C   0  0  0  0  0  0  0  0  0  0  0  0
   17.4699   -5.4231    0.0000 N   0  0  0  0  0  0  0  0  0  0  0  0
   17.9512   -4.7615    0.0000 N   0  0  0  0  0  0  0  0  0  0  0  0
   17.7393   -3.9702    0.0000 C   0  0  0  0  0  0  0  0  0  0  0  0
   16.9480   -3.7583    0.0000 C   0  0  0  0  0  0  0  0  0  0  0  0
   18.3187   -3.3909    0.0000 C   0  0  0  0  0  0  0  0  0  0  0  0
   20.8564   -5.4234    0.0000 C   0  0  0  0  0  0  0  0  0  0  0  0
   21.5639   -5.8348    0.0000 C   0  0  0  0  0  0  0  0  0  0  0  0
   21.5639   -6.6494    0.0000 N   0  0  0  0  0  0  0  0  0  0  0  0
   20.8565   -7.0608    0.0000 C   0  0  0  0  0  0  0  0  0  0  0  0
   20.1490   -6.6494    0.0000 C   0  0  0  0  0  0  0  0  0  0  0  0
   22.2754   -7.0608    0.0000 C   0  0  0  0  0  0  0  0  0  0  0  0
   22.9829   -6.6494    0.0000 C   0  0  0  0  0  0  0  0  0  0  0  0
   22.9832   -5.8347    0.0000 C   0  0  0  0  0  0  0  0  0  0  0  0
   23.6881   -5.4260    0.0000 C   0  0  0  0  0  0  0  0  0  0  0  0
   24.4000   -5.8335    0.0000 N   0  0  0  0  0  0  0  0  0  0  0  0
   24.3981   -6.6505    0.0000 C   0  0  0  0  0  0  0  0  0  0  0  0
   23.6947   -7.0633    0.0000 C   0  0  0  0  0  0  0  0  0  0  0  0
   25.1097   -7.0578    0.0000 C   0  0  0  0  0  0  0  0  0  0  0  0
   25.8174   -6.6508    0.0000 C   0  0  0  0  0  0  0  0  0  0  0  0
   26.5253   -7.0573    0.0000 C   0  0  0  0  0  0  0  0  0  0  0  0
   26.5253   -7.8763    0.0000 C   0  0  0  0  0  0  0  0  0  0  0  0
   25.8199   -8.2868    0.0000 C   0  0  0  0  0  0  0  0  0  0  0  0
   25.1097   -7.8816    0.0000 C   0  0  0  0  0  0  0  0  0  0  0  0
   27.2328   -8.2836    0.0000 C   0  0  0  0  0  0  0  0  0  0  0  0
   27.9402   -7.8763    0.0000 O   0  0  0  0  0  0  0  0  0  0  0  0
   27.2328   -9.1024    0.0000 O   0  0  0  0  0  0  0  0  0  0  0  0
   23.6881   -4.6073    0.0000 O   0  0  0  0  0  0  0  0  0  0  0  0
   22.9807   -4.2000    0.0000 C   0  0  0  0  0  0  0  0  0  0  0  0
   22.2754   -7.8796    0.0000 O   0  0  0  0  0  0  0  0  0  0  0  0
   19.4372   -3.7853    0.0000 O   0  0  0  0  0  0  0  0  0  0  0  0
  1  2  1  0
  3  2  1  0
  4  3  1  0
  5  4  1  0
  6  5  1  0
  1  6  2  0
  6  7  1  0
  7  8  2  0
  8  9  1  0
  1  9  1  0
  9 10  1  0
 10 11  1  0
 10 12  1  0
  4 13  1  0
 14 13  1  0
 15 14  1  0
 16 15  1  0
 17 16  1  0
  4 17  1  0
 15 18  1  0
 18 19  1  0
 20 19  2  0
 21 20  1  0
 22 21  2  0
 23 22  1  0
 24 23  2  0
 19 24  1  0
 25 23  1  0
 26 25  2  0
 27 26  1  0
 28 27  2  0
 29 28  1  0
 30 29  2  0
 25 30  1  0
 28 31  1  0
 31 32  2  0
 31 33  1  0
 21 34  1  0
 34 35  1  0
 18 36  2  0
  2 37  2  0
M  END
>  <Classification>  (236) 
0

>  <pchembl>  (236) 
4.03

>  <InChI_steorem>  (236) 
InChI=1S/C28H30N4O5/c1-17(2)32-25-21(16-29-32)14-28(15-23(25)33)8-10-31(11-9-28)26(34)20-12-22(30-24(13-20)37-3)18-4-6-19(7-5-18)27(35)36/h4-7,12-13,16-17H,8-11,14-15H2,1-3H3,(H,35,36)

>  <source>  (236) 
ChEMBL30

>  <source_id>  (236) 
30

>  <optional_reference>  (236) 
10.1021/acs.jmedchem.0c00640

>  <optional_origin>  (236) 
None

>  <target>  (236) 
BSEP

$$$$

     RDKit          2D

 33 36  0  0  0  0  0  0  0  0999 V2000
   39.3939  -15.2455    0.0000 N   0  0  0  0  0  0  0  0  0  0  0  0
   40.1114  -15.6581    0.0000 C   0  0  0  0  0  0  0  0  0  0  0  0
   40.8275  -14.4107    0.0000 C   0  0  0  0  0  0  0  0  0  0  0  0
   39.4465  -16.9720    0.0000 N   0  0  0  0  0  0  0  0  0  0  0  0
   40.1162  -16.4868    0.0000 C   0  0  0  0  0  0  0  0  0  0  0  0
   39.7037  -17.7642    0.0000 N   0  0  0  0  0  0  0  0  0  0  0  0
   40.1095  -13.9977    0.0000 C   0  0  0  0  0  0  0  0  0  0  0  0
   40.8305  -15.2450    0.0000 C   0  0  0  0  0  0  0  0  0  0  0  0
   40.5323  -17.7645    0.0000 N   0  0  0  0  0  0  0  0  0  0  0  0
   40.7857  -16.9723    0.0000 C   0  0  0  0  0  0  0  0  0  0  0  0
   39.3952  -14.4143    0.0000 C   0  0  0  0  0  0  0  0  0  0  0  0
   40.1071  -13.1728    0.0000 O   0  0  0  0  0  0  0  0  0  0  0  0
   40.8204  -12.7582    0.0000 C   0  0  0  0  0  0  0  0  0  0  0  0
   40.8179  -11.9332    0.0000 C   0  0  0  0  0  0  0  0  0  0  0  0
   41.5360  -13.1685    0.0000 C   0  0  0  0  0  0  0  0  0  0  0  0
   41.5312  -11.5186    0.0000 C   0  0  0  0  0  0  0  0  0  0  0  0
   42.2493  -12.7539    0.0000 C   0  0  0  0  0  0  0  0  0  0  0  0
   42.2468  -11.9289    0.0000 C   0  0  0  0  0  0  0  0  0  0  0  0
   42.9649  -13.1643    0.0000 C   0  0  0  0  0  0  0  0  0  0  0  0
   42.9675  -13.9892    0.0000 O   0  0  0  0  0  0  0  0  0  0  0  0
   43.6782  -12.7497    0.0000 O   0  0  0  0  0  0  0  0  0  0  0  0
   41.0187  -18.4309    0.0000 C   0  0  0  0  0  0  0  0  0  0  0  0
   41.5696  -16.7153    0.0000 C   0  0  0  0  0  0  0  0  0  0  0  0
   42.1843  -17.2656    0.0000 O   0  0  0  0  0  0  0  0  0  0  0  0
   42.9682  -17.0085    0.0000 C   0  0  0  0  0  0  0  0  0  0  0  0
   43.1375  -16.2011    0.0000 O   0  0  0  0  0  0  0  0  0  0  0  0
   43.5828  -17.5589    0.0000 N   0  0  0  0  0  0  0  0  0  0  0  0
   43.4134  -18.3664    0.0000 C   0  0  0  0  0  0  0  0  0  0  0  0
   44.3667  -17.3018    0.0000 C   0  0  0  0  0  0  0  0  0  0  0  0
   45.0361  -17.7827    0.0000 C   0  0  0  0  0  0  0  0  0  0  0  0
   45.7022  -17.2959    0.0000 C   0  0  0  0  0  0  0  0  0  0  0  0
   45.4452  -16.5119    0.0000 C   0  0  0  0  0  0  0  0  0  0  0  0
   44.6202  -16.5143    0.0000 C   0  0  0  0  0  0  0  0  0  0  0  0
  1  2  2  0
  4  6  2  0
  2  5  1  0
  3  7  1  0
  8  3  2  0
 10  5  2  0
  2  8  1  0
 11  1  1  0
  9 10  1  0
  6  9  1  0
  7 11  2  0
  5  4  1  0
  7 12  1  0
 13 12  1  0
 13 14  1  0
 13 15  1  0
 14 16  1  0
 15 17  1  0
 16 18  1  0
 17 18  1  0
 17 19  1  0
 19 20  2  0
 19 21  1  0
  9 22  1  0
 10 23  1  0
 23 24  1  0
 24 25  1  0
 25 26  2  0
 25 27  1  0
 27 28  1  0
 27 29  1  0
 29 30  1  0
 30 31  1  0
 31 32  1  0
 32 33  1  0
 33 29  1  0
M  END
>  <Classification>  (237) 
0

>  <pchembl>  (237) 
4.33

>  <InChI_steorem>  (237) 
InChI=1S/C23H31N5O5/c1-27(16-7-3-4-8-16)23(31)32-14-20-21(25-26-28(20)2)19-11-10-18(13-24-19)33-17-9-5-6-15(12-17)22(29)30/h10-11,13,15-17H,3-9,12,14H2,1-2H3,(H,29,30)

>  <source>  (237) 
ChEMBL32

>  <source_id>  (237) 
32

>  <optional_reference>  (237) 
10.1021/acs.jmedchem.1c01256

>  <optional_origin>  (237) 
None

>  <target>  (237) 
BSEP

$$$$

     RDKit          2D

 34 37  0  0  0  0  0  0  0  0999 V2000
   12.3235   -4.9333    0.0000 C   0  0  0  0  0  0  0  0  0  0  0  0
   12.3224   -5.7606    0.0000 N   0  0  0  0  0  0  0  0  0  0  0  0
   13.0372   -6.1735    0.0000 C   0  0  0  0  0  0  0  0  0  0  0  0
   13.7537   -5.7602    0.0000 C   0  0  0  0  0  0  0  0  0  0  0  0
   13.7509   -4.9297    0.0000 C   0  0  0  0  0  0  0  0  0  0  0  0
   13.0354   -4.5205    0.0000 C   0  0  0  0  0  0  0  0  0  0  0  0
   13.0420   -6.9985    0.0000 C   0  0  0  0  0  0  0  0  0  0  0  0
   12.3745   -7.4833    0.0000 N   0  0  0  0  0  0  0  0  0  0  0  0
   12.6292   -8.2680    0.0000 N   0  0  0  0  0  0  0  0  0  0  0  0
   13.4544   -8.2682    0.0000 N   0  0  0  0  0  0  0  0  0  0  0  0
   13.7094   -7.4836    0.0000 C   0  0  0  0  0  0  0  0  0  0  0  0
   14.4940   -7.2288    0.0000 C   0  0  0  0  0  0  0  0  0  0  0  0
   15.1070   -7.7809    0.0000 O   0  0  0  0  0  0  0  0  0  0  0  0
   15.8917   -7.5261    0.0000 C   0  0  0  0  0  0  0  0  0  0  0  0
   16.0633   -6.7192    0.0000 O   0  0  0  0  0  0  0  0  0  0  0  0
   16.5046   -8.0783    0.0000 N   0  0  0  0  0  0  0  0  0  0  0  0
   16.3330   -8.8853    0.0000 C   0  0  0  0  0  0  0  0  0  0  0  0
   13.0330   -3.6956    0.0000 O   0  0  0  0  0  0  0  0  0  0  0  0
   13.7462   -3.2809    0.0000 C   0  0  0  0  0  0  0  0  0  0  0  0
   14.4638   -3.6952    0.0000 C   0  0  0  0  0  0  0  0  0  0  0  0
   15.1749   -3.2840    0.0000 C   0  0  0  0  0  0  0  0  0  0  0  0
   15.1768   -2.4587    0.0000 C   0  0  0  0  0  0  0  0  0  0  0  0
   14.4612   -2.0461    0.0000 C   0  0  0  0  0  0  0  0  0  0  0  0
   13.7439   -2.4589    0.0000 C   0  0  0  0  0  0  0  0  0  0  0  0
   15.8891   -3.6971    0.0000 C   0  0  0  0  0  0  0  0  0  0  0  0
   15.8885   -4.5221    0.0000 O   0  0  0  0  0  0  0  0  0  0  0  0
   16.6039   -3.2852    0.0000 O   0  0  0  0  0  0  0  0  0  0  0  0
   11.6090   -4.5210    0.0000 C   0  0  0  0  0  0  0  0  0  0  0  0
   13.9391   -8.9357    0.0000 C   0  0  0  0  0  0  0  0  0  0  0  0
   17.2894   -7.8236    0.0000 C   0  0  0  0  0  0  0  0  0  0  0  0
   17.9024   -8.3757    0.0000 C   0  0  0  0  0  0  0  0  0  0  0  0
   17.9427   -9.1989    0.0000 C   0  0  0  0  0  0  0  0  0  0  0  0
   18.7666   -9.1559    0.0000 C   0  0  0  0  0  0  0  0  0  0  0  0
   18.7236   -8.3320    0.0000 C   0  0  0  0  0  0  0  0  0  0  0  0
  1  2  2  0
  2  3  1  0
  3  4  2  0
  4  5  1  0
  5  6  2  0
  6  1  1  0
  7  8  1  0
  8  9  2  0
  9 10  1  0
 10 11  1  0
 11  7  2  0
  3  7  1  0
 11 12  1  0
 12 13  1  0
 13 14  1  0
 14 15  2  0
 14 16  1  0
 16 17  1  0
  6 18  1  0
 19 18  1  0
 19 20  1  0
 19 24  1  0
 20 21  1  0
 21 22  1  0
 22 23  1  0
 23 24  1  0
 21 25  1  0
 25 26  2  0
 25 27  1  0
  1 28  1  0
 10 29  1  0
 16 30  1  0
 30 31  1  0
 31 32  1  0
 32 33  1  0
 33 34  1  0
 34 31  1  0
M  END
>  <Classification>  (238) 
0

>  <pchembl>  (238) 
4.71

>  <InChI_steorem>  (238) 
InChI=1S/C24H33N5O5/c1-15-21(34-18-9-5-8-17(12-18)23(30)31)11-10-19(25-15)22-20(29(3)27-26-22)14-33-24(32)28(2)13-16-6-4-7-16/h10-11,16-18H,4-9,12-14H2,1-3H3,(H,30,31)

>  <source>  (238) 
ChEMBL32

>  <source_id>  (238) 
32

>  <optional_reference>  (238) 
10.1021/acs.jmedchem.1c01256

>  <optional_origin>  (238) 
None

>  <target>  (238) 
BSEP

$$$$

     RDKit          2D

 36 40  0  0  0  0  0  0  0  0999 V2000
   -3.0958   -5.3155    0.0000 C   0  0  0  0  0  0  0  0  0  0  0  0
   -2.5810   -6.3842    0.0000 C   0  0  0  0  0  0  0  0  0  0  0  0
   -1.4034   -6.4655    0.0000 C   0  0  0  0  0  0  0  0  0  0  0  0
   -0.7433   -5.4932    0.0000 C   0  0  0  0  0  0  0  0  0  0  0  0
   -1.2560   -4.4287    0.0000 C   0  0  0  0  0  0  0  0  0  0  0  0
   -2.4302   -4.3397    0.0000 C   0  0  0  0  0  0  0  0  0  0  0  0
   -2.9427   -3.2756    0.0000 C   0  0  0  0  0  0  0  0  0  0  0  0
   -4.0074   -3.7870    0.0000 C   0  0  0  0  0  0  0  0  0  0  0  0
   -3.9205   -2.6091    0.0000 C   0  0  0  0  0  0  0  0  0  0  0  0
   -2.2015   -2.4574    0.0000 C   0  0  0  0  0  0  0  0  0  0  0  0
   -2.4212   -1.2969    0.0000 O   0  0  0  0  0  0  0  0  0  0  0  0
   -1.0867   -2.8474    0.0000 O   0  0  0  0  0  0  0  0  0  0  0  0
   -0.8909   -7.5296    0.0000 C   0  0  0  0  0  0  0  0  0  0  0  0
    0.2870   -7.6181    0.0000 C   0  0  0  0  0  0  0  0  0  0  0  0
    0.7970   -8.6795    0.0000 C   0  0  0  0  0  0  0  0  0  0  0  0
    0.1315   -9.6557    0.0000 C   0  0  0  0  0  0  0  0  0  0  0  0
   -1.0406   -9.5702    0.0000 C   0  0  0  0  0  0  0  0  0  0  0  0
   -1.5590   -8.5097    0.0000 C   0  0  0  0  0  0  0  0  0  0  0  0
    0.6441  -10.7198    0.0000 C   0  0  0  0  0  0  0  0  0  0  0  0
    0.0847  -11.7594    0.0000 O   0  0  0  0  0  0  0  0  0  0  0  0
    0.9006  -12.6127    0.0000 N   0  0  0  0  0  0  0  0  0  0  0  0
    1.9642  -12.1004    0.0000 C   0  0  0  0  0  0  0  0  0  0  0  0
    1.8056  -10.9305    0.0000 C   0  0  0  0  0  0  0  0  0  0  0  0
    2.7008  -10.1600    0.0000 N   0  0  0  0  0  0  0  0  0  0  0  0
    3.8157  -10.5500    0.0000 C   0  0  0  0  0  0  0  0  0  0  0  0
    4.7108   -9.7795    0.0000 O   0  0  0  0  0  0  0  0  0  0  0  0
    5.8257  -10.1695    0.0000 C   0  0  0  0  0  0  0  0  0  0  0  0
    6.7209   -9.3990    0.0000 C   0  0  0  0  0  0  0  0  0  0  0  0
    6.5015   -8.2384    0.0000 C   0  0  0  0  0  0  0  0  0  0  0  0
    7.3947   -7.4711    0.0000 C   0  0  0  0  0  0  0  0  0  0  0  0
    8.5099   -7.8612    0.0000 C   0  0  0  0  0  0  0  0  0  0  0  0
    8.7307   -9.0155    0.0000 C   0  0  0  0  0  0  0  0  0  0  0  0
    7.8405   -9.7907    0.0000 C   0  0  0  0  0  0  0  0  0  0  0  0
    6.2000  -11.0750    0.0000 C   0  0  0  0  0  0  0  0  0  0  0  0
    4.0353  -11.7105    0.0000 O   0  0  0  0  0  0  0  0  0  0  0  0
    2.9871  -12.6909    0.0000 C   0  0  0  0  0  0  0  0  0  0  0  0
  1  2  2  0
  2  3  1  0
  3  4  2  0
  4  5  1  0
  5  6  2  0
  6  1  1  0
  6  7  1  0
  7  8  1  0
  9  8  1  0
  7  9  1  0
  7 10  1  0
 10 11  2  0
 10 12  1  0
  3 13  1  0
 14 13  2  0
 15 14  1  0
 16 15  2  0
 17 16  1  0
 18 17  2  0
 13 18  1  0
 16 19  1  0
 20 19  1  0
 20 21  1  0
 21 22  2  0
 22 23  1  0
 23 19  2  0
 23 24  1  0
 24 25  1  0
 25 26  1  0
 26 27  1  0
 27 28  1  0
 29 28  2  0
 30 29  1  0
 31 30  2  0
 32 31  1  0
 33 32  2  0
 28 33  1  0
 27 34  1  0
 25 35  2  0
 22 36  1  0
M  END
>  <Classification>  (239) 
1

>  <pchembl>  (239) 
5.32

>  <InChI_steorem>  (239) 
InChI=1S/C29H26N2O5/c1-18-25(30-28(34)35-19(2)20-6-4-3-5-7-20)26(36-31-18)23-10-8-21(9-11-23)22-12-14-24(15-13-22)29(16-17-29)27(32)33/h3-15,19H,16-17H2,1-2H3,(H,30,34)(H,32,33)

>  <source>  (239) 
ChEMBL32

>  <source_id>  (239) 
32

>  <optional_reference>  (239) 
10.1021/acs.jmedchem.1c01256

>  <optional_origin>  (239) 
None

>  <target>  (239) 
BSEP

$$$$

     RDKit          2D

 46 51  0  0  0  0  0  0  0  0999 V2000
   -1.8292   -0.4070    0.0000 C   0  0  0  0  0  0  0  0  0  0  0  0
   -1.8292    0.4179    0.0000 C   0  0  0  0  0  0  0  0  0  0  0  0
   -1.1208    0.8285    0.0000 C   0  0  0  0  0  0  0  0  0  0  0  0
   -0.4047    0.4179    0.0000 C   0  0  0  0  0  0  0  0  0  0  0  0
   -0.4047   -0.4030    0.0000 C   0  0  0  0  0  0  0  0  0  0  0  0
   -1.1132   -0.8175    0.0000 C   0  0  0  0  0  0  0  0  0  0  0  0
   -1.1208    1.6494    0.0000 N   0  0  0  0  0  0  0  0  0  0  0  0
   -1.8317    2.0600    0.0000 C   0  0  0  0  0  0  0  0  0  0  0  0
   -1.8317    2.8810    0.0000 O   0  0  0  0  0  0  0  0  0  0  0  0
   -2.5427    1.6494    0.0000 C   0  0  0  0  0  0  0  0  0  0  0  0
   -0.4096    2.0600    0.0000 C   0  0  0  0  0  0  0  0  0  0  0  0
    0.3014    1.6494    0.0000 C   0  0  0  0  0  0  0  0  0  0  0  0
    1.0126    2.0600    0.0000 C   0  0  0  0  0  0  0  0  0  0  0  0
    1.7238    1.6494    0.0000 C   0  0  0  0  0  0  0  0  0  0  0  0
    1.7238    0.8282    0.0000 C   0  0  0  0  0  0  0  0  0  0  0  0
    1.0126    0.4174    0.0000 C   0  0  0  0  0  0  0  0  0  0  0  0
    0.3014    0.8280    0.0000 C   0  0  0  0  0  0  0  0  0  0  0  0
    1.1413    0.7846    0.0000 C   0  0  0  0  0  0  0  0  0  0  0  0
    0.6034    1.0250    0.0000 C   0  0  0  0  0  0  0  0  0  0  0  0
    2.4349    0.4174    0.0000 C   0  0  0  0  0  0  0  0  0  0  0  0
    2.5207   -0.3987    0.0000 N   0  0  0  0  0  0  0  0  0  0  0  0
    3.3236   -0.5693    0.0000 O   0  0  0  0  0  0  0  0  0  0  0  0
    3.7340    0.1412    0.0000 C   0  0  0  0  0  0  0  0  0  0  0  0
    3.1847    0.7511    0.0000 N   0  0  0  0  0  0  0  0  0  0  0  0
    4.5552    0.1411    0.0000 C   0  0  0  0  0  0  0  0  0  0  0  0
   -2.9602    0.9260    0.0000 C   0  0  0  0  0  0  0  0  0  0  0  0
   -3.6715    1.3366    0.0000 C   0  0  0  0  0  0  0  0  0  0  0  0
   -3.2539    2.0599    0.0000 C   0  0  0  0  0  0  0  0  0  0  0  0
   -4.4647    1.1241    0.0000 C   0  0  0  0  0  0  0  0  0  0  0  0
    4.9659    0.8522    0.0000 C   0  0  0  0  0  0  0  0  0  0  0  0
    4.9658   -0.5699    0.0000 C   0  0  0  0  0  0  0  0  0  0  0  0
    5.3764    0.1411    0.0000 F   0  0  0  0  0  0  0  0  0  0  0  0
   -4.2522    1.9173    0.0000 O   0  0  0  0  0  0  0  0  0  0  0  0
   -5.0454    1.7048    0.0000 F   0  0  0  0  0  0  0  0  0  0  0  0
   -5.2859    1.1241    0.0000 F   0  0  0  0  0  0  0  0  0  0  0  0
   -5.3764   -1.6493    0.0000 C   0  0  0  0  0  0  0  0  0  0  0  0
   -4.6652   -2.8810    0.0000 C   0  0  0  0  0  0  0  0  0  0  0  0
   -4.6652   -2.0599    0.0000 C   0  0  0  0  0  0  0  0  0  0  0  0
   -2.5379   -0.8217    0.0000 C   0  0  0  0  0  0  0  0  0  0  0  0
   -2.5333   -1.6429    0.0000 C   0  0  0  0  0  0  0  0  0  0  0  0
   -3.2545   -0.4136    0.0000 C   0  0  0  0  0  0  0  0  0  0  0  0
   -3.9604   -0.8323    0.0000 C   0  0  0  0  0  0  0  0  0  0  0  0
   -3.2403   -2.0558    0.0000 C   0  0  0  0  0  0  0  0  0  0  0  0
   -3.9540   -1.6493    0.0000 C   0  0  0  0  0  0  0  0  0  0  0  0
   -5.3764   -2.4704    0.0000 O   0  0  0  0  0  0  0  0  0  0  0  0
   -4.6772    0.3309    0.0000 F   0  0  0  0  0  0  0  0  0  0  0  0
  1  2  2  0
  2  3  1  0
  3  4  2  0
  4  5  1  0
  5  6  2  0
  1  6  1  0
  3  7  1  0
  7  8  1  0
  8  9  2  0
 10  8  1  0
  7 11  1  0
 11 12  1  0
 12 13  1  0
 13 14  1  0
 14 15  1  0
 15 16  1  0
 16 17  1  0
 12 17  1  0
 15 18  1  0
 18 19  1  0
 12 19  1  0
 15 20  1  0
 21 20  2  0
 21 22  1  0
 22 23  1  0
 23 24  2  0
 24 20  1  0
 23 25  1  0
 26 10  1  0
 27 26  1  0
 27 28  1  0
 28 10  1  0
 27 29  1  0
 25 30  1  0
 25 31  1  0
 25 32  1  0
 27 33  1  0
 29 34  1  0
 29 35  1  0
 38 36  1  0
 38 37  1  0
 39  1  1  0
 39 40  2  0
 39 41  1  0
 41 42  2  0
 43 40  1  0
 38 44  1  0
 42 44  1  0
 44 43  2  0
 38 45  1  0
 29 46  1  0
M  END
>  <Classification>  (240) 
1

>  <pchembl>  (240) 
5.85

>  <InChI_steorem>  (240) 
InChI=1S/C35H41F4N3O4/c1-30(2,36)29-40-28(41-46-29)33-15-12-32(13-16-33,14-17-33)21-42(27(43)24-19-34(45,20-24)35(37,38)39)26-7-5-6-23(18-26)22-8-10-25(11-9-22)31(3,4)44/h5-11,18,24,44-45H,12-17,19-21H2,1-4H3

>  <source>  (240) 
ChEMBL33

>  <source_id>  (240) 
33

>  <optional_reference>  (240) 
10.1021/acs.jmedchem.2c00165

>  <optional_origin>  (240) 
None

>  <target>  (240) 
BSEP

$$$$
