
     RDKit          2D

 35 38  0  0  0  0  0  0  0  0999 V2000
    4.7417   -2.4125    0.0000 N   0  0  0  0  0  0  0  0  0  0  0  0
    5.0917   -1.9250    0.0000 C   0  0  0  0  0  0  0  0  0  0  0  0
    4.7375   -1.4375    0.0000 N   0  0  0  0  0  0  0  0  0  0  0  0
    2.6042   -3.1292    0.0000 N   0  0  0  0  0  0  0  0  0  0  0  0
    4.1667   -2.2250    0.0000 C   0  0  0  0  0  0  0  0  0  0  0  0
    2.6042   -2.5292    0.0000 C   0  0  0  0  0  0  0  0  0  0  0  0
    4.1667   -1.6250    0.0000 C   0  0  0  0  0  0  0  0  0  0  0  0
    3.1292   -2.2292    0.0000 C   0  0  0  0  0  0  0  0  0  0  0  0
    2.0875   -3.4292    0.0000 C   0  0  0  0  0  0  0  0  0  0  0  0
    3.6417   -2.5292    0.0000 C   0  0  0  0  0  0  0  0  0  0  0  0
    3.1250   -3.4292    0.0000 C   0  0  0  0  0  0  0  0  0  0  0  0
    8.3917   -2.3750    0.0000 C   0  0  0  0  0  0  0  0  0  0  0  0
    3.1250   -4.0292    0.0000 C   0  0  0  0  0  0  0  0  0  0  0  0
    3.6417   -1.3250    0.0000 C   0  0  0  0  0  0  0  0  0  0  0  0
    3.6417   -4.3292    0.0000 C   0  0  0  0  0  0  0  0  0  0  0  0
    5.6917   -1.9167    0.0000 C   0  0  0  0  0  0  0  0  0  0  0  0
    2.0875   -4.0250    0.0000 N   0  0  0  0  0  0  0  0  0  0  0  0
    7.7917   -2.3917    0.0000 C   0  0  0  0  0  0  0  0  0  0  0  0
    8.7042   -2.8792    0.0000 N   0  0  0  0  0  0  0  0  0  0  0  0
    2.0875   -2.2292    0.0000 O   0  0  0  0  0  0  0  0  0  0  0  0
    3.1292   -1.6250    0.0000 C   0  0  0  0  0  0  0  0  0  0  0  0
    5.9917   -2.4417    0.0000 N   0  0  0  0  0  0  0  0  0  0  0  0
    3.6167   -4.9292    0.0000 O   0  0  0  0  0  0  0  0  0  0  0  0
    7.5042   -2.9292    0.0000 C   0  0  0  0  0  0  0  0  0  0  0  0
    7.4667   -1.8875    0.0000 C   0  0  0  0  0  0  0  0  0  0  0  0
    8.6667   -1.8417    0.0000 N   0  0  0  0  0  0  0  0  0  0  0  0
    6.5917   -2.4417    0.0000 C   0  0  0  0  0  0  0  0  0  0  0  0
    4.9167   -0.8667    0.0000 C   0  0  0  0  0  0  0  0  0  0  0  0
    4.1667   -4.0417    0.0000 O   0  0  0  0  0  0  0  0  0  0  0  0
    6.9125   -2.9500    0.0000 C   0  0  0  0  0  0  0  0  0  0  0  0
    6.8667   -1.9125    0.0000 C   0  0  0  0  0  0  0  0  0  0  0  0
    1.5667   -3.1250    0.0000 C   0  0  0  0  0  0  0  0  0  0  0  0
    1.5667   -4.3167    0.0000 C   0  0  0  0  0  0  0  0  0  0  0  0
    1.0500   -3.4167    0.0000 C   0  0  0  0  0  0  0  0  0  0  0  0
    1.0500   -4.0250    0.0000 C   0  0  0  0  0  0  0  0  0  0  0  0
  2  1  2  0
  3  2  1  0
  4  6  1  0
  5  1  1  0
  6  8  1  0
  7  5  2  0
  8 10  2  0
  9  4  1  0
 10  5  1  0
 11  4  1  0
 12 18  1  0
 13 11  1  0
 14  7  1  0
 15 13  1  0
 16  2  1  0
 17  9  2  0
 18 25  2  0
 19 12  2  0
 20  6  2  0
 21  8  1  0
 22 16  1  0
 23 15  2  0
 24 30  2  0
 25 31  1  0
 26 12  1  0
 27 22  1  0
 28  3  1  0
 29 15  1  0
 30 27  1  0
 31 27  2  0
 32  9  1  0
 33 17  1  0
 34 32  2  0
 35 34  1  0
  7  3  1  0
 21 14  2  0
 18 24  1  0
 35 33  2  0
M  END
>  <Classification>  (1) 
1

>  <pchembl>  (1) 
5.09

>  <InChI_steorem>  (1) 
InChI=1S/C25H25N7O3/c1-31-20-10-7-17(25(35)32(13-11-23(33)34)21-4-2-3-12-28-21)14-19(20)30-22(31)15-29-18-8-5-16(6-9-18)24(26)27/h2-10,12,14,29H,11,13,15H2,1H3,(H3,26,27)(H,33,34)

>  <source>  (1) 
ChEMBL25

>  <source_id>  (1) 
25

>  <optional_reference>  (1) 
10.1021/jm301302s

>  <optional_origin>  (1) 
None

>  <target>  (1) 
MATE1

$$$$

     RDKit          2D

 39 44  0  0  0  0  0  0  0  0999 V2000
   -1.3201  -14.2961    0.0000 C   0  0  0  0  0  0  0  0  0  0  0  0
    1.2972  -12.9760    0.0000 N   0  0  0  0  0  0  0  0  0  0  0  0
    1.9480  -14.1311    0.0000 N   0  0  0  0  0  0  0  0  0  0  0  0
   -1.8151  -13.6223    0.0000 N   0  0  0  0  0  0  0  0  0  0  0  0
   -1.8151  -14.9698    0.0000 N   0  0  0  0  0  0  0  0  0  0  0  0
    0.7425  -13.5856    0.0000 C   0  0  0  0  0  0  0  0  0  0  0  0
    2.0397  -13.3153    0.0000 C   0  0  0  0  0  0  0  0  0  0  0  0
    1.1459  -14.3007    0.0000 C   0  0  0  0  0  0  0  0  0  0  0  0
   -0.4950  -14.2961    0.0000 C   0  0  0  0  0  0  0  0  0  0  0  0
   -2.5989  -14.7132    0.0000 C   0  0  0  0  0  0  0  0  0  0  0  0
   -2.5989  -13.8835    0.0000 C   0  0  0  0  0  0  0  0  0  0  0  0
   -0.0871  -13.5810    0.0000 C   0  0  0  0  0  0  0  0  0  0  0  0
    2.1680   -8.7133    0.0000 C   0  0  0  0  0  0  0  0  0  0  0  0
    0.7379  -15.0157    0.0000 C   0  0  0  0  0  0  0  0  0  0  0  0
    2.5760   -9.4238    0.0000 C   0  0  0  0  0  0  0  0  0  0  0  0
    1.3429   -8.7042    0.0000 C   0  0  0  0  0  0  0  0  0  0  0  0
   -0.0871  -15.0111    0.0000 C   0  0  0  0  0  0  0  0  0  0  0  0
    0.8892  -12.2610    0.0000 C   0  0  0  0  0  0  0  0  0  0  0  0
    2.1589  -10.1342    0.0000 C   0  0  0  0  0  0  0  0  0  0  0  0
    0.9304   -9.4146    0.0000 O   0  0  0  0  0  0  0  0  0  0  0  0
    2.5622  -10.8539    0.0000 C   0  0  0  0  0  0  0  0  0  0  0  0
    1.3292  -10.1296    0.0000 C   0  0  0  0  0  0  0  0  0  0  0  0
    1.3109  -11.5505    0.0000 C   0  0  0  0  0  0  0  0  0  0  0  0
   -1.5538  -15.7536    0.0000 C   0  0  0  0  0  0  0  0  0  0  0  0
    0.9350   -7.9845    0.0000 O   0  0  0  0  0  0  0  0  0  0  0  0
    2.7593  -12.9072    0.0000 C   0  0  0  0  0  0  0  0  0  0  0  0
    0.9122  -10.8355    0.0000 C   0  0  0  0  0  0  0  0  0  0  0  0
    2.1405  -11.5597    0.0000 C   0  0  0  0  0  0  0  0  0  0  0  0
   -3.3185  -15.1257    0.0000 C   0  0  0  0  0  0  0  0  0  0  0  0
   -3.3185  -13.4710    0.0000 C   0  0  0  0  0  0  0  0  0  0  0  0
    2.5851   -7.9983    0.0000 C   0  0  0  0  0  0  0  0  0  0  0  0
    3.4055   -9.4376    0.0000 C   0  0  0  0  0  0  0  0  0  0  0  0
    1.1504  -15.7261    0.0000 C   0  0  0  0  0  0  0  0  0  0  0  0
    3.4698  -13.3290    0.0000 C   0  0  0  0  0  0  0  0  0  0  0  0
   -4.0289  -14.7132    0.0000 C   0  0  0  0  0  0  0  0  0  0  0  0
    3.4148   -8.0075    0.0000 C   0  0  0  0  0  0  0  0  0  0  0  0
    3.8181   -8.7270    0.0000 C   0  0  0  0  0  0  0  0  0  0  0  0
   -4.0289  -13.8835    0.0000 C   0  0  0  0  0  0  0  0  0  0  0  0
    4.1848  -12.9210    0.0000 C   0  0  0  0  0  0  0  0  0  0  0  0
  2  6  1  0
  3  8  1  0
  4  1  2  0
  5  1  1  0
  6 12  1  0
  7  2  1  0
  8  6  2  0
  9  1  1  0
 10  5  1  0
 11  4  1  0
 12  9  2  0
 13 15  2  0
 14 17  2  0
 15 19  1  0
 16 13  1  0
 17  9  1  0
 18  2  1  0
 19 22  2  0
 20 16  2  0
 21 28  2  0
 22 27  1  0
 23 18  1  0
 24  5  1  0
 25 16  1  0
 26  7  1  0
 27 23  2  0
 28 23  1  0
 29 10  2  0
 30 11  2  0
 31 13  1  0
 32 15  1  0
 33 14  1  0
 34 26  1  0
 35 29  1  0
 36 31  2  0
 37 32  2  0
 38 30  1  0
 39 34  1  0
 10 11  1  0
  8 14  1  0
 35 38  2  0
  7  3  2  0
 19 21  1  0
 36 37  1  0
M  END
>  <Classification>  (2) 
0

>  <pchembl>  (2) 
4.75

>  <InChI_steorem>  (2) 
InChI=1S/C33H30N4O2/c1-4-9-30-35-31-21(2)18-24(32-34-27-12-7-8-13-28(27)36(32)3)19-29(31)37(30)20-22-14-16-23(17-15-22)25-10-5-6-11-26(25)33(38)39/h5-8,10-19H,4,9,20H2,1-3H3,(H,38,39)

>  <source>  (2) 
ChEMBL25

>  <source_id>  (2) 
25

>  <optional_reference>  (2) 
10.1021/jm301302s

>  <optional_origin>  (2) 
None

>  <target>  (2) 
MATE1

$$$$

     RDKit          2D

 36 39  0  0  0  0  0  0  0  0999 V2000
    2.4208  -20.9750    0.0000 C   0  0  0  0  0  0  0  0  0  0  0  0
    1.7049  -20.5625    0.0000 C   0  0  0  0  0  0  0  0  0  0  0  0
    1.7049  -19.7375    0.0000 N   0  0  0  0  0  0  0  0  0  0  0  0
    2.4208  -19.3250    0.0000 C   0  0  0  0  0  0  0  0  0  0  0  0
    3.1325  -19.7375    0.0000 C   0  0  0  0  0  0  0  0  0  0  0  0
    3.8483  -19.3250    0.0000 O   0  0  0  0  0  0  0  0  0  0  0  0
   -1.8703  -18.5000    0.0000 C   0  0  0  0  0  0  0  0  0  0  0  0
   -1.8703  -19.3250    0.0000 N   0  0  0  0  0  0  0  0  0  0  0  0
   -1.1544  -19.7375    0.0000 C   0  0  0  0  0  0  0  0  0  0  0  0
   -0.4385  -19.3250    0.0000 C   0  0  0  0  0  0  0  0  0  0  0  0
   -0.4385  -18.5000    0.0000 C   0  0  0  0  0  0  0  0  0  0  0  0
   -1.1544  -18.0875    0.0000 N   0  0  0  0  0  0  0  0  0  0  0  0
    0.9890  -19.3250    0.0000 C   0  0  0  0  0  0  0  0  0  0  0  0
    0.9890  -18.5000    0.0000 N   0  0  0  0  0  0  0  0  0  0  0  0
    0.2773  -18.0875    0.0000 C   0  0  0  0  0  0  0  0  0  0  0  0
    0.2773  -19.7375    0.0000 N   0  0  0  0  0  0  0  0  0  0  0  0
    0.2773  -17.2625    0.0000 N   0  0  0  0  0  0  0  0  0  0  0  0
   -0.4385  -16.8500    0.0000 C   0  0  0  0  0  0  0  0  0  0  0  0
   -0.4385  -16.0250    0.0000 C   0  0  0  0  0  0  0  0  0  0  0  0
    0.2773  -15.6125    0.0000 C   0  0  0  0  0  0  0  0  0  0  0  0
    0.9890  -16.0250    0.0000 C   0  0  0  0  0  0  0  0  0  0  0  0
    0.9890  -16.8500    0.0000 C   0  0  0  0  0  0  0  0  0  0  0  0
   -1.1544  -20.5625    0.0000 N   0  0  0  0  0  0  0  0  0  0  0  0
   -0.4385  -20.9750    0.0000 C   0  0  0  0  0  0  0  0  0  0  0  0
   -0.4385  -21.8000    0.0000 C   0  0  0  0  0  0  0  0  0  0  0  0
   -1.1544  -22.2125    0.0000 C   0  0  0  0  0  0  0  0  0  0  0  0
   -1.8703  -21.8000    0.0000 C   0  0  0  0  0  0  0  0  0  0  0  0
   -1.8703  -20.9750    0.0000 C   0  0  0  0  0  0  0  0  0  0  0  0
   -2.5820  -18.0875    0.0000 N   0  0  0  0  0  0  0  0  0  0  0  0
   -3.2978  -18.5000    0.0000 C   0  0  0  0  0  0  0  0  0  0  0  0
   -4.0095  -18.0875    0.0000 C   0  0  0  0  0  0  0  0  0  0  0  0
   -4.7254  -18.5000    0.0000 O   0  0  0  0  0  0  0  0  0  0  0  0
   -2.5820  -17.2625    0.0000 C   0  0  0  0  0  0  0  0  0  0  0  0
   -3.2978  -16.8500    0.0000 C   0  0  0  0  0  0  0  0  0  0  0  0
   -4.0095  -17.2625    0.0000 O   0  0  0  0  0  0  0  0  0  0  0  0
    3.1325  -20.5625    0.0000 O   0  0  0  0  0  0  0  0  0  0  0  0
  1  2  1  0
  4  5  1  0
  5  6  1  0
  3  4  1  0
  7  8  2  0
  8  9  1  0
  9 10  2  0
 10 11  1  0
 11 12  2  0
  7 12  1  0
 13 14  1  0
 14 15  2  0
 13 16  2  0
 10 16  1  0
 11 15  1  0
 17 18  1  0
 18 19  1  0
 19 20  1  0
 20 21  1  0
 21 22  1  0
 17 22  1  0
 15 17  1  0
 23 24  1  0
 24 25  1  0
 25 26  1  0
 26 27  1  0
 27 28  1  0
 23 28  1  0
  9 23  1  0
 30 31  1  0
 31 32  1  0
 29 30  1  0
 33 34  1  0
 34 35  1  0
 29 33  1  0
  7 29  1  0
  3 13  1  0
  2  3  1  0
  1 36  1  0
M  END
>  <Classification>  (3) 
0

>  <pchembl>  (3) 
4.58

>  <InChI_steorem>  (3) 
InChI=1S/C24H40N8O4/c33-15-11-31(12-16-34)23-26-20-19(21(27-23)29-7-3-1-4-8-29)25-24(32(13-17-35)14-18-36)28-22(20)30-9-5-2-6-10-30/h33-36H,1-18H2

>  <source>  (3) 
ChEMBL25

>  <source_id>  (3) 
25

>  <optional_reference>  (3) 
10.1021/jm2001629

>  <optional_origin>  (3) 
None

>  <target>  (3) 
MATE1

$$$$

     RDKit          2D

 25 26  0  0  0  0  0  0  0  0999 V2000
    2.7771   -1.0106    0.0000 C   0  0  0  0  0  0  0  0  0  0  0  0
    1.7946   -2.1834    0.0000 C   0  0  0  0  0  0  0  0  0  0  0  0
    3.2929   -2.4200    0.0000 C   0  0  0  0  0  0  0  0  0  0  0  0
    5.2871   -4.0883    0.0000 N   0  0  0  0  0  0  0  0  0  0  0  0
    4.7712   -2.6789    0.0000 C   0  0  0  0  0  0  0  0  0  0  0  0
    1.2990   -0.7500    0.0000 C   0  0  0  0  0  0  0  0  0  0  0  0
    3.7424    0.1386    0.0000 C   0  0  0  0  0  0  0  0  0  0  0  0
    1.2990    0.7500    0.0000 N   0  0  0  0  0  0  0  0  0  0  0  0
    2.2052   -3.3109    0.0000 O   0  0  0  0  0  0  0  0  0  0  0  0
    0.6127   -1.9756    0.0000 N   0  0  0  0  0  0  0  0  0  0  0  0
    6.7654   -4.3473    0.0000 C   0  0  0  0  0  0  0  0  0  0  0  0
    4.3216   -5.2375    0.0000 C   0  0  0  0  0  0  0  0  0  0  0  0
    0.0000    1.5000    0.0000 C   0  0  0  0  0  0  0  0  0  0  0  0
    0.0000   -1.5000    0.0000 C   0  0  0  0  0  0  0  0  0  0  0  0
    5.2195   -0.1226    0.0000 C   0  0  0  0  0  0  0  0  0  0  0  0
    3.2302    1.5484    0.0000 C   0  0  0  0  0  0  0  0  0  0  0  0
    7.1778   -5.4742    0.0000 C   0  0  0  0  0  0  0  0  0  0  0  0
    3.1399   -5.0291    0.0000 C   0  0  0  0  0  0  0  0  0  0  0  0
    4.7318   -6.3652    0.0000 C   0  0  0  0  0  0  0  0  0  0  0  0
    7.5354   -3.4269    0.0000 C   0  0  0  0  0  0  0  0  0  0  0  0
   -1.2990    0.7500    0.0000 C   0  0  0  0  0  0  0  0  0  0  0  0
    6.1843    1.0259    0.0000 C   0  0  0  0  0  0  0  0  0  0  0  0
    4.1949    2.6970    0.0000 C   0  0  0  0  0  0  0  0  0  0  0  0
   -1.2990   -0.7500    0.0000 C   0  0  0  0  0  0  0  0  0  0  0  0
    5.6720    2.4357    0.0000 C   0  0  0  0  0  0  0  0  0  0  0  0
  2  1  1  0
  3  1  1  0
  4  5  1  0
  5  3  1  0
  6  1  1  0
  7  1  1  0
  8  6  2  0
  9  2  2  0
 10  2  1  0
 11  4  1  0
 12  4  1  0
 13  8  1  0
 14  6  1  0
 15  7  2  0
 16  7  1  0
 17 11  1  0
 18 12  1  0
 19 12  1  0
 20 11  1  0
 21 13  2  0
 22 15  1  0
 23 16  2  0
 24 14  2  0
 25 22  2  0
 24 21  1  0
 23 25  1  0
M  END
>  <Classification>  (4) 
0

>  <pchembl>  (4) 
4.18

>  <InChI_steorem>  (4) 
InChI=1S/C21H29N3O/c1-16(2)24(17(3)4)15-13-21(20(22)25,18-10-6-5-7-11-18)19-12-8-9-14-23-19/h5-12,14,16-17H,13,15H2,1-4H3,(H2,22,25)

>  <source>  (4) 
ChEMBL25

>  <source_id>  (4) 
25

>  <optional_reference>  (4) 
10.1021/jm2001629

>  <optional_origin>  (4) 
None

>  <target>  (4) 
MATE1

$$$$

     RDKit          2D

 22 25  0  0  0  0  0  0  0  0999 V2000
    2.0440    1.7885    0.0000 C   0  0  0  0  0  0  0  0  0  0  0  0
    2.0440    0.3467    0.0000 C   0  0  0  0  0  0  0  0  0  0  0  0
    0.8030   -0.3650    0.0000 C   0  0  0  0  0  0  0  0  0  0  0  0
   -0.4380    0.3285    0.0000 C   0  0  0  0  0  0  0  0  0  0  0  0
   -1.6790   -0.3832    0.0000 C   0  0  0  0  0  0  0  0  0  0  0  0
   -1.6790   -1.8250    0.0000 C   0  0  0  0  0  0  0  0  0  0  0  0
    0.8030    2.5185    0.0000 C   0  0  0  0  0  0  0  0  0  0  0  0
   -0.4562    1.7885    0.0000 C   0  0  0  0  0  0  0  0  0  0  0  0
    0.8212   -1.8067    0.0000 C   0  0  0  0  0  0  0  0  0  0  0  0
    4.5625    0.3285    0.0000 C   0  0  0  0  0  0  0  0  0  0  0  0
   -2.9565    0.3102    0.0000 C   0  0  0  0  0  0  0  0  0  0  0  0
    3.3032    2.5367    0.0000 C   0  0  0  0  0  0  0  0  0  0  0  0
   -0.4197   -2.5550    0.0000 C   0  0  0  0  0  0  0  0  0  0  0  0
   -2.9382   -2.5732    0.0000 C   0  0  0  0  0  0  0  0  0  0  0  0
    4.5625    1.8067    0.0000 C   0  0  0  0  0  0  0  0  0  0  0  0
   -4.1792   -1.8432    0.0000 C   0  0  0  0  0  0  0  0  0  0  0  0
   -4.1792   -0.4015    0.0000 C   0  0  0  0  0  0  0  0  0  0  0  0
    2.0413    2.9885    0.0000 C   0  0  0  0  0  0  0  0  0  0  0  0
    3.3371    1.3372    0.0000 O   0  0  0  0  0  0  0  0  0  0  0  0
   -5.2209   -2.4390    0.0000 O   0  0  0  0  0  0  0  0  0  0  0  0
    4.5984    3.2544    0.0000 C   0  0  0  0  0  0  0  0  0  0  0  0
    5.6339    3.8610    0.0000 C   0  0  0  0  0  0  0  0  0  0  0  0
  2  1  1  0
  3  2  1  0
  4  8  1  0
  5  4  1  0
  6  5  2  0
  7  1  1  0
  8  7  1  0
  9  3  1  0
 10  2  1  0
 11  5  1  0
 12  1  1  0
 13  9  1  0
 14  6  1  0
 15 12  1  0
 16 17  1  0
 17 11  2  0
  1 18  1  0
 12 19  1  0
 20 16  1  0
 10 15  1  0
  3  4  1  0
  6 13  1  0
 14 16  2  0
 12 21  1  0
 21 22  3  0
M  END
>  <Classification>  (5) 
0

>  <pchembl>  (5) 
4.68

>  <InChI_steorem>  (5) 
InChI=1S/C20H24O2/c1-3-20(22)11-9-18-17-6-4-13-12-14(21)5-7-15(13)16(17)8-10-19(18,20)2/h1,5,7,12,16-18,21-22H,4,6,8-11H2,2H3

>  <source>  (5) 
ChEMBL25

>  <source_id>  (5) 
25

>  <optional_reference>  (5) 
10.1021/jm301302s

>  <optional_origin>  (5) 
None

>  <target>  (5) 
MATE1

$$$$

     RDKit          2D

 50 53  0  0  0  0  0  0  0  0999 V2000
   -7.6913    6.1464    0.0000 N   0  0  0  0  0  0  0  0  0  0  0  0
   -5.1920    1.5249    0.0000 C   0  0  0  0  0  0  0  0  0  0  0  0
   -7.2212    7.5708    0.0000 C   0  0  0  0  0  0  0  0  0  0  0  0
   -3.8946    0.7703    0.0000 N   0  0  0  0  0  0  0  0  0  0  0  0
   -2.6010   -1.4850    0.0000 C   0  0  0  0  0  0  0  0  0  0  0  0
   -6.4817    5.2810    0.0000 C   0  0  0  0  0  0  0  0  0  0  0  0
   -5.7213    7.5640    0.0000 S   0  0  0  0  0  0  0  0  0  0  0  0
   -3.8984   -0.7305    0.0000 C   0  0  0  0  0  0  0  0  0  0  0  0
    3.9044   -0.7576    0.0000 C   0  0  0  0  0  0  0  0  0  0  0  0
   -5.1882    3.0257    0.0000 N   0  0  0  0  0  0  0  0  0  0  0  0
   -2.6048   -2.9858    0.0000 N   0  0  0  0  0  0  0  0  0  0  0  0
    4.4757    5.2776    0.0000 N   0  0  0  0  0  0  0  0  0  0  0  0
    2.6018   -1.5031    0.0000 N   0  0  0  0  0  0  0  0  0  0  0  0
    5.2203    2.9895    0.0000 C   0  0  0  0  0  0  0  0  0  0  0  0
   -5.2643    6.1353    0.0000 C   0  0  0  0  0  0  0  0  0  0  0  0
    2.5951   -3.0039    0.0000 C   0  0  0  0  0  0  0  0  0  0  0  0
    6.4358    3.8464    0.0000 S   0  0  0  0  0  0  0  0  0  0  0  0
    5.9757    5.2741    0.0000 C   0  0  0  0  0  0  0  0  0  0  0  0
   -6.4855    3.7802    0.0000 C   0  0  0  0  0  0  0  0  0  0  0  0
   -0.0048   -2.9949    0.0000 C   0  0  0  0  0  0  0  0  0  0  0  0
   -1.3074   -3.7403    0.0000 C   0  0  0  0  0  0  0  0  0  0  0  0
    4.0088    3.8522    0.0000 C   0  0  0  0  0  0  0  0  0  0  0  0
    1.2925   -3.7494    0.0000 C   0  0  0  0  0  0  0  0  0  0  0  0
   -6.2329    0.9278    0.0000 O   0  0  0  0  0  0  0  0  0  0  0  0
   -1.5601   -0.8880    0.0000 O   0  0  0  0  0  0  0  0  0  0  0  0
    4.9411   -1.3619    0.0000 O   0  0  0  0  0  0  0  0  0  0  0  0
    3.8902   -3.7623    0.0000 C   0  0  0  0  0  0  0  0  0  0  0  0
    3.9110    0.7432    0.0000 O   0  0  0  0  0  0  0  0  0  0  0  0
   -8.0938    8.7888    0.0000 C   0  0  0  0  0  0  0  0  0  0  0  0
    5.2136    1.4886    0.0000 C   0  0  0  0  0  0  0  0  0  0  0  0
   -1.3157   -5.2412    0.0000 C   0  0  0  0  0  0  0  0  0  0  0  0
   -5.2018   -1.4745    0.0000 C   0  0  0  0  0  0  0  0  0  0  0  0
    3.8819   -5.2632    0.0000 C   0  0  0  0  0  0  0  0  0  0  0  0
    1.2884   -4.9494    0.0000 O   0  0  0  0  0  0  0  0  0  0  0  0
   -2.6192   -5.9852    0.0000 C   0  0  0  0  0  0  0  0  0  0  0  0
   -4.1472    3.6227    0.0000 C   0  0  0  0  0  0  0  0  0  0  0  0
   -7.5991    9.8821    0.0000 C   0  0  0  0  0  0  0  0  0  0  0  0
   -9.2880    8.6709    0.0000 C   0  0  0  0  0  0  0  0  0  0  0  0
   -6.2385   -0.8701    0.0000 C   0  0  0  0  0  0  0  0  0  0  0  0
   -5.2073   -2.6745    0.0000 C   0  0  0  0  0  0  0  0  0  0  0  0
    5.1752   -6.0230    0.0000 C   0  0  0  0  0  0  0  0  0  0  0  0
    2.5772   -6.0033    0.0000 C   0  0  0  0  0  0  0  0  0  0  0  0
   -2.6297   -7.4852    0.0000 C   0  0  0  0  0  0  0  0  0  0  0  0
   -3.9131   -5.2262    0.0000 C   0  0  0  0  0  0  0  0  0  0  0  0
   -5.2173   -5.9672    0.0000 C   0  0  0  0  0  0  0  0  0  0  0  0
    5.1638   -7.5230    0.0000 C   0  0  0  0  0  0  0  0  0  0  0  0
    2.5658   -7.5032    0.0000 C   0  0  0  0  0  0  0  0  0  0  0  0
   -3.9339   -8.2261    0.0000 C   0  0  0  0  0  0  0  0  0  0  0  0
   -5.2277   -7.4672    0.0000 C   0  0  0  0  0  0  0  0  0  0  0  0
    3.8591   -8.2631    0.0000 C   0  0  0  0  0  0  0  0  0  0  0  0
  2 10  1  0
  3  1  2  0
  4  2  1  0
  5  8  1  0
  6  1  1  0
  7  3  1  0
  8  4  1  0
  9 13  1  0
 10 19  1  0
 11  5  1  0
 12 22  1  0
 13 16  1  0
 14 30  1  0
 15  6  2  0
 16 23  1  0
 17 14  1  0
 18 17  1  0
 19  6  1  0
 20 21  1  0
 21 11  1  0
 22 14  2  0
 23 20  1  0
 24  2  2  0
 25  5  2  0
 26  9  2  0
 16 27  1  0
 28  9  1  0
 29  3  1  0
 30 28  1  0
 31 21  1  0
 32  8  1  0
 33 27  1  0
 23 34  1  0
 35 31  1  0
 36 10  1  0
 37 29  1  0
 38 29  1  0
 39 32  1  0
 40 32  1  0
 41 33  2  0
 42 33  1  0
 43 35  2  0
 44 35  1  0
 45 44  2  0
 46 41  1  0
 47 42  2  0
 48 43  1  0
 49 45  1  0
 50 47  1  0
  7 15  1  0
 48 49  2  0
 46 50  2  0
 18 12  2  0
M  END
>  <Classification>  (6) 
1

>  <pchembl>  (6) 
5.68

>  <InChI_steorem>  (6) 
InChI=1S/C37H48N6O5S2/c1-24(2)33(42-36(46)43(5)20-29-22-49-35(40-29)25(3)4)34(45)39-28(16-26-12-8-6-9-13-26)18-32(44)31(17-27-14-10-7-11-15-27)41-37(47)48-21-30-19-38-23-50-30/h6-15,19,22-25,28,31-33,44H,16-18,20-21H2,1-5H3,(H,39,45)(H,41,47)(H,42,46)

>  <source>  (6) 
ChEMBL25

>  <source_id>  (6) 
25

>  <optional_reference>  (6) 
10.1021/jm301302s

>  <optional_origin>  (6) 
None

>  <target>  (6) 
MATE1

$$$$

     RDKit          2D

 40 45  0  0  0  0  0  0  0  0999 V2000
    2.3125   -5.7917    0.0000 C   0  0  0  0  0  0  0  0  0  0  0  0
    0.4667   -6.8417    0.0000 C   0  0  0  0  0  0  0  0  0  0  0  0
    2.3042   -6.4958    0.0000 C   0  0  0  0  0  0  0  0  0  0  0  0
    2.9875   -5.5792    0.0000 C   0  0  0  0  0  0  0  0  0  0  0  0
    3.3958   -6.1542    0.0000 C   0  0  0  0  0  0  0  0  0  0  0  0
    1.0792   -6.4875    0.0000 C   0  0  0  0  0  0  0  0  0  0  0  0
    1.6917   -6.8458    0.0000 C   0  0  0  0  0  0  0  0  0  0  0  0
    4.1000   -6.1625    0.0000 N   0  0  0  0  0  0  0  0  0  0  0  0
   -0.7583   -6.8417    0.0000 C   0  0  0  0  0  0  0  0  0  0  0  0
   -0.7583   -7.5500    0.0000 C   0  0  0  0  0  0  0  0  0  0  0  0
    2.9750   -6.7250    0.0000 C   0  0  0  0  0  0  0  0  0  0  0  0
   -0.1458   -6.4875    0.0000 C   0  0  0  0  0  0  0  0  0  0  0  0
    0.4667   -7.5500    0.0000 C   0  0  0  0  0  0  0  0  0  0  0  0
   -1.3708   -6.4875    0.0000 N   0  0  0  0  0  0  0  0  0  0  0  0
    1.7000   -5.4292    0.0000 C   0  0  0  0  0  0  0  0  0  0  0  0
    2.9792   -4.8667    0.0000 O   0  0  0  0  0  0  0  0  0  0  0  0
   -0.1458   -7.9042    0.0000 C   0  0  0  0  0  0  0  0  0  0  0  0
    1.0833   -5.7792    0.0000 C   0  0  0  0  0  0  0  0  0  0  0  0
   -1.3708   -7.9000    0.0000 O   0  0  0  0  0  0  0  0  0  0  0  0
    1.6875   -7.5542    0.0000 C   0  0  0  0  0  0  0  0  0  0  0  0
    3.5917   -4.5083    0.0000 C   0  0  0  0  0  0  0  0  0  0  0  0
   -1.3708   -8.6083    0.0000 C   0  0  0  0  0  0  0  0  0  0  0  0
    1.0750   -7.9042    0.0000 C   0  0  0  0  0  0  0  0  0  0  0  0
   -0.7583   -8.9667    0.0000 O   0  0  0  0  0  0  0  0  0  0  0  0
    3.5875   -3.8000    0.0000 O   0  0  0  0  0  0  0  0  0  0  0  0
    2.3042   -5.0792    0.0000 C   0  0  0  0  0  0  0  0  0  0  0  0
    0.4625   -6.1292    0.0000 C   0  0  0  0  0  0  0  0  0  0  0  0
    3.7417   -5.5417    0.0000 C   0  0  0  0  0  0  0  0  0  0  0  0
    4.4583   -5.5542    0.0000 C   0  0  0  0  0  0  0  0  0  0  0  0
    4.4500   -6.7792    0.0000 C   0  0  0  0  0  0  0  0  0  0  0  0
   -1.3708   -5.7750    0.0000 C   0  0  0  0  0  0  0  0  0  0  0  0
   -1.9833   -6.8417    0.0000 C   0  0  0  0  0  0  0  0  0  0  0  0
    4.2083   -4.8583    0.0000 C   0  0  0  0  0  0  0  0  0  0  0  0
   -1.9833   -8.9625    0.0000 C   0  0  0  0  0  0  0  0  0  0  0  0
    5.1542   -6.7875    0.0000 C   0  0  0  0  0  0  0  0  0  0  0  0
    5.1708   -5.5625    0.0000 C   0  0  0  0  0  0  0  0  0  0  0  0
   -1.9792   -5.4250    0.0000 C   0  0  0  0  0  0  0  0  0  0  0  0
   -2.5958   -6.4833    0.0000 C   0  0  0  0  0  0  0  0  0  0  0  0
   -2.5958   -5.7750    0.0000 C   0  0  0  0  0  0  0  0  0  0  0  0
    5.5167   -6.1792    0.0000 C   0  0  0  0  0  0  0  0  0  0  0  0
  2  6  1  0
  3  1  1  0
  4  1  1  0
  5  4  1  0
  6  7  1  0
  7  3  1  0
  5  8  1  0
  9 12  1  0
 10 17  1  0
 11  3  1  0
 12  2  1  0
 13  2  1  0
  9 14  1  0
 15  1  1  0
  4 16  1  0
 17 13  1  0
 18 15  1  0
 10 19  1  0
 20  7  1  0
 21 16  1  0
 22 19  1  0
 23 20  1  0
 24 22  2  0
 25 21  2  0
  1 26  1  0
  2 27  1  0
 28  8  1  0
 29  8  1  0
 30  8  1  0
 31 14  1  0
 32 14  1  0
 33 21  1  0
 34 22  1  0
 35 30  1  0
 36 29  1  0
 37 31  1  0
 38 32  1  0
 39 38  1  0
 40 35  1  0
  5 11  1  0
 18  6  1  0
 23 13  1  0
 36 40  1  0
 10  9  1  0
 39 37  1  0
M  CHG  1   8   1
M  END
>  <Classification>  (7) 
1

>  <pchembl>  (7) 
5.72

>  <InChI_steorem>  (7) 
InChI=1S/C34H57N2O4/c1-23(37)39-31-20-25-12-13-26-27(34(25,4)22-29(31)35-16-8-6-9-17-35)14-15-33(3)28(26)21-30(32(33)40-24(2)38)36(5)18-10-7-11-19-36/h25-32H,6-22H2,1-5H3

>  <source>  (7) 
ChEMBL25

>  <source_id>  (7) 
25

>  <optional_reference>  (7) 
10.1021/jm301302s

>  <optional_origin>  (7) 
None

>  <target>  (7) 
MATE1

$$$$

     RDKit          2D

 20 20  0  0  0  0  0  0  0  0999 V2000
   15.7733    4.4099    0.0000 S   0  0  0  0  0  0  0  0  0  0  0  0
    5.3817    0.7500    0.0000 S   0  0  0  0  0  0  0  0  0  0  0  0
    9.3921    2.9851    0.0000 S   0  0  0  0  0  0  0  0  0  0  0  0
   16.9390    3.4660    0.0000 O   0  0  0  0  0  0  0  0  0  0  0  0
   16.8153    5.4890    0.0000 O   0  0  0  0  0  0  0  0  0  0  0  0
    5.3817    3.1771    0.0000 N   0  0  0  0  0  0  0  0  0  0  0  0
   14.5598    3.5283    0.0000 N   0  0  0  0  0  0  0  0  0  0  0  0
    3.0000    1.9635    0.0000 N   0  0  0  0  0  0  0  0  0  0  0  0
   14.7892    5.5420    0.0000 N   0  0  0  0  0  0  0  0  0  0  0  0
   13.0327    5.6301    0.0000 N   0  0  0  0  0  0  0  0  0  0  0  0
    0.7500    3.2626    0.0000 N   0  0  0  0  0  0  0  0  0  0  0  0
    3.0000    4.5616    0.0000 N   0  0  0  0  0  0  0  0  0  0  0  0
    4.5000    1.9635    0.0000 C   0  0  0  0  0  0  0  0  0  0  0  0
    6.8083    2.7135    0.0000 C   0  0  0  0  0  0  0  0  0  0  0  0
    6.8083    1.2135    0.0000 C   0  0  0  0  0  0  0  0  0  0  0  0
   13.1895    4.1384    0.0000 C   0  0  0  0  0  0  0  0  0  0  0  0
    8.0218    3.5952    0.0000 C   0  0  0  0  0  0  0  0  0  0  0  0
   11.9760    3.2567    0.0000 C   0  0  0  0  0  0  0  0  0  0  0  0
    2.2500    3.2626    0.0000 C   0  0  0  0  0  0  0  0  0  0  0  0
   10.6056    3.8668    0.0000 C   0  0  0  0  0  0  0  0  0  0  0  0
  1  4  2  0
  1  5  2  0
  1  7  1  0
  1  9  1  0
  2 13  1  0
  2 15  1  0
  3 17  1  0
  3 20  1  0
  6 13  2  0
  6 14  1  0
  7 16  2  3
  8 13  1  0
  8 19  2  3
 10 16  1  0
 11 19  1  0
 12 19  1  0
 14 15  2  0
 14 17  1  0
 16 18  1  0
 18 20  1  0
M  END
>  <Classification>  (8) 
1

>  <pchembl>  (8) 
6.12

>  <InChI_steorem>  (8) 
InChI=1S/C8H15N7O2S3/c9-6(15-20(12,16)17)1-2-18-3-5-4-19-8(13-5)14-7(10)11/h4H,1-3H2,(H2,9,15)(H2,12,16,17)(H4,10,11,13,14)

>  <source>  (8) 
ChEMBL25

>  <source_id>  (8) 
25

>  <optional_reference>  (8) 
10.1021/jm301302s

>  <optional_origin>  (8) 
None

>  <target>  (8) 
MATE1

$$$$

     RDKit          2D

 17 17  0  0  0  0  0  0  0  0999 V2000
    9.6839   -2.6934    0.0000 C   0  0  0  0  0  0  0  0  0  0  0  0
    8.4905   -2.8193    0.0000 N   0  0  0  0  0  0  0  0  0  0  0  0
    7.8797   -4.1902    0.0000 C   0  0  0  0  0  0  0  0  0  0  0  0
    6.3873   -4.3492    0.0000 N   0  0  0  0  0  0  0  0  0  0  0  0
    5.7780   -5.7208    0.0000 C   0  0  0  0  0  0  0  0  0  0  0  0
    4.2856   -5.8798    0.0000 C   0  0  0  0  0  0  0  0  0  0  0  0
    3.6763   -7.2514    0.0000 S   0  0  0  0  0  0  0  0  0  0  0  0
    2.1839   -7.4104    0.0000 C   0  0  0  0  0  0  0  0  0  0  0  0
    1.5756   -8.7796    0.0000 C   0  0  0  0  0  0  0  0  0  0  0  0
    2.3293  -10.0765    0.0000 N   0  0  0  0  0  0  0  0  0  0  0  0
    1.3289  -11.1941    0.0000 C   0  0  0  0  0  0  0  0  0  0  0  0
   -0.0432  -10.5880    0.0000 N   0  0  0  0  0  0  0  0  0  0  0  0
    0.1093   -9.0957    0.0000 C   0  0  0  0  0  0  0  0  0  0  0  0
   -0.7848   -8.2953    0.0000 C   0  0  0  0  0  0  0  0  0  0  0  0
    8.7644   -5.4025    0.0000 N   0  0  0  0  0  0  0  0  0  0  0  0
   10.2567   -5.2435    0.0000 C   0  0  0  0  0  0  0  0  0  0  0  0
   11.4500   -5.1163    0.0000 N   0  0  0  0  0  0  0  0  0  0  0  0
  1  2  1  0
  2  3  1  0
  3  4  2  3
  4  5  1  0
  5  6  1  0
  6  7  1  0
  7  8  1  0
  8  9  1  0
  9 10  1  0
 10 11  2  0
 11 12  1  0
 12 13  1  0
 13  9  2  0
 13 14  1  0
  3 15  1  0
 15 16  1  0
 16 17  3  0
M  END
>  <Classification>  (9) 
1

>  <pchembl>  (9) 
5.24

>  <InChI_steorem>  (9) 
InChI=1S/C10H16N6S/c1-8-9(16-7-15-8)5-17-4-3-13-10(12-2)14-6-11/h7H,3-5H2,1-2H3,(H,15,16)(H2,12,13,14)

>  <source>  (9) 
ChEMBL25

>  <source_id>  (9) 
25

>  <optional_reference>  (9) 
10.1021/jm2001629

>  <optional_origin>  (9) 
None

>  <target>  (9) 
MATE1

$$$$

     RDKit          2D

 30 34  0  0  0  0  0  0  0  0999 V2000
    2.3383   -1.3500    0.0000 Cl  0  0  0  0  0  0  0  0  0  0  0  0
    1.2990   -0.7500    0.0000 C   0  0  0  0  0  0  0  0  0  0  0  0
    1.2990    0.7500    0.0000 C   0  0  0  0  0  0  0  0  0  0  0  0
    0.0000    1.5000    0.0000 C   0  0  0  0  0  0  0  0  0  0  0  0
   -1.2990    0.7500    0.0000 C   0  0  0  0  0  0  0  0  0  0  0  0
   -2.7248    1.2135    0.0000 N   0  0  0  0  0  0  0  0  0  0  0  0
   -3.1884    2.6408    0.0000 C   0  0  0  0  0  0  0  0  0  0  0  0
   -2.2738    3.8234    0.0000 C   0  0  0  0  0  0  0  0  0  0  0  0
   -2.8433    5.2111    0.0000 C   0  0  0  0  0  0  0  0  0  0  0  0
   -4.3298    5.4117    0.0000 N   0  0  0  0  0  0  0  0  0  0  0  0
   -4.9025    6.7990    0.0000 C   0  0  0  0  0  0  0  0  0  0  0  0
   -6.3901    6.9976    0.0000 C   0  0  0  0  0  0  0  0  0  0  0  0
   -6.9628    8.3849    0.0000 C   0  0  0  0  0  0  0  0  0  0  0  0
   -8.4505    8.5835    0.0000 N   0  0  0  0  0  0  0  0  0  0  0  0
   -9.4613    7.4925    0.0000 C   0  0  0  0  0  0  0  0  0  0  0  0
   -9.2355    6.3139    0.0000 O   0  0  0  0  0  0  0  0  0  0  0  0
  -10.8152    8.1382    0.0000 N   0  0  0  0  0  0  0  0  0  0  0  0
  -10.6194    9.6245    0.0000 C   0  0  0  0  0  0  0  0  0  0  0  0
  -11.5936   10.7650    0.0000 C   0  0  0  0  0  0  0  0  0  0  0  0
  -11.0930   12.1790    0.0000 C   0  0  0  0  0  0  0  0  0  0  0  0
   -9.6182   12.4525    0.0000 C   0  0  0  0  0  0  0  0  0  0  0  0
   -8.6439   11.3120    0.0000 C   0  0  0  0  0  0  0  0  0  0  0  0
   -9.1445    9.8980    0.0000 C   0  0  0  0  0  0  0  0  0  0  0  0
   -5.2468    4.2247    0.0000 C   0  0  0  0  0  0  0  0  0  0  0  0
   -4.6773    2.8370    0.0000 C   0  0  0  0  0  0  0  0  0  0  0  0
   -3.6065    0.0000    0.0000 C   0  0  0  0  0  0  0  0  0  0  0  0
   -4.8065    0.0000    0.0000 O   0  0  0  0  0  0  0  0  0  0  0  0
   -2.7248   -1.2135    0.0000 N   0  0  0  0  0  0  0  0  0  0  0  0
   -1.2990   -0.7500    0.0000 C   0  0  0  0  0  0  0  0  0  0  0  0
    0.0000   -1.5000    0.0000 C   0  0  0  0  0  0  0  0  0  0  0  0
  1  2  1  0
  2  3  2  0
  3  4  1  0
  4  5  2  0
  5  6  1  0
  6  7  1  0
  7  8  1  0
  8  9  1  0
  9 10  1  0
 10 11  1  0
 11 12  1  0
 12 13  1  0
 13 14  1  0
 14 15  1  0
 15 16  2  0
 15 17  1  0
 17 18  1  0
 18 19  2  0
 19 20  1  0
 20 21  2  0
 21 22  1  0
 22 23  2  0
 23 14  1  0
 23 18  1  0
 10 24  1  0
 24 25  1  0
 25  7  1  0
  6 26  1  0
 26 27  2  0
 26 28  1  0
 28 29  1  0
 29  5  1  0
 29 30  2  0
 30  2  1  0
M  END
>  <Classification>  (10) 
1

>  <pchembl>  (10) 
5.64

>  <InChI_steorem>  (10) 
InChI=1S/C22H24ClN5O2/c23-15-6-7-20-18(14-15)25-22(30)28(20)16-8-12-26(13-9-16)10-3-11-27-19-5-2-1-4-17(19)24-21(27)29/h1-2,4-7,14,16H,3,8-13H2,(H,24,29)(H,25,30)

>  <source>  (10) 
ChEMBL25

>  <source_id>  (10) 
25

>  <optional_reference>  (10) 
10.1021/jm301302s

>  <optional_origin>  (10) 
None

>  <target>  (10) 
MATE1

$$$$

     RDKit          2D

 30 34  0  0  0  0  0  0  0  0999 V2000
    2.3383   -1.3500    0.0000 C   0  0  0  0  0  0  0  0  0  0  0  0
    1.2990   -0.7500    0.0000 C   0  0  0  0  0  0  0  0  0  0  0  0
    1.2990    0.7500    0.0000 C   0  0  0  0  0  0  0  0  0  0  0  0
    2.5972    1.5031    0.0000 C   0  0  0  0  0  0  0  0  0  0  0  0
    2.5951    3.0039    0.0000 C   0  0  0  0  0  0  0  0  0  0  0  0
    3.8933    3.7570    0.0000 N   0  0  0  0  0  0  0  0  0  0  0  0
    3.8933    5.2571    0.0000 C   0  0  0  0  0  0  0  0  0  0  0  0
    5.1924    6.0071    0.0000 C   0  0  0  0  0  0  0  0  0  0  0  0
    6.4914    5.2571    0.0000 C   0  0  0  0  0  0  0  0  0  0  0  0
    6.4915    3.7571    0.0000 C   0  0  0  0  0  0  0  0  0  0  0  0
    5.1925    3.0071    0.0000 C   0  0  0  0  0  0  0  0  0  0  0  0
    7.7911    6.0075    0.0000 C   0  0  0  0  0  0  0  0  0  0  0  0
    9.1416    5.3847    0.0000 N   0  0  0  0  0  0  0  0  0  0  0  0
   10.1469    6.4980    0.0000 O   0  0  0  0  0  0  0  0  0  0  0  0
    9.3989    7.7973    0.0000 C   0  0  0  0  0  0  0  0  0  0  0  0
    9.8644    9.2232    0.0000 C   0  0  0  0  0  0  0  0  0  0  0  0
    8.8623   10.3393    0.0000 C   0  0  0  0  0  0  0  0  0  0  0  0
    9.2347   11.4801    0.0000 F   0  0  0  0  0  0  0  0  0  0  0  0
    7.3946   10.0295    0.0000 C   0  0  0  0  0  0  0  0  0  0  0  0
    6.9291    8.6036    0.0000 C   0  0  0  0  0  0  0  0  0  0  0  0
    7.9312    7.4874    0.0000 C   0  0  0  0  0  0  0  0  0  0  0  0
    0.0000    1.5000    0.0000 C   0  0  0  0  0  0  0  0  0  0  0  0
    0.0000    2.7000    0.0000 O   0  0  0  0  0  0  0  0  0  0  0  0
   -1.2990    0.7500    0.0000 N   0  0  0  0  0  0  0  0  0  0  0  0
   -2.5981    1.5000    0.0000 C   0  0  0  0  0  0  0  0  0  0  0  0
   -3.8971    0.7500    0.0000 C   0  0  0  0  0  0  0  0  0  0  0  0
   -3.8971   -0.7500    0.0000 C   0  0  0  0  0  0  0  0  0  0  0  0
   -2.5981   -1.5000    0.0000 C   0  0  0  0  0  0  0  0  0  0  0  0
   -1.2990   -0.7500    0.0000 C   0  0  0  0  0  0  0  0  0  0  0  0
    0.0000   -1.5000    0.0000 N   0  0  0  0  0  0  0  0  0  0  0  0
  1  2  1  0
  2  3  2  0
  3  4  1  0
  4  5  1  0
  5  6  1  0
  6  7  1  0
  7  8  1  0
  8  9  1  0
  9 10  1  0
 10 11  1  0
 11  6  1  0
  9 12  1  0
 12 13  2  0
 13 14  1  0
 14 15  1  0
 15 16  2  0
 16 17  1  0
 17 18  1  0
 17 19  2  0
 19 20  1  0
 20 21  2  0
 21 12  1  0
 21 15  1  0
  3 22  1  0
 22 23  2  0
 22 24  1  0
 24 25  1  0
 25 26  1  0
 26 27  1  0
 27 28  1  0
 28 29  1  0
 29 24  1  0
 29 30  2  0
 30  2  1  0
M  END
>  <Classification>  (11) 
1

>  <pchembl>  (11) 
5.8

>  <InChI_steorem>  (11) 
InChI=1S/C23H27FN4O2/c1-15-18(23(29)28-10-3-2-4-21(28)25-15)9-13-27-11-7-16(8-12-27)22-19-6-5-17(24)14-20(19)30-26-22/h5-6,14,16H,2-4,7-13H2,1H3

>  <source>  (11) 
ChEMBL25

>  <source_id>  (11) 
25

>  <optional_reference>  (11) 
10.1021/jm301302s

>  <optional_origin>  (11) 
None

>  <target>  (11) 
MATE1

$$$$

     RDKit          2D

 29 30  0  0  0  0  0  0  0  0999 V2000
    6.2253   -8.1139    0.0000 C   0  0  0  0  0  0  0  0  0  0  0  0
    5.1873   -7.5117    0.0000 N   0  0  0  0  0  0  0  0  0  0  0  0
    4.1470   -8.1099    0.0000 C   0  0  0  0  0  0  0  0  0  0  0  0
    5.1894   -6.0109    0.0000 C   0  0  0  0  0  0  0  0  0  0  0  0
    6.2297   -5.4127    0.0000 O   0  0  0  0  0  0  0  0  0  0  0  0
    3.8912   -5.2578    0.0000 C   0  0  0  0  0  0  0  0  0  0  0  0
    3.8933   -3.7570    0.0000 O   0  0  0  0  0  0  0  0  0  0  0  0
    2.5951   -3.0039    0.0000 C   0  0  0  0  0  0  0  0  0  0  0  0
    1.5548   -3.6021    0.0000 O   0  0  0  0  0  0  0  0  0  0  0  0
    2.5973   -1.5031    0.0000 C   0  0  0  0  0  0  0  0  0  0  0  0
    1.2990   -0.7500    0.0000 C   0  0  0  0  0  0  0  0  0  0  0  0
    1.2990    0.7500    0.0000 C   0  0  0  0  0  0  0  0  0  0  0  0
    0.0000    1.5000    0.0000 C   0  0  0  0  0  0  0  0  0  0  0  0
   -1.2990    0.7500    0.0000 C   0  0  0  0  0  0  0  0  0  0  0  0
   -2.6003    1.4977    0.0000 O   0  0  0  0  0  0  0  0  0  0  0  0
   -3.8990    0.7455    0.0000 C   0  0  0  0  0  0  0  0  0  0  0  0
   -3.8969   -0.4545    0.0000 O   0  0  0  0  0  0  0  0  0  0  0  0
   -5.2003    1.4932    0.0000 C   0  0  0  0  0  0  0  0  0  0  0  0
   -6.4994    0.7432    0.0000 C   0  0  0  0  0  0  0  0  0  0  0  0
   -7.7985    1.4932    0.0000 C   0  0  0  0  0  0  0  0  0  0  0  0
   -7.7985    2.9932    0.0000 C   0  0  0  0  0  0  0  0  0  0  0  0
   -9.0967    3.7462    0.0000 N   0  0  0  0  0  0  0  0  0  0  0  0
   -9.0947    5.2471    0.0000 C   0  0  0  0  0  0  0  0  0  0  0  0
  -10.1327    5.8492    0.0000 N   0  0  0  0  0  0  0  0  0  0  0  0
   -8.0544    5.8453    0.0000 N   0  0  0  0  0  0  0  0  0  0  0  0
   -6.4995    3.7432    0.0000 C   0  0  0  0  0  0  0  0  0  0  0  0
   -5.2004    2.9933    0.0000 C   0  0  0  0  0  0  0  0  0  0  0  0
   -1.2990   -0.7500    0.0000 C   0  0  0  0  0  0  0  0  0  0  0  0
    0.0000   -1.5000    0.0000 C   0  0  0  0  0  0  0  0  0  0  0  0
  1  2  1  0
  2  3  1  0
  2  4  1  0
  4  5  2  0
  4  6  1  0
  6  7  1  0
  7  8  1  0
  8  9  2  0
  8 10  1  0
 10 11  1  0
 11 12  2  0
 12 13  1  0
 13 14  2  0
 14 15  1  0
 15 16  1  0
 16 17  2  0
 16 18  1  0
 18 19  2  0
 19 20  1  0
 20 21  2  0
 21 22  1  0
 22 23  1  0
 23 24  2  0
 23 25  1  0
 21 26  1  0
 26 27  2  0
 27 18  1  0
 14 28  1  0
 28 29  2  0
 29 11  1  0
M  END
>  <Classification>  (12) 
1

>  <pchembl>  (12) 
5.54

>  <InChI_steorem>  (12) 
InChI=1S/C20H22N4O5/c1-24(2)17(25)12-28-18(26)11-13-3-9-16(10-4-13)29-19(27)14-5-7-15(8-6-14)23-20(21)22/h3-10H,11-12H2,1-2H3,(H4,21,22,23)

>  <source>  (12) 
ChEMBL25

>  <source_id>  (12) 
25

>  <optional_reference>  (12) 
10.1021/jm301302s

>  <optional_origin>  (12) 
None

>  <target>  (12) 
MATE1

$$$$

     RDKit          2D

 24 27  0  0  0  0  0  0  0  0999 V2000
    2.5956   -2.7031    0.0000 C   0  0  0  0  0  0  0  0  0  0  0  0
    2.5973   -1.5031    0.0000 O   0  0  0  0  0  0  0  0  0  0  0  0
    1.2990   -0.7500    0.0000 C   0  0  0  0  0  0  0  0  0  0  0  0
    1.2990    0.7500    0.0000 C   0  0  0  0  0  0  0  0  0  0  0  0
    0.0000    1.5000    0.0000 C   0  0  0  0  0  0  0  0  0  0  0  0
   -1.2990    0.7500    0.0000 C   0  0  0  0  0  0  0  0  0  0  0  0
   -2.5981    1.5000    0.0000 N   0  0  0  0  0  0  0  0  0  0  0  0
   -3.8971    0.7500    0.0000 C   0  0  0  0  0  0  0  0  0  0  0  0
   -3.8971   -0.7500    0.0000 C   0  0  0  0  0  0  0  0  0  0  0  0
   -2.5981   -1.5000    0.0000 C   0  0  0  0  0  0  0  0  0  0  0  0
   -2.6001   -3.0008    0.0000 C   0  0  0  0  0  0  0  0  0  0  0  0
   -3.6403   -3.5991    0.0000 O   0  0  0  0  0  0  0  0  0  0  0  0
   -1.3018   -3.7538    0.0000 C   0  0  0  0  0  0  0  0  0  0  0  0
    0.0504   -3.7772    0.0000 C   0  0  0  0  0  0  0  0  0  0  0  0
    0.7490   -4.8836    0.0000 C   0  0  0  0  0  0  0  0  0  0  0  0
    0.4079   -6.4955    0.0000 C   0  0  0  0  0  0  0  0  0  0  0  0
   -1.0295   -6.5002    0.0000 C   0  0  0  0  0  0  0  0  0  0  0  0
   -0.5882   -4.9489    0.0000 N   0  0  0  0  0  0  0  0  0  0  0  0
    1.1725   -4.4592    0.0000 C   0  0  0  0  0  0  0  0  0  0  0  0
    2.3256   -4.6763    0.0000 C   0  0  0  0  0  0  0  0  0  0  0  0
    3.8088   -4.8069    0.0000 C   0  0  0  0  0  0  0  0  0  0  0  0
    4.4968   -3.8238    0.0000 C   0  0  0  0  0  0  0  0  0  0  0  0
   -1.2990   -0.7500    0.0000 C   0  0  0  0  0  0  0  0  0  0  0  0
    0.0000   -1.5000    0.0000 C   0  0  0  0  0  0  0  0  0  0  0  0
  1  2  1  0
  2  3  1  0
  3  4  2  0
  4  5  1  0
  5  6  2  0
  6  7  1  0
  7  8  2  0
  8  9  1  0
  9 10  2  0
 10 11  1  0
 11 12  1  0
 11 13  1  0
 13 14  1  0
 15 14  1  0
 15 16  1  0
 16 17  1  0
 17 18  1  0
 18 13  1  0
 18 19  1  0
 19 20  1  0
 20 15  1  0
 20 21  1  0
 21 22  2  0
 10 23  1  0
 23  6  1  0
 23 24  2  0
 24  3  1  0
M  END
>  <Classification>  (13) 
0

>  <pchembl>  (13) 
4.95

>  <InChI_steorem>  (13) 
InChI=1S/C20H24N2O2/c1-3-13-12-22-9-7-14(13)10-19(22)20(23)16-6-8-21-18-5-4-15(24-2)11-17(16)18/h3-6,8,11,13-14,19-20,23H,1,7,9-10,12H2,2H3

>  <source>  (13) 
ChEMBL25

>  <source_id>  (13) 
25

>  <optional_reference>  (13) 
10.1021/jm301302s

>  <optional_origin>  (13) 
None

>  <target>  (13) 
MATE1

$$$$

     RDKit          2D

 15 17  0  0  0  0  0  0  0  0999 V2000
    2.3383   -1.3500    0.0000 N   0  0  0  0  0  0  0  0  0  0  0  0
    1.2990   -0.7500    0.0000 C   0  0  0  0  0  0  0  0  0  0  0  0
    1.2990    0.7500    0.0000 C   0  0  0  0  0  0  0  0  0  0  0  0
    2.5981    1.5000    0.0000 C   0  0  0  0  0  0  0  0  0  0  0  0
    2.5981    3.0000    0.0000 C   0  0  0  0  0  0  0  0  0  0  0  0
    1.2990    3.7500    0.0000 C   0  0  0  0  0  0  0  0  0  0  0  0
    0.0000    3.0000    0.0000 C   0  0  0  0  0  0  0  0  0  0  0  0
    0.0000    1.5000    0.0000 C   0  0  0  0  0  0  0  0  0  0  0  0
   -1.2990    0.7500    0.0000 N   0  0  0  0  0  0  0  0  0  0  0  0
   -1.2990   -0.7500    0.0000 C   0  0  0  0  0  0  0  0  0  0  0  0
   -2.5981   -1.5000    0.0000 C   0  0  0  0  0  0  0  0  0  0  0  0
   -2.5981   -3.0000    0.0000 C   0  0  0  0  0  0  0  0  0  0  0  0
   -1.2990   -3.7500    0.0000 C   0  0  0  0  0  0  0  0  0  0  0  0
    0.0000   -3.0000    0.0000 C   0  0  0  0  0  0  0  0  0  0  0  0
    0.0000   -1.5000    0.0000 C   0  0  0  0  0  0  0  0  0  0  0  0
  1  2  1  0
  2  3  2  0
  3  4  1  0
  4  5  1  0
  5  6  1  0
  6  7  1  0
  7  8  1  0
  8  3  1  0
  8  9  2  0
  9 10  1  0
 10 11  2  0
 11 12  1  0
 12 13  2  0
 13 14  1  0
 14 15  2  0
 15  2  1  0
 15 10  1  0
M  END
>  <Classification>  (14) 
1

>  <pchembl>  (14) 
5.96

>  <InChI_steorem>  (14) 
InChI=1S/C13H14N2/c14-13-9-5-1-3-7-11(9)15-12-8-4-2-6-10(12)13/h1,3,5,7H,2,4,6,8H2,(H2,14,15)

>  <source>  (14) 
ChEMBL25

>  <source_id>  (14) 
25

>  <optional_reference>  (14) 
10.1021/jm2001629

>  <optional_origin>  (14) 
None

>  <target>  (14) 
MATE1

$$$$

     RDKit          2D

 20 21  0  0  0  0  0  0  0  0999 V2000
    3.8916   -4.9570    0.0000 C   0  0  0  0  0  0  0  0  0  0  0  0
    3.8933   -3.7570    0.0000 N   0  0  0  0  0  0  0  0  0  0  0  0
    2.5951   -3.0039    0.0000 S   0  0  0  0  0  0  0  0  0  0  0  0
    1.5548   -3.6021    0.0000 O   0  0  0  0  0  0  0  0  0  0  0  0
    2.5928   -4.2039    0.0000 O   0  0  0  0  0  0  0  0  0  0  0  0
    2.5973   -1.5031    0.0000 C   0  0  0  0  0  0  0  0  0  0  0  0
    1.2990   -0.7500    0.0000 C   0  0  0  0  0  0  0  0  0  0  0  0
    1.2990    0.7500    0.0000 C   0  0  0  0  0  0  0  0  0  0  0  0
    0.0000    1.5000    0.0000 C   0  0  0  0  0  0  0  0  0  0  0  0
   -1.2990    0.7500    0.0000 C   0  0  0  0  0  0  0  0  0  0  0  0
   -2.7248    1.2135    0.0000 N   0  0  0  0  0  0  0  0  0  0  0  0
   -3.6065    0.0000    0.0000 C   0  0  0  0  0  0  0  0  0  0  0  0
   -2.7248   -1.2135    0.0000 C   0  0  0  0  0  0  0  0  0  0  0  0
   -3.1904   -2.6376    0.0000 C   0  0  0  0  0  0  0  0  0  0  0  0
   -4.6588   -2.9478    0.0000 C   0  0  0  0  0  0  0  0  0  0  0  0
   -5.1253   -4.3743    0.0000 N   0  0  0  0  0  0  0  0  0  0  0  0
   -6.2994   -4.6224    0.0000 C   0  0  0  0  0  0  0  0  0  0  0  0
   -4.3237   -5.2673    0.0000 C   0  0  0  0  0  0  0  0  0  0  0  0
   -1.2990   -0.7500    0.0000 C   0  0  0  0  0  0  0  0  0  0  0  0
    0.0000   -1.5000    0.0000 C   0  0  0  0  0  0  0  0  0  0  0  0
  1  2  1  0
  2  3  1  0
  3  4  2  0
  3  5  2  0
  3  6  1  0
  6  7  1  0
  7  8  2  0
  8  9  1  0
  9 10  2  0
 10 11  1  0
 11 12  1  0
 12 13  2  0
 13 14  1  0
 14 15  1  0
 15 16  1  0
 16 17  1  0
 16 18  1  0
 13 19  1  0
 19 10  1  0
 19 20  2  0
 20  7  1  0
M  END
>  <Classification>  (15) 
1

>  <pchembl>  (15) 
5.17

>  <InChI_steorem>  (15) 
InChI=1S/C14H21N3O2S/c1-15-20(18,19)10-11-4-5-14-13(8-11)12(9-16-14)6-7-17(2)3/h4-5,8-9,15-16H,6-7,10H2,1-3H3

>  <source>  (15) 
ChEMBL25

>  <source_id>  (15) 
25

>  <optional_reference>  (15) 
10.1021/jm301302s

>  <optional_origin>  (15) 
None

>  <target>  (15) 
MATE1

$$$$

     RDKit          2D

 37 41  0  0  0  0  0  0  0  0999 V2000
    2.3383   -1.3500    0.0000 C   0  0  0  0  0  0  0  0  0  0  0  0
    1.2990   -0.7500    0.0000 N   0  0  0  0  0  0  0  0  0  0  0  0
    1.2990    0.7500    0.0000 C   0  0  0  0  0  0  0  0  0  0  0  0
    0.0000    1.5000    0.0000 C   0  0  0  0  0  0  0  0  0  0  0  0
   -1.2990    0.7500    0.0000 N   0  0  0  0  0  0  0  0  0  0  0  0
   -2.6003    1.4977    0.0000 C   0  0  0  0  0  0  0  0  0  0  0  0
   -3.8990    0.7455    0.0000 C   0  0  0  0  0  0  0  0  0  0  0  0
   -5.2007    1.4909    0.0000 C   0  0  0  0  0  0  0  0  0  0  0  0
   -6.4972    0.7364    0.0000 C   0  0  0  0  0  0  0  0  0  0  0  0
   -6.4920   -0.7636    0.0000 C   0  0  0  0  0  0  0  0  0  0  0  0
   -5.1903   -1.5091    0.0000 C   0  0  0  0  0  0  0  0  0  0  0  0
   -3.8939   -0.7546    0.0000 C   0  0  0  0  0  0  0  0  0  0  0  0
   -7.7876   -1.5212    0.0000 C   0  0  0  0  0  0  0  0  0  0  0  0
   -8.8299   -0.9266    0.0000 O   0  0  0  0  0  0  0  0  0  0  0  0
   -7.7802   -3.0220    0.0000 N   0  0  0  0  0  0  0  0  0  0  0  0
   -9.0758   -3.7796    0.0000 C   0  0  0  0  0  0  0  0  0  0  0  0
   -9.0707   -5.2796    0.0000 C   0  0  0  0  0  0  0  0  0  0  0  0
  -10.3671   -6.0341    0.0000 C   0  0  0  0  0  0  0  0  0  0  0  0
  -11.6687   -5.2886    0.0000 C   0  0  0  0  0  0  0  0  0  0  0  0
  -12.7059   -5.8922    0.0000 C   0  0  0  0  0  0  0  0  0  0  0  0
  -11.6740   -3.7886    0.0000 C   0  0  0  0  0  0  0  0  0  0  0  0
  -12.9748   -3.0401    0.0000 N   0  0  0  0  0  0  0  0  0  0  0  0
  -12.9779   -1.5393    0.0000 C   0  0  0  0  0  0  0  0  0  0  0  0
  -14.2769   -0.7892    0.0000 N   0  0  0  0  0  0  0  0  0  0  0  0
  -14.2770    0.7108    0.0000 C   0  0  0  0  0  0  0  0  0  0  0  0
  -12.9780    1.4608    0.0000 C   0  0  0  0  0  0  0  0  0  0  0  0
  -11.6789    0.7109    0.0000 C   0  0  0  0  0  0  0  0  0  0  0  0
  -11.6789   -0.7891    0.0000 N   0  0  0  0  0  0  0  0  0  0  0  0
  -10.3792    1.4613    0.0000 C   0  0  0  0  0  0  0  0  0  0  0  0
  -10.3768    2.9613    0.0000 C   0  0  0  0  0  0  0  0  0  0  0  0
   -9.0766    3.7093    0.0000 C   0  0  0  0  0  0  0  0  0  0  0  0
   -7.7787    2.9573    0.0000 C   0  0  0  0  0  0  0  0  0  0  0  0
   -7.7811    1.4573    0.0000 N   0  0  0  0  0  0  0  0  0  0  0  0
   -9.0813    0.7093    0.0000 C   0  0  0  0  0  0  0  0  0  0  0  0
  -10.3776   -3.0341    0.0000 C   0  0  0  0  0  0  0  0  0  0  0  0
   -1.2990   -0.7500    0.0000 C   0  0  0  0  0  0  0  0  0  0  0  0
    0.0000   -1.5000    0.0000 C   0  0  0  0  0  0  0  0  0  0  0  0
  1  2  1  0
  2  3  1  0
  3  4  1  0
  4  5  1  0
  5  6  1  0
  6  7  1  0
  7  8  2  0
  8  9  1  0
  9 10  2  0
 10 11  1  0
 11 12  2  0
 12  7  1  0
 10 13  1  0
 13 14  2  0
 13 15  1  0
 15 16  1  0
 16 17  2  0
 17 18  1  0
 18 19  2  0
 19 20  1  0
 19 21  1  0
 21 22  1  0
 22 23  1  0
 23 24  2  0
 24 25  1  0
 25 26  2  0
 26 27  1  0
 27 28  2  0
 28 23  1  0
 27 29  1  0
 29 30  2  0
 30 31  1  0
 31 32  2  0
 32 33  1  0
 33 34  2  0
 34 29  1  0
 21 35  2  0
 35 16  1  0
  5 36  1  0
 36 37  1  0
 37  2  1  0
M  END
>  <Classification>  (16) 
1

>  <pchembl>  (16) 
7.4

>  <InChI_steorem>  (16) 
InChI=1S/C29H31N7O/c1-21-5-10-25(18-27(21)34-29-31-13-11-26(33-29)24-4-3-12-30-19-24)32-28(37)23-8-6-22(7-9-23)20-36-16-14-35(2)15-17-36/h3-13,18-19H,14-17,20H2,1-2H3,(H,32,37)(H,31,33,34)

>  <source>  (16) 
ChEMBL25

>  <source_id>  (16) 
25

>  <optional_reference>  (16) 
10.1021/jm301302s

>  <optional_origin>  (16) 
None

>  <target>  (16) 
MATE1

$$$$

     RDKit          2D

 37 41  0  0  0  0  0  0  0  0999 V2000
   -0.7141   -1.5522    0.0000 O   0  0  0  0  0  0  0  0  0  0  0  0
    4.2759    0.1311    0.0000 N   0  0  0  0  0  0  0  0  0  0  0  0
    2.5316   -0.5014    0.0000 N   0  0  0  0  0  0  0  0  0  0  0  0
    5.3731    0.1311    0.0000 N   0  0  0  0  0  0  0  0  0  0  0  0
    5.1660    0.7783    0.0000 N   0  0  0  0  0  0  0  0  0  0  0  0
   -0.0780   -0.5088    0.0000 N   0  0  0  0  0  0  0  0  0  0  0  0
    3.6720   -0.2230    0.0000 C   0  0  0  0  0  0  0  0  0  0  0  0
    2.5170    0.3492    0.0000 C   0  0  0  0  0  0  0  0  0  0  0  0
    2.8820   -1.2164    0.0000 C   0  0  0  0  0  0  0  0  0  0  0  0
    4.8225   -0.2652    0.0000 C   0  0  0  0  0  0  0  0  0  0  0  0
    3.2753    0.3492    0.0000 C   0  0  0  0  0  0  0  0  0  0  0  0
    3.4750   -0.9269    0.0000 C   0  0  0  0  0  0  0  0  0  0  0  0
    4.4829    0.7783    0.0000 C   0  0  0  0  0  0  0  0  0  0  0  0
    2.0993   -0.2328    0.0000 C   0  0  0  0  0  0  0  0  0  0  0  0
    2.2881   -0.9269    0.0000 C   0  0  0  0  0  0  0  0  0  0  0  0
    1.7482   -0.8800    0.0000 C   0  0  0  0  0  0  0  0  0  0  0  0
    4.8225   -0.9734    0.0000 C   0  0  0  0  0  0  0  0  0  0  0  0
    1.1445   -0.5265    0.0000 C   0  0  0  0  0  0  0  0  0  0  0  0
    0.5301   -0.8660    0.0000 C   0  0  0  0  0  0  0  0  0  0  0  0
    4.0684    1.3426    0.0000 C   0  0  0  0  0  0  0  0  0  0  0  0
    0.5192   -1.5700    0.0000 C   0  0  0  0  0  0  0  0  0  0  0  0
   -0.7001   -0.8482    0.0000 C   0  0  0  0  0  0  0  0  0  0  0  0
   -1.3003   -0.4800    0.0000 C   0  0  0  0  0  0  0  0  0  0  0  0
   -2.5013    0.2636    0.0000 C   0  0  0  0  0  0  0  0  0  0  0  0
    5.4336   -1.3275    0.0000 C   0  0  0  0  0  0  0  0  0  0  0  0
    4.2113   -1.3275    0.0000 C   0  0  0  0  0  0  0  0  0  0  0  0
   -1.2826    0.2318    0.0000 C   0  0  0  0  0  0  0  0  0  0  0  0
   -1.9188   -0.8122    0.0000 C   0  0  0  0  0  0  0  0  0  0  0  0
   -1.8834    0.5958    0.0000 C   0  0  0  0  0  0  0  0  0  0  0  0
   -2.5233   -0.4446    0.0000 C   0  0  0  0  0  0  0  0  0  0  0  0
   -0.1029   -1.9131    0.0000 C   0  0  0  0  0  0  0  0  0  0  0  0
    1.1231   -1.9386    0.0000 C   0  0  0  0  0  0  0  0  0  0  0  0
   -0.1133   -2.6171    0.0000 C   0  0  0  0  0  0  0  0  0  0  0  0
    1.1052   -2.6464    0.0000 C   0  0  0  0  0  0  0  0  0  0  0  0
    0.4942   -2.9816    0.0000 C   0  0  0  0  0  0  0  0  0  0  0  0
   -2.8625    0.8833    0.0000 F   0  0  0  0  0  0  0  0  0  0  0  0
   -3.2125    0.2708    0.0000 F   0  0  0  0  0  0  0  0  0  0  0  0
  7  2  1  0
  2 10  1  0
  2 13  1  0
  8  3  1  0
  9  3  1  0
  3 16  1  0
  4  5  1  0
  4 10  2  0
  5 13  2  0
 19  6  1  0
  6 22  1  0
  7 11  1  0
  7 12  1  0
  8 11  1  0
  8 14  1  0
  9 12  1  0
  9 15  1  0
 10 17  1  0
 13 20  1  0
 14 15  1  0
 16 18  1  0
 17 25  1  0
 17 26  1  0
 18 19  1  0
 19 21  1  0
 21 31  2  0
 21 32  1  0
 22 23  1  0
 23 27  1  0
 23 28  1  0
 24 29  1  0
 24 30  1  0
 27 29  1  0
 28 30  1  0
 31 33  1  0
 32 34  2  0
 33 35  2  0
 34 35  1  0
 24 36  1  0
  1 22  2  0
 24 37  1  0
M  END
>  <Classification>  (17) 
0

>  <pchembl>  (17) 
4.76

>  <InChI_steorem>  (17) 
InChI=1S/C29H41F2N5O/c1-19(2)27-34-33-20(3)36(27)25-17-23-9-10-24(18-25)35(23)16-13-26(21-7-5-4-6-8-21)32-28(37)22-11-14-29(30,31)15-12-22/h4-8,19,22-26H,9-18H2,1-3H3,(H,32,37)

>  <source>  (17) 
ChEMBL25

>  <source_id>  (17) 
25

>  <optional_reference>  (17) 
10.1021/jm301302s

>  <optional_origin>  (17) 
None

>  <target>  (17) 
MATE1

$$$$

     RDKit          2D

 31 35  0  0  0  0  0  0  0  0999 V2000
    5.2167   -4.4667    0.0000 N   0  0  0  0  0  0  0  0  0  0  0  0
    6.2542   -5.1542    0.0000 C   0  0  0  0  0  0  0  0  0  0  0  0
    4.8417   -5.0417    0.0000 C   0  0  0  0  0  0  0  0  0  0  0  0
    5.8500   -5.7542    0.0000 C   0  0  0  0  0  0  0  0  0  0  0  0
    5.9417   -4.5083    0.0000 C   0  0  0  0  0  0  0  0  0  0  0  0
    4.1417   -4.8250    0.0000 C   0  0  0  0  0  0  0  0  0  0  0  0
    5.1417   -5.7000    0.0000 C   0  0  0  0  0  0  0  0  0  0  0  0
    4.1417   -4.1167    0.0000 C   0  0  0  0  0  0  0  0  0  0  0  0
    3.5625   -5.1917    0.0000 N   0  0  0  0  0  0  0  0  0  0  0  0
    6.1667   -6.3917    0.0000 C   0  0  0  0  0  0  0  0  0  0  0  0
    2.3167   -3.7667    0.0000 C   0  0  0  0  0  0  0  0  0  0  0  0
    4.8417   -3.9042    0.0000 C   0  0  0  0  0  0  0  0  0  0  0  0
    2.9250   -4.1292    0.0000 C   0  0  0  0  0  0  0  0  0  0  0  0
    6.8750   -6.4417    0.0000 C   0  0  0  0  0  0  0  0  0  0  0  0
    3.5625   -3.7417    0.0000 C   0  0  0  0  0  0  0  0  0  0  0  0
    2.9250   -4.8250    0.0000 C   0  0  0  0  0  0  0  0  0  0  0  0
    6.9542   -5.2042    0.0000 C   0  0  0  0  0  0  0  0  0  0  0  0
    7.2667   -5.8500    0.0000 O   0  0  0  0  0  0  0  0  0  0  0  0
    1.7000   -4.1292    0.0000 C   0  0  0  0  0  0  0  0  0  0  0  0
    6.3125   -3.9167    0.0000 O   0  0  0  0  0  0  0  0  0  0  0  0
    2.3167   -3.0667    0.0000 C   0  0  0  0  0  0  0  0  0  0  0  0
    7.2500   -6.9917    0.0000 O   0  0  0  0  0  0  0  0  0  0  0  0
    2.3167   -5.1917    0.0000 C   0  0  0  0  0  0  0  0  0  0  0  0
    1.7000   -4.8250    0.0000 C   0  0  0  0  0  0  0  0  0  0  0  0
    5.4167   -6.3250    0.0000 O   0  0  0  0  0  0  0  0  0  0  0  0
    2.9167   -2.7292    0.0000 N   0  0  0  0  0  0  0  0  0  0  0  0
    6.4375   -7.0667    0.0000 C   0  0  0  0  0  0  0  0  0  0  0  0
    1.0792   -3.7667    0.0000 O   0  0  0  0  0  0  0  0  0  0  0  0
    3.5167   -3.0875    0.0000 C   0  0  0  0  0  0  0  0  0  0  0  0
    2.9167   -2.0167    0.0000 C   0  0  0  0  0  0  0  0  0  0  0  0
    6.0417   -7.6667    0.0000 C   0  0  0  0  0  0  0  0  0  0  0  0
  2  5  1  0
  3  1  1  0
  4  2  2  0
  5  1  1  0
  6  3  1  0
  7  3  2  0
  8 12  1  0
  9  6  2  0
 10  4  1  0
 11 13  2  0
 12  1  1  0
 13 15  1  0
 14 18  1  0
 15  8  2  0
 16  9  1  0
 17  2  1  0
 18 17  1  0
 19 11  1  0
 20  5  2  0
 21 11  1  0
 22 14  2  0
 23 16  2  0
 24 23  1  0
 25 10  1  0
 26 21  1  0
 10 27  1  0
 28 19  1  0
 29 26  1  0
 30 26  1  0
 31 27  1  0
  8  6  1  0
  4  7  1  0
 13 16  1  0
 10 14  1  0
 19 24  2  0
M  END
>  <Classification>  (18) 
1

>  <pchembl>  (18) 
5.89

>  <InChI_steorem>  (18) 
InChI=1S/C23H23N3O5/c1-4-23(30)16-8-18-20-12(9-26(18)21(28)15(16)11-31-22(23)29)7-13-14(10-25(2)3)19(27)6-5-17(13)24-20/h5-8,27,30H,4,9-11H2,1-3H3

>  <source>  (18) 
ChEMBL25

>  <source_id>  (18) 
25

>  <optional_reference>  (18) 
10.1021/jm301302s

>  <optional_origin>  (18) 
None

>  <target>  (18) 
MATE1

$$$$

     RDKit          2D

 43 49  0  0  0  0  0  0  0  0999 V2000
    4.1667   -6.3875    0.0000 N   0  0  0  0  0  0  0  0  0  0  0  0
    5.1667   -7.1000    0.0000 C   0  0  0  0  0  0  0  0  0  0  0  0
    3.7625   -6.9583    0.0000 C   0  0  0  0  0  0  0  0  0  0  0  0
    4.7542   -7.6750    0.0000 C   0  0  0  0  0  0  0  0  0  0  0  0
    4.8792   -6.4542    0.0000 C   0  0  0  0  0  0  0  0  0  0  0  0
    3.0917   -6.7458    0.0000 C   0  0  0  0  0  0  0  0  0  0  0  0
    3.0875   -6.0458    0.0000 C   0  0  0  0  0  0  0  0  0  0  0  0
    4.0542   -7.6042    0.0000 C   0  0  0  0  0  0  0  0  0  0  0  0
    2.4917   -7.1000    0.0000 N   0  0  0  0  0  0  0  0  0  0  0  0
    5.0375   -8.3167    0.0000 C   0  0  0  0  0  0  0  0  0  0  0  0
    3.7500   -5.8208    0.0000 C   0  0  0  0  0  0  0  0  0  0  0  0
   -0.5625   -6.0750    0.0000 C   0  0  0  0  0  0  0  0  0  0  0  0
    2.4792   -5.7042    0.0000 C   0  0  0  0  0  0  0  0  0  0  0  0
   -1.1750   -5.7208    0.0000 N   0  0  0  0  0  0  0  0  0  0  0  0
    5.7417   -8.3917    0.0000 C   0  0  0  0  0  0  0  0  0  0  0  0
    1.8792   -6.0583    0.0000 C   0  0  0  0  0  0  0  0  0  0  0  0
    1.8833   -6.7583    0.0000 C   0  0  0  0  0  0  0  0  0  0  0  0
    5.8708   -7.1708    0.0000 C   0  0  0  0  0  0  0  0  0  0  0  0
    6.1583   -7.8167    0.0000 O   0  0  0  0  0  0  0  0  0  0  0  0
   -3.0125   -4.6667    0.0000 N   0  0  0  0  0  0  0  0  0  0  0  0
    0.0500   -5.7208    0.0000 O   0  0  0  0  0  0  0  0  0  0  0  0
   -2.4042   -5.0208    0.0000 C   0  0  0  0  0  0  0  0  0  0  0  0
    5.2917   -5.8792    0.0000 O   0  0  0  0  0  0  0  0  0  0  0  0
    1.2708   -5.7125    0.0000 C   0  0  0  0  0  0  0  0  0  0  0  0
   -2.4000   -5.7292    0.0000 C   0  0  0  0  0  0  0  0  0  0  0  0
   -1.7917   -4.6625    0.0000 C   0  0  0  0  0  0  0  0  0  0  0  0
   -1.7875   -6.0792    0.0000 C   0  0  0  0  0  0  0  0  0  0  0  0
   -1.1750   -5.0167    0.0000 C   0  0  0  0  0  0  0  0  0  0  0  0
   -0.5625   -6.7833    0.0000 O   0  0  0  0  0  0  0  0  0  0  0  0
    0.6667   -6.0708    0.0000 C   0  0  0  0  0  0  0  0  0  0  0  0
    6.0333   -9.0375    0.0000 O   0  0  0  0  0  0  0  0  0  0  0  0
    1.2875   -7.1125    0.0000 C   0  0  0  0  0  0  0  0  0  0  0  0
    4.4000   -8.6125    0.0000 O   0  0  0  0  0  0  0  0  0  0  0  0
    0.6792   -6.7708    0.0000 C   0  0  0  0  0  0  0  0  0  0  0  0
    4.9708   -9.0250    0.0000 C   0  0  0  0  0  0  0  0  0  0  0  0
    2.4750   -4.9958    0.0000 C   0  0  0  0  0  0  0  0  0  0  0  0
   -3.6250   -5.0250    0.0000 C   0  0  0  0  0  0  0  0  0  0  0  0
   -3.0167   -3.9625    0.0000 C   0  0  0  0  0  0  0  0  0  0  0  0
    4.3292   -9.3208    0.0000 C   0  0  0  0  0  0  0  0  0  0  0  0
    3.0833   -4.6333    0.0000 C   0  0  0  0  0  0  0  0  0  0  0  0
   -3.6333   -3.6125    0.0000 C   0  0  0  0  0  0  0  0  0  0  0  0
   -4.2375   -4.6792    0.0000 C   0  0  0  0  0  0  0  0  0  0  0  0
   -4.2458   -3.9708    0.0000 C   0  0  0  0  0  0  0  0  0  0  0  0
  2  5  1  0
  3  1  1  0
  4  8  1  0
  5  1  1  0
  6  3  1  0
  7 11  1  0
  8  3  2  0
  9  6  2  0
 10  4  1  0
 11  1  1  0
 12 21  1  0
 13  7  2  0
 14 12  1  0
 15 10  1  0
 16 13  1  0
 17  9  1  0
 18  2  1  0
 19 18  1  0
 20 22  1  0
 21 30  1  0
 22 26  1  0
 23  5  2  0
 24 16  2  0
 25 27  1  0
 26 28  1  0
 27 14  1  0
 28 14  1  0
 29 12  2  0
 30 24  1  0
 31 15  2  0
 32 17  2  0
 33 10  1  0
 34 32  1  0
 10 35  1  0
 36 13  1  0
 37 20  1  0
 38 20  1  0
 39 35  1  0
 40 36  1  0
 41 38  1  0
 42 37  1  0
 43 41  1  0
  7  6  1  0
  4  2  2  0
 16 17  1  0
 15 19  1  0
 34 30  2  0
 22 25  1  0
 43 42  1  0
M  END
>  <Classification>  (19) 
1

>  <pchembl>  (19) 
5.37

>  <InChI_steorem>  (19) 
InChI=1S/C33H38N4O6/c1-3-22-23-16-21(43-32(40)36-14-10-20(11-15-36)35-12-6-5-7-13-35)8-9-27(23)34-29-24(22)18-37-28(29)17-26-25(30(37)38)19-42-31(39)33(26,41)4-2/h8-9,16-17,20,41H,3-7,10-15,18-19H2,1-2H3

>  <source>  (19) 
ChEMBL25

>  <source_id>  (19) 
25

>  <optional_reference>  (19) 
10.1021/jm301302s

>  <optional_origin>  (19) 
None

>  <target>  (19) 
MATE1

$$$$

     RDKit          2D

 43 50  0  0  0  0  0  0  0  0999 V2000
    8.1792   -7.9042    0.0000 C   0  0  0  0  0  0  0  0  0  0  0  0
    7.9667   -8.5625    0.0000 N   0  0  0  0  0  0  0  0  0  0  0  0
    7.6000   -7.4750    0.0000 O   0  0  0  0  0  0  0  0  0  0  0  0
    7.0250   -7.9000    0.0000 C   0  0  0  0  0  0  0  0  0  0  0  0
    7.2542   -8.5625    0.0000 C   0  0  0  0  0  0  0  0  0  0  0  0
    9.1125   -8.9375    0.0000 C   0  0  0  0  0  0  0  0  0  0  0  0
    8.4292   -9.0750    0.0000 C   0  0  0  0  0  0  0  0  0  0  0  0
    9.3250   -8.2750    0.0000 N   0  0  0  0  0  0  0  0  0  0  0  0
    5.1875   -9.7000    0.0000 C   0  0  0  0  0  0  0  0  0  0  0  0
    5.1875  -11.1250    0.0000 C   0  0  0  0  0  0  0  0  0  0  0  0
    8.8625   -7.7625    0.0000 C   0  0  0  0  0  0  0  0  0  0  0  0
    5.8042  -10.0542    0.0000 C   0  0  0  0  0  0  0  0  0  0  0  0
    4.5750  -10.0625    0.0000 C   0  0  0  0  0  0  0  0  0  0  0  0
    6.4167   -7.5750    0.0000 N   0  0  0  0  0  0  0  0  0  0  0  0
    6.4167   -9.7000    0.0000 N   0  0  0  0  0  0  0  0  0  0  0  0
    5.8042   -8.6375    0.0000 C   0  0  0  0  0  0  0  0  0  0  0  0
    4.5750  -10.7625    0.0000 C   0  0  0  0  0  0  0  0  0  0  0  0
    5.8042   -7.9292    0.0000 C   0  0  0  0  0  0  0  0  0  0  0  0
    5.8042  -10.7625    0.0000 C   0  0  0  0  0  0  0  0  0  0  0  0
    5.1875   -8.9917    0.0000 C   0  0  0  0  0  0  0  0  0  0  0  0
    4.8917  -11.8375    0.0000 C   0  0  0  0  0  0  0  0  0  0  0  0
    4.1875  -11.8375    0.0000 N   0  0  0  0  0  0  0  0  0  0  0  0
    6.4167   -8.9917    0.0000 C   0  0  0  0  0  0  0  0  0  0  0  0
    3.9542  -11.1250    0.0000 C   0  0  0  0  0  0  0  0  0  0  0  0
    8.0750   -9.7000    0.0000 C   0  0  0  0  0  0  0  0  0  0  0  0
    9.5875   -9.4625    0.0000 O   0  0  0  0  0  0  0  0  0  0  0  0
    8.3625   -7.2167    0.0000 O   0  0  0  0  0  0  0  0  0  0  0  0
    6.8417   -9.1375    0.0000 O   0  0  0  0  0  0  0  0  0  0  0  0
    5.1875   -7.5750    0.0000 O   0  0  0  0  0  0  0  0  0  0  0  0
    9.9500   -7.9917    0.0000 C   0  0  0  0  0  0  0  0  0  0  0  0
    7.0250   -7.1000    0.0000 C   0  0  0  0  0  0  0  0  0  0  0  0
    3.9542   -9.7000    0.0000 C   0  0  0  0  0  0  0  0  0  0  0  0
    7.0292  -10.0542    0.0000 C   0  0  0  0  0  0  0  0  0  0  0  0
    8.4250  -10.3125    0.0000 C   0  0  0  0  0  0  0  0  0  0  0  0
    9.2000   -7.1625    0.0000 C   0  0  0  0  0  0  0  0  0  0  0  0
    9.8792   -7.3042    0.0000 C   0  0  0  0  0  0  0  0  0  0  0  0
    3.3417  -10.0625    0.0000 C   0  0  0  0  0  0  0  0  0  0  0  0
    3.3417  -10.7625    0.0000 C   0  0  0  0  0  0  0  0  0  0  0  0
    8.0750  -10.9250    0.0000 C   0  0  0  0  0  0  0  0  0  0  0  0
    9.1375  -10.3125    0.0000 C   0  0  0  0  0  0  0  0  0  0  0  0
    9.4875  -10.9250    0.0000 C   0  0  0  0  0  0  0  0  0  0  0  0
    8.4250  -11.5375    0.0000 C   0  0  0  0  0  0  0  0  0  0  0  0
    9.1375  -11.5375    0.0000 C   0  0  0  0  0  0  0  0  0  0  0  0
  2  1  1  0
  3  1  1  0
  4  3  1  0
  5  2  1  0
  6  8  1  0
  7  2  1  0
  8 11  1  0
  9 20  1  0
 10 19  1  0
 11  1  1  0
 12 15  1  0
 13  9  1  0
 14  4  1  0
 15 23  1  0
 16 18  1  0
 17 13  2  0
 18 14  1  0
 19 12  1  0
 20 16  1  0
 21 10  2  0
 22 24  1  0
 23 16  1  0
 24 17  1  0
  7 25  1  0
 26  6  2  0
  1 27  1  0
 28  5  2  0
 29 18  2  0
 30  8  1  0
  4 31  1  0
 32 13  1  0
 33 15  1  0
 34 25  1  0
 35 11  1  0
 36 35  1  0
 37 32  2  0
 38 37  1  0
 39 34  2  0
 40 34  1  0
 41 40  2  0
 42 39  1  0
 43 41  1  0
  6  7  1  0
  5  4  1  0
 36 30  1  0
 43 42  2  0
 12  9  1  0
 10 17  1  0
 38 24  2  0
 21 22  1  0
M  END
>  <Classification>  (20) 
1

>  <pchembl>  (20) 
5.55

>  <InChI_steorem>  (20) 
InChI=1S/C33H37N5O5/c1-32(35-29(39)21-15-23-22-10-6-11-24-28(22)20(17-34-24)16-25(23)36(2)18-21)31(41)38-26(14-19-8-4-3-5-9-19)30(40)37-13-7-12-27(37)33(38,42)43-32/h3-6,8-11,17,21,23,25-27,34,42H,7,12-16,18H2,1-2H3,(H,35,39)

>  <source>  (20) 
ChEMBL25

>  <source_id>  (20) 
25

>  <optional_reference>  (20) 
10.1021/jm301302s

>  <optional_origin>  (20) 
None

>  <target>  (20) 
MATE1

$$$$

     RDKit          2D

 11 13  0  0  0  0  0  0  0  0999 V2000
   -1.9375    0.4708    0.0000 C   0  0  0  0  0  0  0  0  0  0  0  0
   -2.4125   -0.8417    0.0000 C   0  0  0  0  0  0  0  0  0  0  0  0
   -1.3000   -0.5042    0.0000 C   0  0  0  0  0  0  0  0  0  0  0  0
   -2.5583   -0.4417    0.0000 C   0  0  0  0  0  0  0  0  0  0  0  0
   -2.4208   -0.1125    0.0000 C   0  0  0  0  0  0  0  0  0  0  0  0
   -1.3000    0.1958    0.0000 C   0  0  0  0  0  0  0  0  0  0  0  0
   -2.5625    0.2458    0.0000 C   0  0  0  0  0  0  0  0  0  0  0  0
   -1.9250    1.1708    0.0000 N   0  0  0  0  0  0  0  0  0  0  0  0
   -1.7708   -1.1000    0.0000 C   0  0  0  0  0  0  0  0  0  0  0  0
   -3.1125   -1.0292    0.0000 C   0  0  0  0  0  0  0  0  0  0  0  0
   -1.9375   -0.6667    0.0000 C   0  0  0  0  0  0  0  0  0  0  0  0
  2  5  1  0
  3  6  1  0
  4  7  1  0
  5  1  1  0
  6  1  1  0
  7  1  1  0
  8  1  1  0
  9  3  1  0
 10  4  1  0
 11  4  1  0
  3 11  1  0
  2 10  1  0
  2  9  1  0
M  END
>  <Classification>  (21) 
0

>  <pchembl>  (21) 
4.42

>  <InChI_steorem>  (21) 
InChI=1S/C10H17N/c11-10-4-7-1-8(5-10)3-9(2-7)6-10/h7-9H,1-6,11H2

>  <source>  (21) 
ChEMBL25

>  <source_id>  (21) 
25

>  <optional_reference>  (21) 
10.1021/jm301302s

>  <optional_origin>  (21) 
None

>  <target>  (21) 
MATE1

$$$$

     RDKit          2D

 28 31  0  0  0  0  0  0  0  0999 V2000
    0.9375   -1.9792    0.0000 C   0  0  0  0  0  0  0  0  0  0  0  0
    0.9292   -2.6917    0.0000 N   0  0  0  0  0  0  0  0  0  0  0  0
   -0.3208   -2.6750    0.0000 C   0  0  0  0  0  0  0  0  0  0  0  0
    0.2875   -3.0417    0.0000 C   0  0  0  0  0  0  0  0  0  0  0  0
    0.3042   -1.6167    0.0000 N   0  0  0  0  0  0  0  0  0  0  0  0
   -0.3208   -1.9625    0.0000 C   0  0  0  0  0  0  0  0  0  0  0  0
    3.3917   -0.5917    0.0000 C   0  0  0  0  0  0  0  0  0  0  0  0
    1.5542   -1.6417    0.0000 N   0  0  0  0  0  0  0  0  0  0  0  0
    2.7792   -0.9542    0.0000 N   0  0  0  0  0  0  0  0  0  0  0  0
   -0.9500   -3.0167    0.0000 C   0  0  0  0  0  0  0  0  0  0  0  0
    4.0125   -0.9292    0.0000 C   0  0  0  0  0  0  0  0  0  0  0  0
   -0.9250   -1.5917    0.0000 C   0  0  0  0  0  0  0  0  0  0  0  0
   -1.5833   -2.6542    0.0000 C   0  0  0  0  0  0  0  0  0  0  0  0
   -1.5708   -1.9417    0.0000 C   0  0  0  0  0  0  0  0  0  0  0  0
    4.2417   -1.5917    0.0000 O   0  0  0  0  0  0  0  0  0  0  0  0
    1.5417   -0.9500    0.0000 C   0  0  0  0  0  0  0  0  0  0  0  0
    2.1667   -2.0000    0.0000 C   0  0  0  0  0  0  0  0  0  0  0  0
    2.1667   -0.5792    0.0000 C   0  0  0  0  0  0  0  0  0  0  0  0
    2.7792   -1.6375    0.0000 C   0  0  0  0  0  0  0  0  0  0  0  0
    3.4042    0.0875    0.0000 O   0  0  0  0  0  0  0  0  0  0  0  0
    4.5792   -0.5125    0.0000 C   0  0  0  0  0  0  0  0  0  0  0  0
    4.9417   -1.5917    0.0000 C   0  0  0  0  0  0  0  0  0  0  0  0
    5.1542   -0.9292    0.0000 C   0  0  0  0  0  0  0  0  0  0  0  0
    0.2667   -3.7542    0.0000 N   0  0  0  0  0  0  0  0  0  0  0  0
   -2.2000   -2.9917    0.0000 O   0  0  0  0  0  0  0  0  0  0  0  0
   -2.1833   -1.5792    0.0000 O   0  0  0  0  0  0  0  0  0  0  0  0
   -2.7958   -1.9125    0.0000 C   0  0  0  0  0  0  0  0  0  0  0  0
   -2.7958   -2.6542    0.0000 C   0  0  0  0  0  0  0  0  0  0  0  0
  2  1  2  0
  3  6  1  0
  4  2  1  0
  5  1  1  0
  6  5  2  0
  7  9  1  0
  8  1  1  0
  9 19  1  0
 10  3  1  0
 11  7  1  0
 12  6  1  0
 13 14  1  0
 14 12  2  0
 15 11  1  0
 16  8  1  0
 17  8  1  0
 18 16  1  0
 19 17  1  0
 20  7  2  0
 21 11  2  0
 22 15  1  0
 23 21  1  0
 24  4  1  0
 25 13  1  0
 26 14  1  0
 27 26  1  0
 28 25  1  0
  3  4  2  0
  9 18  1  0
 10 13  2  0
 22 23  2  0
M  END
>  <Classification>  (22) 
1

>  <pchembl>  (22) 
5.8

>  <InChI_steorem>  (22) 
InChI=1S/C19H21N5O4/c1-26-15-10-12-13(11-16(15)27-2)21-19(22-17(12)20)24-7-5-23(6-8-24)18(25)14-4-3-9-28-14/h3-4,9-11H,5-8H2,1-2H3,(H2,20,21,22)

>  <source>  (22) 
ChEMBL25

>  <source_id>  (22) 
25

>  <optional_reference>  (22) 
10.1021/jm301302s

>  <optional_origin>  (22) 
None

>  <target>  (22) 
MATE1

$$$$

     RDKit          2D

 32 34  0  0  0  0  0  0  0  0999 V2000
    3.7667   -0.4542    0.0000 C   0  0  0  0  0  0  0  0  0  0  0  0
    3.7667   -1.1667    0.0000 C   0  0  0  0  0  0  0  0  0  0  0  0
    2.5292   -0.4542    0.0000 C   0  0  0  0  0  0  0  0  0  0  0  0
    2.5292   -1.1667    0.0000 C   0  0  0  0  0  0  0  0  0  0  0  0
    3.1500   -0.0958    0.0000 C   0  0  0  0  0  0  0  0  0  0  0  0
    3.1500   -1.5292    0.0000 C   0  0  0  0  0  0  0  0  0  0  0  0
    4.3792   -1.5292    0.0000 C   0  0  0  0  0  0  0  0  0  0  0  0
    4.3792   -0.0958    0.0000 C   0  0  0  0  0  0  0  0  0  0  0  0
    1.9167   -0.0958    0.0000 C   0  0  0  0  0  0  0  0  0  0  0  0
    1.9167   -1.5292    0.0000 C   0  0  0  0  0  0  0  0  0  0  0  0
    3.1500    0.6083    0.0000 O   0  0  0  0  0  0  0  0  0  0  0  0
    3.1500   -2.2375    0.0000 O   0  0  0  0  0  0  0  0  0  0  0  0
    4.9917   -0.4542    0.0000 C   0  0  0  0  0  0  0  0  0  0  0  0
    4.9917   -1.1667    0.0000 C   0  0  0  0  0  0  0  0  0  0  0  0
    1.3042   -0.4542    0.0000 C   0  0  0  0  0  0  0  0  0  0  0  0
    1.3042   -1.1667    0.0000 C   0  0  0  0  0  0  0  0  0  0  0  0
    4.3792    0.6083    0.0000 N   0  0  0  0  0  0  0  0  0  0  0  0
    4.3792   -2.2375    0.0000 N   0  0  0  0  0  0  0  0  0  0  0  0
    1.9167    0.6083    0.0000 O   0  0  0  0  0  0  0  0  0  0  0  0
    1.9167   -2.2375    0.0000 O   0  0  0  0  0  0  0  0  0  0  0  0
    6.2292    0.9625    0.0000 N   0  0  0  0  0  0  0  0  0  0  0  0
    6.2292   -2.5917    0.0000 N   0  0  0  0  0  0  0  0  0  0  0  0
    8.0750   -2.2375    0.0000 O   0  0  0  0  0  0  0  0  0  0  0  0
    8.0750    0.6083    0.0000 O   0  0  0  0  0  0  0  0  0  0  0  0
    4.9917    0.9625    0.0000 C   0  0  0  0  0  0  0  0  0  0  0  0
    4.9917   -2.5917    0.0000 C   0  0  0  0  0  0  0  0  0  0  0  0
    5.6125   -2.2375    0.0000 C   0  0  0  0  0  0  0  0  0  0  0  0
    5.6125    0.6083    0.0000 C   0  0  0  0  0  0  0  0  0  0  0  0
    6.8417   -2.2375    0.0000 C   0  0  0  0  0  0  0  0  0  0  0  0
    6.8417    0.6083    0.0000 C   0  0  0  0  0  0  0  0  0  0  0  0
    7.4625   -2.5917    0.0000 C   0  0  0  0  0  0  0  0  0  0  0  0
    7.4625    0.9625    0.0000 C   0  0  0  0  0  0  0  0  0  0  0  0
  2  1  2  0
  3  5  1  0
  4  3  2  0
  5  1  1  0
  6  2  1  0
  7  2  1  0
  8  1  1  0
  9  3  1  0
 10  4  1  0
 11  5  2  0
 12  6  2  0
 13  8  2  0
 14 13  1  0
 15  9  2  0
 16 15  1  0
 17  8  1  0
 18  7  1  0
 19  9  1  0
 20 10  1  0
 21 28  1  0
 22 27  1  0
 23 31  1  0
 24 32  1  0
 25 17  1  0
 26 18  1  0
 27 26  1  0
 28 25  1  0
 29 22  1  0
 30 21  1  0
 31 29  1  0
 32 30  1  0
  4  6  1  0
 14  7  2  0
 16 10  2  0
M  END
>  <Classification>  (23) 
1

>  <pchembl>  (23) 
6.72

>  <InChI_steorem>  (23) 
InChI=1S/C22H28N4O6/c27-11-9-23-5-7-25-13-1-2-14(26-8-6-24-10-12-28)18-17(13)21(31)19-15(29)3-4-16(30)20(19)22(18)32/h1-4,23-30H,5-12H2

>  <source>  (23) 
ChEMBL25

>  <source_id>  (23) 
25

>  <optional_reference>  (23) 
10.1021/jm301302s

>  <optional_origin>  (23) 
None

>  <target>  (23) 
MATE1

$$$$

     RDKit          2D

 13 15  0  0  0  0  0  0  0  0999 V2000
    2.0529    0.8485    0.0000 C   0  0  0  0  0  0  0  0  0  0  0  0
    2.0529    0.0000    0.0000 C   0  0  0  0  0  0  0  0  0  0  0  0
    2.6551    1.5739    0.0000 C   0  0  0  0  0  0  0  0  0  0  0  0
    1.4234   -0.3148    0.0000 C   0  0  0  0  0  0  0  0  0  0  0  0
    1.9571    1.2454    0.0000 C   0  0  0  0  0  0  0  0  0  0  0  0
    1.9571    0.3148    0.0000 C   0  0  0  0  0  0  0  0  0  0  0  0
    3.3667    1.2454    0.0000 C   0  0  0  0  0  0  0  0  0  0  0  0
    3.3667    0.3148    0.0000 C   0  0  0  0  0  0  0  0  0  0  0  0
    2.8603   -0.3148    0.0000 C   0  0  0  0  0  0  0  0  0  0  0  0
    2.7645    0.0137    0.0000 C   0  0  0  0  0  0  0  0  0  0  0  0
    1.1977    0.6373    0.0000 C   0  0  0  0  0  0  0  0  0  0  0  0
    1.1169    1.2946    0.0000 C   0  0  0  0  0  0  0  0  0  0  0  0
    0.6688    0.2388    0.0000 N   0  0  0  0  0  0  0  0  0  0  0  0
  1  2  1  0
  1  3  1  0
  2  4  1  0
  3  5  1  0
  4  6  1  0
  5  6  1  0
  3  7  1  0
  7  8  1  0
  2  9  1  0
  8  9  1  0
  6 10  1  0
  8 10  1  0
  6 11  1  0
 11 12  1  0
 11 13  1  0
M  END
>  <Classification>  (24) 
1

>  <pchembl>  (24) 
5.14

>  <InChI_steorem>  (24) 
InChI=1S/C12H21N/c1-8(13)12-5-9-2-10(6-12)4-11(3-9)7-12/h8-11H,2-7,13H2,1H3

>  <source>  (24) 
ChEMBL25

>  <source_id>  (24) 
25

>  <optional_reference>  (24) 
10.1021/jm301302s

>  <optional_origin>  (24) 
None

>  <target>  (24) 
MATE1

$$$$

     RDKit          2D

 28 31  0  0  0  0  0  0  0  0999 V2000
    3.1292   -5.0917    0.0000 N   0  0  0  0  0  0  0  0  0  0  0  0
    2.7792   -4.4792    0.0000 C   0  0  0  0  0  0  0  0  0  0  0  0
    2.7625   -5.7042    0.0000 C   0  0  0  0  0  0  0  0  0  0  0  0
    8.1417   -3.9292    0.0000 C   0  0  0  0  0  0  0  0  0  0  0  0
    7.4292   -3.9417    0.0000 N   0  0  0  0  0  0  0  0  0  0  0  0
    1.7000   -5.0917    0.0000 C   0  0  0  0  0  0  0  0  0  0  0  0
    2.0667   -4.4750    0.0000 C   0  0  0  0  0  0  0  0  0  0  0  0
    2.0500   -5.7125    0.0000 C   0  0  0  0  0  0  0  0  0  0  0  0
    6.0042   -3.9292    0.0000 N   0  0  0  0  0  0  0  0  0  0  0  0
    8.4917   -4.5625    0.0000 N   0  0  0  0  0  0  0  0  0  0  0  0
    8.5125   -3.3167    0.0000 N   0  0  0  0  0  0  0  0  0  0  0  0
    3.1625   -3.8625    0.0000 O   0  0  0  0  0  0  0  0  0  0  0  0
    3.1167   -6.3417    0.0000 O   0  0  0  0  0  0  0  0  0  0  0  0
    7.0792   -3.3167    0.0000 C   0  0  0  0  0  0  0  0  0  0  0  0
    7.0625   -4.5417    0.0000 C   0  0  0  0  0  0  0  0  0  0  0  0
    6.3667   -3.3042    0.0000 C   0  0  0  0  0  0  0  0  0  0  0  0
    6.3542   -4.5417    0.0000 C   0  0  0  0  0  0  0  0  0  0  0  0
    3.8417   -5.1042    0.0000 C   0  0  0  0  0  0  0  0  0  0  0  0
    9.5750   -3.9625    0.0000 C   0  0  0  0  0  0  0  0  0  0  0  0
    5.2792   -3.9417    0.0000 C   0  0  0  0  0  0  0  0  0  0  0  0
    9.2042   -4.5750    0.0000 C   0  0  0  0  0  0  0  0  0  0  0  0
    9.2167   -3.3417    0.0000 C   0  0  0  0  0  0  0  0  0  0  0  0
    1.2792   -4.5167    0.0000 C   0  0  0  0  0  0  0  0  0  0  0  0
    1.2750   -5.6542    0.0000 C   0  0  0  0  0  0  0  0  0  0  0  0
    4.2167   -4.5000    0.0000 C   0  0  0  0  0  0  0  0  0  0  0  0
    4.9167   -4.5000    0.0000 C   0  0  0  0  0  0  0  0  0  0  0  0
    0.6125   -4.7292    0.0000 C   0  0  0  0  0  0  0  0  0  0  0  0
    0.6125   -5.4250    0.0000 C   0  0  0  0  0  0  0  0  0  0  0  0
  2  1  1  0
  3  1  1  0
  4  5  1  0
  5 15  1  0
  6  8  1  0
  7  2  1  0
  8  3  1  0
  9 20  1  0
 10  4  2  0
 11  4  1  0
 12  2  2  0
 13  3  2  0
 14 16  1  0
 15 17  1  0
 16  9  1  0
 17  9  1  0
 18  1  1  0
 19 22  1  0
 20 26  1  0
 21 10  1  0
 22 11  2  0
 23  6  1  0
 24  6  1  0
 25 18  1  0
 26 25  1  0
 27 23  1  0
 28 24  1  0
  6  7  1  0
 28 27  1  0
  5 14  1  0
 19 21  2  0
M  END
>  <Classification>  (25) 
1

>  <pchembl>  (25) 
5.77

>  <InChI_steorem>  (25) 
InChI=1S/C21H31N5O2/c27-18-16-21(6-1-2-7-21)17-19(28)26(18)11-4-3-10-24-12-14-25(15-13-24)20-22-8-5-9-23-20/h5,8-9H,1-4,6-7,10-17H2

>  <source>  (25) 
ChEMBL25

>  <source_id>  (25) 
25

>  <optional_reference>  (25) 
10.1021/jm301302s

>  <optional_origin>  (25) 
None

>  <target>  (25) 
MATE1

$$$$

     RDKit          2D

 19 22  0  0  0  0  0  0  0  0999 V2000
    5.9000   -0.9542    0.0000 N   0  0  0  0  0  0  0  0  0  0  0  0
    6.6042   -1.1042    0.0000 C   0  0  0  0  0  0  0  0  0  0  0  0
    5.8250   -0.2417    0.0000 C   0  0  0  0  0  0  0  0  0  0  0  0
    6.4833    0.0542    0.0000 N   0  0  0  0  0  0  0  0  0  0  0  0
    5.3458   -1.4083    0.0000 C   0  0  0  0  0  0  0  0  0  0  0  0
    6.9208   -1.7500    0.0000 C   0  0  0  0  0  0  0  0  0  0  0  0
    6.9667   -0.4833    0.0000 C   0  0  0  0  0  0  0  0  0  0  0  0
    5.3458   -2.1208    0.0000 C   0  0  0  0  0  0  0  0  0  0  0  0
    6.6125   -2.4000    0.0000 C   0  0  0  0  0  0  0  0  0  0  0  0
    5.9125   -2.5667    0.0000 C   0  0  0  0  0  0  0  0  0  0  0  0
    5.2042    0.1125    0.0000 N   0  0  0  0  0  0  0  0  0  0  0  0
    4.7333   -1.0542    0.0000 C   0  0  0  0  0  0  0  0  0  0  0  0
    7.6292   -1.6875    0.0000 C   0  0  0  0  0  0  0  0  0  0  0  0
    4.7333   -2.4750    0.0000 C   0  0  0  0  0  0  0  0  0  0  0  0
    7.0208   -2.9875    0.0000 C   0  0  0  0  0  0  0  0  0  0  0  0
    4.1208   -1.4125    0.0000 C   0  0  0  0  0  0  0  0  0  0  0  0
    8.0417   -2.2750    0.0000 C   0  0  0  0  0  0  0  0  0  0  0  0
    7.7375   -2.9292    0.0000 C   0  0  0  0  0  0  0  0  0  0  0  0
    4.1208   -2.1208    0.0000 C   0  0  0  0  0  0  0  0  0  0  0  0
  2  1  1  0
  3  1  1  0
  4  3  2  0
  5  1  1  0
  6  2  1  0
  7  2  1  0
  8  5  2  0
  9  6  2  0
 10  8  1  0
 11  3  1  0
 12  5  1  0
 13  6  1  0
 14  8  1  0
 15  9  1  0
 16 12  2  0
 17 13  2  0
 18 17  1  0
 19 14  2  0
  4  7  1  0
  9 10  1  0
 19 16  1  0
 18 15  2  0
M  END
>  <Classification>  (26) 
1

>  <pchembl>  (26) 
5.96

>  <InChI_steorem>  (26) 
InChI=1S/C16H15N3/c17-16-18-10-15-13-7-3-1-5-11(13)9-12-6-2-4-8-14(12)19(15)16/h1-8,15H,9-10H2,(H2,17,18)

>  <source>  (26) 
ChEMBL25

>  <source_id>  (26) 
25

>  <optional_reference>  (26) 
10.1021/jm301302s

>  <optional_origin>  (26) 
None

>  <target>  (26) 
MATE1

$$$$

     RDKit          2D

 14 15  0  0  0  0  0  0  0  0999 V2000
    4.5589  -20.2334    0.0000 C   0  0  0  0  0  0  0  0  0  0  0  0
    3.1324  -20.2334    0.0000 C   0  0  0  0  0  0  0  0  0  0  0  0
    3.8457  -19.8205    0.0000 N   0  0  0  0  0  0  0  0  0  0  0  0
    5.3097  -19.8956    0.0000 N   0  0  0  0  0  0  0  0  0  0  0  0
    4.6465  -21.0510    0.0000 N   0  0  0  0  0  0  0  0  0  0  0  0
    3.1324  -21.0593    0.0000 C   0  0  0  0  0  0  0  0  0  0  0  0
    2.4108  -19.8205    0.0000 C   0  0  0  0  0  0  0  0  0  0  0  0
    2.4108  -18.9946    0.0000 Cl  0  0  0  0  0  0  0  0  0  0  0  0
    3.8457  -21.4722    0.0000 Cl  0  0  0  0  0  0  0  0  0  0  0  0
    5.8644  -20.5087    0.0000 C   0  0  0  0  0  0  0  0  0  0  0  0
    5.4514  -21.2219    0.0000 C   0  0  0  0  0  0  0  0  0  0  0  0
    1.6976  -21.0593    0.0000 C   0  0  0  0  0  0  0  0  0  0  0  0
    1.6976  -20.2334    0.0000 C   0  0  0  0  0  0  0  0  0  0  0  0
    2.4108  -21.4722    0.0000 C   0  0  0  0  0  0  0  0  0  0  0  0
  2  3  1  0
  3  1  1  0
  4  1  2  0
  5  1  1  0
  6  2  2  0
  7  2  1  0
  8  7  1  0
  9  6  1  0
 10  4  1  0
 11  5  1  0
 12 13  1  0
 13  7  2  0
 14  6  1  0
 10 11  1  0
 14 12  2  0
M  END
>  <Classification>  (27) 
0

>  <pchembl>  (27) 
4.48

>  <InChI_steorem>  (27) 
InChI=1S/C9H9Cl2N3/c10-6-2-1-3-7(11)8(6)14-9-12-4-5-13-9/h1-3H,4-5H2,(H2,12,13,14)

>  <source>  (27) 
ChEMBL25

>  <source_id>  (27) 
25

>  <optional_reference>  (27) 
10.1021/jm301302s

>  <optional_origin>  (27) 
None

>  <target>  (27) 
MATE1

$$$$

     RDKit          2D

 20 21  0  0  0  0  0  0  0  0999 V2000
    0.2583   -3.5917    0.0000 C   0  0  0  0  0  0  0  0  0  0  0  0
    0.8833   -3.2250    0.0000 C   0  0  0  0  0  0  0  0  0  0  0  0
    0.2583   -4.2917    0.0000 C   0  0  0  0  0  0  0  0  0  0  0  0
    0.8833   -2.5417    0.0000 C   0  0  0  0  0  0  0  0  0  0  0  0
    1.4875   -3.5792    0.0000 O   0  0  0  0  0  0  0  0  0  0  0  0
    3.3208   -3.2375    0.0000 N   0  0  0  0  0  0  0  0  0  0  0  0
    2.1000   -3.2250    0.0000 C   0  0  0  0  0  0  0  0  0  0  0  0
   -0.3625   -3.2292    0.0000 C   0  0  0  0  0  0  0  0  0  0  0  0
    2.7167   -3.5750    0.0000 C   0  0  0  0  0  0  0  0  0  0  0  0
    0.8917   -4.6500    0.0000 C   0  0  0  0  0  0  0  0  0  0  0  0
   -0.3458   -4.6500    0.0000 C   0  0  0  0  0  0  0  0  0  0  0  0
    1.4792   -2.1667    0.0000 C   0  0  0  0  0  0  0  0  0  0  0  0
    0.2542   -2.1667    0.0000 C   0  0  0  0  0  0  0  0  0  0  0  0
    3.9375   -3.5750    0.0000 C   0  0  0  0  0  0  0  0  0  0  0  0
    3.3208   -2.5208    0.0000 C   0  0  0  0  0  0  0  0  0  0  0  0
   -0.9625   -3.5792    0.0000 C   0  0  0  0  0  0  0  0  0  0  0  0
    1.4792   -1.4583    0.0000 C   0  0  0  0  0  0  0  0  0  0  0  0
   -0.9625   -4.3083    0.0000 C   0  0  0  0  0  0  0  0  0  0  0  0
    0.2542   -1.4542    0.0000 C   0  0  0  0  0  0  0  0  0  0  0  0
    0.8625   -1.1083    0.0000 C   0  0  0  0  0  0  0  0  0  0  0  0
  2  1  1  0
  3  1  2  0
  4  2  1  0
  5  2  1  0
  6  9  1  0
  7  5  1  0
  8  1  1  0
  9  7  1  0
 10  3  1  0
 11  3  1  0
 12  4  2  0
 13  4  1  0
 14  6  1  0
 15  6  1  0
 16  8  2  0
 17 12  1  0
 18 16  1  0
 19 13  2  0
 20 19  1  0
 18 11  2  0
 20 17  2  0
M  END
>  <Classification>  (28) 
0

>  <pchembl>  (28) 
4.19

>  <InChI_steorem>  (28) 
InChI=1S/C18H23NO/c1-15-9-7-8-12-17(15)18(20-14-13-19(2)3)16-10-5-4-6-11-16/h4-12,18H,13-14H2,1-3H3

>  <source>  (28) 
ChEMBL25

>  <source_id>  (28) 
25

>  <optional_reference>  (28) 
10.1021/jm2001629

>  <optional_origin>  (28) 
None

>  <target>  (28) 
MATE1

$$$$

     RDKit          2D

 22 25  0  0  0  0  0  0  0  0999 V2000
    3.1316   -3.0987    0.0000 O   0  0  0  0  0  0  0  0  0  0  0  0
    1.6382   -0.7829    0.0000 N   0  0  0  0  0  0  0  0  0  0  0  0
    5.2763   -1.8684    0.0000 N   0  0  0  0  0  0  0  0  0  0  0  0
    6.1710   -0.8750    0.0000 N   0  0  0  0  0  0  0  0  0  0  0  0
    2.4276   -1.8684    0.0000 C   0  0  0  0  0  0  0  0  0  0  0  0
    2.4276   -1.0460    0.0000 C   0  0  0  0  0  0  0  0  0  0  0  0
    1.6382   -2.1184    0.0000 C   0  0  0  0  0  0  0  0  0  0  0  0
    1.1513   -1.4539    0.0000 C   0  0  0  0  0  0  0  0  0  0  0  0
    3.1316   -2.2763    0.0000 C   0  0  0  0  0  0  0  0  0  0  0  0
    3.8487   -1.8684    0.0000 C   0  0  0  0  0  0  0  0  0  0  0  0
    3.1316   -0.6250    0.0000 C   0  0  0  0  0  0  0  0  0  0  0  0
    1.3026   -2.8750    0.0000 C   0  0  0  0  0  0  0  0  0  0  0  0
    3.8487   -1.0460    0.0000 C   0  0  0  0  0  0  0  0  0  0  0  0
    0.3289   -1.5395    0.0000 C   0  0  0  0  0  0  0  0  0  0  0  0
    4.5592   -2.2763    0.0000 C   0  0  0  0  0  0  0  0  0  0  0  0
    1.3816    0.0000    0.0000 C   0  0  0  0  0  0  0  0  0  0  0  0
    0.4802   -2.9605    0.0000 C   0  0  0  0  0  0  0  0  0  0  0  0
    0.0000   -2.2961    0.0000 C   0  0  0  0  0  0  0  0  0  0  0  0
    5.3684   -1.0460    0.0000 C   0  0  0  0  0  0  0  0  0  0  0  0
    6.0329   -2.1974    0.0000 C   0  0  0  0  0  0  0  0  0  0  0  0
    6.5789   -1.5921    0.0000 C   0  0  0  0  0  0  0  0  0  0  0  0
    4.7500   -0.4868    0.0000 C   0  0  0  0  0  0  0  0  0  0  0  0
  1  9  2  0
  2  6  1  0
  2  8  1  0
  2 16  1  0
  3 15  1  0
  3 19  1  0
  3 20  1  0
  4 19  2  0
  4 21  1  0
  5  6  2  0
  5  7  1  0
  5  9  1  0
  6 11  1  0
  7  8  2  0
  7 12  1  0
  8 14  1  0
  9 10  1  0
 10 13  1  0
 10 15  1  0
 11 13  1  0
 12 17  2  0
 14 18  2  0
 17 18  1  0
 19 22  1  0
 20 21  2  0
M  END
>  <Classification>  (29) 
1

>  <pchembl>  (29) 
6.82

>  <InChI_steorem>  (29) 
InChI=1S/C18H19N3O/c1-12-19-9-10-21(12)11-13-7-8-16-17(18(13)22)14-5-3-4-6-15(14)20(16)2/h3-6,9-10,13H,7-8,11H2,1-2H3

>  <source>  (29) 
ChEMBL25

>  <source_id>  (29) 
25

>  <optional_reference>  (29) 
10.1021/jm2001629

>  <optional_origin>  (29) 
None

>  <target>  (29) 
MATE1

$$$$

     RDKit          2D

 23 23  0  0  0  0  0  0  0  0999 V2000
    6.6366    0.8429    0.0000 O   0  0  0  0  0  0  0  0  0  0  0  0
    3.7788   -1.6321    0.0000 O   0  0  0  0  0  0  0  0  0  0  0  0
    3.0643   -0.3946    0.0000 O   0  0  0  0  0  0  0  0  0  0  0  0
    7.3511   -0.3946    0.0000 O   0  0  0  0  0  0  0  0  0  0  0  0
   11.6379    0.4304    0.0000 N   0  0  0  0  0  0  0  0  0  0  0  0
   13.0669    0.4304    0.0000 N   0  0  0  0  0  0  0  0  0  0  0  0
   12.3524    1.6679    0.0000 N   0  0  0  0  0  0  0  0  0  0  0  0
    4.4932   -0.3946    0.0000 C   0  0  0  0  0  0  0  0  0  0  0  0
    5.9222    0.4304    0.0000 C   0  0  0  0  0  0  0  0  0  0  0  0
    3.7788   -0.8071    0.0000 C   0  0  0  0  0  0  0  0  0  0  0  0
    4.4932    0.4304    0.0000 C   0  0  0  0  0  0  0  0  0  0  0  0
    5.2077   -0.8071    0.0000 C   0  0  0  0  0  0  0  0  0  0  0  0
    5.2077    0.8429    0.0000 C   0  0  0  0  0  0  0  0  0  0  0  0
    5.9222   -0.3946    0.0000 C   0  0  0  0  0  0  0  0  0  0  0  0
    7.3511    0.4304    0.0000 C   0  0  0  0  0  0  0  0  0  0  0  0
    8.0656    0.8429    0.0000 C   0  0  0  0  0  0  0  0  0  0  0  0
    3.0643   -2.0446    0.0000 C   0  0  0  0  0  0  0  0  0  0  0  0
    8.7801    0.4304    0.0000 C   0  0  0  0  0  0  0  0  0  0  0  0
    9.4945    0.8429    0.0000 C   0  0  0  0  0  0  0  0  0  0  0  0
    3.0643   -2.8696    0.0000 C   0  0  0  0  0  0  0  0  0  0  0  0
   10.2090    0.4304    0.0000 C   0  0  0  0  0  0  0  0  0  0  0  0
   10.9235    0.8429    0.0000 C   0  0  0  0  0  0  0  0  0  0  0  0
   12.3524    0.8429    0.0000 C   0  0  0  0  0  0  0  0  0  0  0  0
  1  9  1  0
  1 15  1  0
  2 10  1  0
  2 17  1  0
  3 10  2  0
  4 15  2  0
  5 22  1  0
  5 23  2  3
  6 23  1  0
 23  7  1  0
  8 10  1  0
  8 11  2  0
  8 12  1  0
  9 13  2  0
  9 14  1  0
 11 13  1  0
 12 14  2  0
 15 16  1  0
 16 18  1  0
 17 20  1  0
 18 19  1  0
 19 21  1  0
 21 22  1  0
M  END
>  <Classification>  (30) 
1

>  <pchembl>  (30) 
6.3

>  <InChI_steorem>  (30) 
InChI=1S/C16H23N3O4/c1-2-22-15(21)12-7-9-13(10-8-12)23-14(20)6-4-3-5-11-19-16(17)18/h7-10H,2-6,11H2,1H3,(H4,17,18,19)

>  <source>  (30) 
ChEMBL25

>  <source_id>  (30) 
25

>  <optional_reference>  (30) 
10.1021/jm301302s

>  <optional_origin>  (30) 
None

>  <target>  (30) 
MATE1

$$$$

     RDKit          2D

 23 26  0  0  0  0  0  0  0  0999 V2000
    1.0803   -8.6470    0.0000 C   0  0  0  0  0  0  0  0  0  0  0  0
    1.5695   -9.3106    0.0000 N   0  0  0  0  0  0  0  0  0  0  0  0
    1.0851   -9.9791    0.0000 N   0  0  0  0  0  0  0  0  0  0  0  0
    0.2955   -8.9086    0.0000 C   0  0  0  0  0  0  0  0  0  0  0  0
    1.0996   -7.8235    0.0000 C   0  0  0  0  0  0  0  0  0  0  0  0
    2.3737   -4.6892    0.0000 N   0  0  0  0  0  0  0  0  0  0  0  0
    0.3003   -9.7321    0.0000 C   0  0  0  0  0  0  0  0  0  0  0  0
    1.8215   -7.4263    0.0000 N   0  0  0  0  0  0  0  0  0  0  0  0
    2.7370   -5.4013    0.0000 C   0  0  0  0  0  0  0  0  0  0  0  0
    2.1896   -5.3530    0.0000 C   0  0  0  0  0  0  0  0  0  0  0  0
    1.8262   -6.6028    0.0000 C   0  0  0  0  0  0  0  0  0  0  0  0
    1.9765   -5.9730    0.0000 C   0  0  0  0  0  0  0  0  0  0  0  0
    1.4582   -5.8954    0.0000 C   0  0  0  0  0  0  0  0  0  0  0  0
    0.3924   -7.4021    0.0000 O   0  0  0  0  0  0  0  0  0  0  0  0
    1.3467  -10.7639    0.0000 C   0  0  0  0  0  0  0  0  0  0  0  0
   -0.4166   -8.4920    0.0000 C   0  0  0  0  0  0  0  0  0  0  0  0
    2.3592   -3.8657    0.0000 C   0  0  0  0  0  0  0  0  0  0  0  0
   -0.4166  -10.1439    0.0000 C   0  0  0  0  0  0  0  0  0  0  0  0
    2.7952   -6.0796    0.0000 C   0  0  0  0  0  0  0  0  0  0  0  0
    3.3474   -6.1619    0.0000 C   0  0  0  0  0  0  0  0  0  0  0  0
    2.8048   -6.7772    0.0000 C   0  0  0  0  0  0  0  0  0  0  0  0
   -1.1287   -8.9086    0.0000 C   0  0  0  0  0  0  0  0  0  0  0  0
   -1.1287   -9.7273    0.0000 C   0  0  0  0  0  0  0  0  0  0  0  0
  2  1  2  0
  3  2  1  0
  4  1  1  0
  5  1  1  0
 10  6  1  0
  7  4  2  0
  8  5  1  0
 10 13  1  0
 11  8  1  0
 12 11  1  0
 13 11  1  0
 14  5  2  0
 15  3  1  0
 16  4  1  0
 17  6  1  0
 18  7  1  0
 10 19  1  0
  9 20  1  0
 21 19  1  0
 22 16  2  0
 23 18  2  0
  3  7  1  0
 23 22  1  0
  9  6  1  0
 21 20  1  0
  9 12  1  0
M  END
>  <Classification>  (31) 
1

>  <pchembl>  (31) 
5.3

>  <InChI_steorem>  (31) 
InChI=1S/C18H24N4O/c1-21-13-6-5-7-14(21)11-12(10-13)19-18(23)17-15-8-3-4-9-16(15)22(2)20-17/h3-4,8-9,12-14H,5-7,10-11H2,1-2H3,(H,19,23)

>  <source>  (31) 
ChEMBL25

>  <source_id>  (31) 
25

>  <optional_reference>  (31) 
10.1021/jm301302s

>  <optional_origin>  (31) 
None

>  <target>  (31) 
MATE1

$$$$

     RDKit          2D

 26 28  0  0  0  0  0  0  0  0999 V2000
   10.4724   -9.0723    0.0000 C   0  0  0  0  0  0  0  0  0  0  0  0
   11.2296   -8.7329    0.0000 N   0  0  0  0  0  0  0  0  0  0  0  0
   10.5636   -9.9021    0.0000 N   0  0  0  0  0  0  0  0  0  0  0  0
    9.7531   -8.6604    0.0000 S   0  0  0  0  0  0  0  0  0  0  0  0
    8.3163   -8.6665    0.0000 C   0  0  0  0  0  0  0  0  0  0  0  0
   11.3760  -10.0698    0.0000 C   0  0  0  0  0  0  0  0  0  0  0  0
    9.0356   -9.0782    0.0000 C   0  0  0  0  0  0  0  0  0  0  0  0
   11.7878   -9.3506    0.0000 C   0  0  0  0  0  0  0  0  0  0  0  0
    8.3188   -7.8391    0.0000 C   0  0  0  0  0  0  0  0  0  0  0  0
   11.7981  -10.7897    0.0000 C   0  0  0  0  0  0  0  0  0  0  0  0
    7.6030   -9.0867    0.0000 N   0  0  0  0  0  0  0  0  0  0  0  0
   13.8782  -11.4887    0.0000 C   0  0  0  0  0  0  0  0  0  0  0  0
    7.6039   -7.4297    0.0000 C   0  0  0  0  0  0  0  0  0  0  0  0
    9.7513   -7.8308    0.0000 O   0  0  0  0  0  0  0  0  0  0  0  0
   12.6259  -10.7814    0.0000 C   0  0  0  0  0  0  0  0  0  0  0  0
   13.0461  -11.4946    0.0000 O   0  0  0  0  0  0  0  0  0  0  0  0
   12.6157   -9.3422    0.0000 C   0  0  0  0  0  0  0  0  0  0  0  0
   14.2816  -10.7646    0.0000 F   0  0  0  0  0  0  0  0  0  0  0  0
   14.2985  -12.2020    0.0000 F   0  0  0  0  0  0  0  0  0  0  0  0
    9.0382   -7.4280    0.0000 O   0  0  0  0  0  0  0  0  0  0  0  0
    6.8838   -8.6748    0.0000 C   0  0  0  0  0  0  0  0  0  0  0  0
   13.0359  -10.0555    0.0000 C   0  0  0  0  0  0  0  0  0  0  0  0
    6.8821   -7.8451    0.0000 C   0  0  0  0  0  0  0  0  0  0  0  0
    7.6021   -6.6001    0.0000 O   0  0  0  0  0  0  0  0  0  0  0  0
    9.0365   -6.5983    0.0000 C   0  0  0  0  0  0  0  0  0  0  0  0
    8.3239   -6.1846    0.0000 C   0  0  0  0  0  0  0  0  0  0  0  0
  2  1  1  0
  3  1  2  0
  4  1  1  0
  5  7  1  0
  6  3  1  0
  7  4  1  0
  8  2  1  0
  9  5  2  0
 10  6  2  0
 11  5  1  0
 12 16  1  0
 13  9  1  0
 14  4  1  0
 15 10  1  0
 16 15  1  0
 17  8  2  0
 18 12  1  0
 19 12  1  0
 20  9  1  0
 21 11  2  0
 22 17  1  0
 23 13  2  0
 24 13  1  0
 25 20  1  0
 26 24  1  0
  6  8  1  0
 15 22  2  0
 23 21  1  0
M  CHG  2   4   1  14  -1
M  END
>  <Classification>  (32) 
1

>  <pchembl>  (32) 
5.55

>  <InChI_steorem>  (32) 
InChI=1S/C16H15F2N3O4S/c1-23-13-5-6-19-12(14(13)24-2)8-26(22)16-20-10-4-3-9(25-15(17)18)7-11(10)21-16/h3-7,15H,8H2,1-2H3,(H,20,21)

>  <source>  (32) 
ChEMBL25

>  <source_id>  (32) 
25

>  <optional_reference>  (32) 
10.1021/jm301302s

>  <optional_origin>  (32) 
None

>  <target>  (32) 
MATE1

$$$$

     RDKit          2D

 26 29  0  0  0  0  0  0  0  0999 V2000
   13.7846  -19.9868    0.0000 N   0  0  0  0  0  0  0  0  0  0  0  0
   14.4996  -21.2173    0.0000 C   0  0  0  0  0  0  0  0  0  0  0  0
   13.0613  -20.3984    0.0000 C   0  0  0  0  0  0  0  0  0  0  0  0
   12.3504  -19.9868    0.0000 C   0  0  0  0  0  0  0  0  0  0  0  0
   13.0655  -21.2215    0.0000 C   0  0  0  0  0  0  0  0  0  0  0  0
   14.4954  -20.3859    0.0000 C   0  0  0  0  0  0  0  0  0  0  0  0
   13.7846  -21.6330    0.0000 C   0  0  0  0  0  0  0  0  0  0  0  0
   11.6313  -20.3984    0.0000 C   0  0  0  0  0  0  0  0  0  0  0  0
   12.3504  -19.1512    0.0000 O   0  0  0  0  0  0  0  0  0  0  0  0
   11.6313  -21.2215    0.0000 C   0  0  0  0  0  0  0  0  0  0  0  0
   12.3504  -21.6330    0.0000 C   0  0  0  0  0  0  0  0  0  0  0  0
   10.9204  -19.9868    0.0000 N   0  0  0  0  0  0  0  0  0  0  0  0
   15.2104  -21.6205    0.0000 C   0  0  0  0  0  0  0  0  0  0  0  0
   13.7846  -19.1512    0.0000 C   0  0  0  0  0  0  0  0  0  0  0  0
    9.4987  -19.1596    0.0000 N   0  0  0  0  0  0  0  0  0  0  0  0
   13.7846  -22.4561    0.0000 O   0  0  0  0  0  0  0  0  0  0  0  0
   13.0613  -18.7356    0.0000 C   0  0  0  0  0  0  0  0  0  0  0  0
   10.9329  -19.1596    0.0000 C   0  0  0  0  0  0  0  0  0  0  0  0
   10.2096  -20.3984    0.0000 C   0  0  0  0  0  0  0  0  0  0  0  0
   15.9296  -21.2090    0.0000 O   0  0  0  0  0  0  0  0  0  0  0  0
   10.9204  -21.6330    0.0000 F   0  0  0  0  0  0  0  0  0  0  0  0
    9.4987  -19.9868    0.0000 C   0  0  0  0  0  0  0  0  0  0  0  0
   10.2221  -18.7481    0.0000 C   0  0  0  0  0  0  0  0  0  0  0  0
   15.2188  -22.4436    0.0000 O   0  0  0  0  0  0  0  0  0  0  0  0
    8.7879  -18.7397    0.0000 C   0  0  0  0  0  0  0  0  0  0  0  0
   14.4996  -18.7397    0.0000 C   0  0  0  0  0  0  0  0  0  0  0  0
  2  6  2  0
  3  1  1  0
  4  3  1  0
  5  3  2  0
  6  1  1  0
  7  2  1  0
  8  4  2  0
  9 17  1  0
 10 11  2  0
 11  5  1  0
 12  8  1  0
 13  2  1  0
 14  1  1  0
 15 22  1  0
 16  7  2  0
 17 14  1  0
 18 12  1  0
 19 12  1  0
 20 13  2  0
 21 10  1  0
 22 19  1  0
 23 18  1  0
 24 13  1  0
 25 15  1  0
 14 26  1  0
  9  4  1  0
  5  7  1  0
  8 10  1  0
 23 15  1  0
M  END
>  <Classification>  (33) 
0

>  <pchembl>  (33) 
4.75

>  <InChI_steorem>  (33) 
InChI=1S/C18H20FN3O4/c1-10-9-26-17-14-11(16(23)12(18(24)25)8-22(10)14)7-13(19)15(17)21-5-3-20(2)4-6-21/h7-8,10H,3-6,9H2,1-2H3,(H,24,25)

>  <source>  (33) 
ChEMBL25

>  <source_id>  (33) 
25

>  <optional_reference>  (33) 
10.1021/jm301302s

>  <optional_origin>  (33) 
None

>  <target>  (33) 
MATE1

$$$$

     RDKit          2D

 29 30  0  0  0  0  0  0  0  0999 V2000
    1.2990   -0.7500    0.0000 C   0  0  0  0  0  0  0  0  0  0  0  0
    1.2990    0.7500    0.0000 N   0  0  0  0  0  0  0  0  0  0  0  0
    0.0000   -1.5000    0.0000 N   0  0  0  0  0  0  0  0  0  0  0  0
    0.0000    1.5000    0.0000 C   0  0  0  0  0  0  0  0  0  0  0  0
   -1.2990   -0.7500    0.0000 C   0  0  0  0  0  0  0  0  0  0  0  0
   -1.2990    0.7500    0.0000 C   0  0  0  0  0  0  0  0  0  0  0  0
   -9.1229   12.7318    0.0000 N   0  0  0  0  0  0  0  0  0  0  0  0
   -7.8190   11.9885    0.0000 C   0  0  0  0  0  0  0  0  0  0  0  0
    2.3383   -1.3500    0.0000 O   0  0  0  0  0  0  0  0  0  0  0  0
   -9.1292   13.9317    0.0000 O   0  0  0  0  0  0  0  0  0  0  0  0
  -10.1592   12.1267    0.0000 O   0  0  0  0  0  0  0  0  0  0  0  0
   -2.3383   -1.3500    0.0000 O   0  0  0  0  0  0  0  0  0  0  0  0
   -0.0031    3.0008    0.0000 N   0  0  0  0  0  0  0  0  0  0  0  0
    2.3383    1.3500    0.0000 C   0  0  0  0  0  0  0  0  0  0  0  0
    0.0000   -2.7000    0.0000 C   0  0  0  0  0  0  0  0  0  0  0  0
   -6.5226   12.7430    0.0000 C   0  0  0  0  0  0  0  0  0  0  0  0
   -7.8138   10.4885    0.0000 C   0  0  0  0  0  0  0  0  0  0  0  0
   -2.6078    5.9988    0.0000 N   0  0  0  0  0  0  0  0  0  0  0  0
   -5.2210   11.9975    0.0000 C   0  0  0  0  0  0  0  0  0  0  0  0
   -6.5122    9.7430    0.0000 C   0  0  0  0  0  0  0  0  0  0  0  0
   -5.2157   10.4975    0.0000 C   0  0  0  0  0  0  0  0  0  0  0  0
   -1.3039    3.7494    0.0000 C   0  0  0  0  0  0  0  0  0  0  0  0
   -6.2473    5.3991    0.0000 O   0  0  0  0  0  0  0  0  0  0  0  0
   -3.9118    8.2481    0.0000 C   0  0  0  0  0  0  0  0  0  0  0  0
   -1.3070    5.2502    0.0000 C   0  0  0  0  0  0  0  0  0  0  0  0
   -2.6109    7.4996    0.0000 C   0  0  0  0  0  0  0  0  0  0  0  0
   -3.9149    9.7490    0.0000 C   0  0  0  0  0  0  0  0  0  0  0  0
   -3.9078    5.2487    0.0000 C   0  0  0  0  0  0  0  0  0  0  0  0
   -5.2078    5.9987    0.0000 C   0  0  0  0  0  0  0  0  0  0  0  0
  1  2  1  0
  1  3  1  0
  2  4  1  0
  3  5  1  0
  4  6  2  0
  5  6  1  0
  7  8  1  0
  1  9  2  0
  7 10  1  0
  7 11  2  0
  5 12  2  0
  4 13  1  0
  2 14  1  0
  3 15  1  0
  8 16  2  0
  8 17  1  0
 16 19  1  0
 17 20  2  0
 19 21  2  0
 20 21  1  0
 13 22  1  0
 18 25  1  0
 22 25  1  0
 18 26  1  0
 24 26  1  0
 21 27  1  0
 24 27  1  0
 18 28  1  0
 23 29  1  0
 28 29  1  0
M  CHG  2   7   1  10  -1
M  END
>  <Classification>  (34) 
1

>  <pchembl>  (34) 
6.19

>  <InChI_steorem>  (34) 
InChI=1S/C19H27N5O5/c1-21-17(14-18(26)22(2)19(21)27)20-9-11-23(12-13-25)10-3-4-15-5-7-16(8-6-15)24(28)29/h5-8,14,20,25H,3-4,9-13H2,1-2H3

>  <source>  (34) 
ChEMBL25

>  <source_id>  (34) 
25

>  <optional_reference>  (34) 
10.1021/jm301302s

>  <optional_origin>  (34) 
None

>  <target>  (34) 
MATE1

$$$$

     RDKit          2D

 30 34  0  0  0  0  0  0  0  0999 V2000
   -0.0875   -1.5250    0.0000 C   0  0  0  0  0  0  0  0  0  0  0  0
   -0.1833    2.0833    0.0000 C   0  0  0  0  0  0  0  0  0  0  0  0
    1.3792   -1.5375    0.0000 C   0  0  0  0  0  0  0  0  0  0  0  0
    0.6542   -0.2167    0.0000 C   0  0  0  0  0  0  0  0  0  0  0  0
    0.6542    1.6000    0.0000 C   0  0  0  0  0  0  0  0  0  0  0  0
   -0.0833   -0.7167    0.0000 C   0  0  0  0  0  0  0  0  0  0  0  0
    1.3917   -0.7250    0.0000 O   0  0  0  0  0  0  0  0  0  0  0  0
   -1.0250    1.6000    0.0000 C   0  0  0  0  0  0  0  0  0  0  0  0
   -1.8708    2.0833    0.0000 C   0  0  0  0  0  0  0  0  0  0  0  0
   -0.1833    3.0625    0.0000 C   0  0  0  0  0  0  0  0  0  0  0  0
    1.4917    2.0833    0.0000 N   0  0  0  0  0  0  0  0  0  0  0  0
   -0.9458   -2.0792    0.0000 C   0  0  0  0  0  0  0  0  0  0  0  0
   -1.8708    3.0625    0.0000 C   0  0  0  0  0  0  0  0  0  0  0  0
   -1.0250    3.5500    0.0000 C   0  0  0  0  0  0  0  0  0  0  0  0
   -0.9208   -0.1250    0.0000 C   0  0  0  0  0  0  0  0  0  0  0  0
   -3.3458    2.0833    0.0000 O   0  0  0  0  0  0  0  0  0  0  0  0
   -2.6083    3.4833    0.0000 O   0  0  0  0  0  0  0  0  0  0  0  0
    2.2542   -2.0167    0.0000 O   0  0  0  0  0  0  0  0  0  0  0  0
   -1.7958   -1.5792    0.0000 C   0  0  0  0  0  0  0  0  0  0  0  0
    0.6542    3.5500    0.0000 C   0  0  0  0  0  0  0  0  0  0  0  0
   -3.3458    2.9833    0.0000 C   0  0  0  0  0  0  0  0  0  0  0  0
    1.4917    3.0625    0.0000 C   0  0  0  0  0  0  0  0  0  0  0  0
   -1.7833   -0.6000    0.0000 C   0  0  0  0  0  0  0  0  0  0  0  0
   -1.0250    0.6208    0.0000 O   0  0  0  0  0  0  0  0  0  0  0  0
   -0.9458   -3.0917    0.0000 O   0  0  0  0  0  0  0  0  0  0  0  0
   -2.6833   -2.0542    0.0000 O   0  0  0  0  0  0  0  0  0  0  0  0
    2.3375    1.6000    0.0000 C   0  0  0  0  0  0  0  0  0  0  0  0
   -1.9083    0.1583    0.0000 C   0  0  0  0  0  0  0  0  0  0  0  0
   -1.7958   -3.5917    0.0000 C   0  0  0  0  0  0  0  0  0  0  0  0
   -3.5333   -1.5417    0.0000 C   0  0  0  0  0  0  0  0  0  0  0  0
  2  5  1  0
  3  1  1  0
  4  6  1  0
  5  4  1  0
  6  1  2  0
  7  3  1  0
  8  2  2  0
  9  8  1  0
 10  2  1  0
 11  5  1  0
 12  1  1  0
 13 14  1  0
 14 10  2  0
 15  6  1  0
 16  9  1  0
 17 13  1  0
 18  3  2  0
 19 12  2  0
 20 22  1  0
 21 16  1  0
 22 11  1  0
 23 19  1  0
 24  8  1  0
 25 12  1  0
 26 19  1  0
 27 11  1  0
 28 24  1  0
 29 25  1  0
 30 26  1  0
  4  7  1  0
 15 23  2  0
 10 20  1  0
  9 13  2  0
 17 21  1  0
M  END
>  <Classification>  (35) 
0

>  <pchembl>  (35) 
4.46

>  <InChI_steorem>  (35) 
InChI=1S/C22H23NO7/c1-23-8-7-11-9-14-20(29-10-28-14)21(27-4)15(11)17(23)18-12-5-6-13(25-2)19(26-3)16(12)22(24)30-18/h5-6,9,17-18H,7-8,10H2,1-4H3

>  <source>  (35) 
ChEMBL25

>  <source_id>  (35) 
25

>  <optional_reference>  (35) 
10.1021/jm301302s

>  <optional_origin>  (35) 
None

>  <target>  (35) 
MATE1

$$$$

     RDKit          2D

 34 38  0  0  0  0  0  0  0  0999 V2000
   -4.2045    0.9625    0.0000 C   0  0  0  0  0  0  0  0  0  0  0  0
   -4.2057    0.1350    0.0000 C   0  0  0  0  0  0  0  0  0  0  0  0
   -3.4882   -0.2780    0.0000 C   0  0  0  0  0  0  0  0  0  0  0  0
   -3.4902    1.3753    0.0000 C   0  0  0  0  0  0  0  0  0  0  0  0
   -2.7766    0.9666    0.0000 C   0  0  0  0  0  0  0  0  0  0  0  0
   -2.7763    0.1399    0.0000 C   0  0  0  0  0  0  0  0  0  0  0  0
   -1.9896   -0.1178    0.0000 N   0  0  0  0  0  0  0  0  0  0  0  0
   -1.5058    0.5537    0.0000 C   0  0  0  0  0  0  0  0  0  0  0  0
   -1.9908    1.2194    0.0000 N   0  0  0  0  0  0  0  0  0  0  0  0
   -1.5842    1.9354    0.0000 C   0  0  0  0  0  0  0  0  0  0  0  0
   -0.7592    1.9421    0.0000 C   0  0  0  0  0  0  0  0  0  0  0  0
   -0.3434    1.2259    0.0000 C   0  0  0  0  0  0  0  0  0  0  0  0
    0.4807    1.2323    0.0000 C   0  0  0  0  0  0  0  0  0  0  0  0
    0.8882    1.9490    0.0000 C   0  0  0  0  0  0  0  0  0  0  0  0
    0.4650    2.6653    0.0000 C   0  0  0  0  0  0  0  0  0  0  0  0
   -0.3576    2.6550    0.0000 C   0  0  0  0  0  0  0  0  0  0  0  0
    1.7131    1.9569    0.0000 F   0  0  0  0  0  0  0  0  0  0  0  0
   -0.6808    0.5545    0.0000 N   0  0  0  0  0  0  0  0  0  0  0  0
   -0.2675   -0.1621    0.0000 C   0  0  0  0  0  0  0  0  0  0  0  0
   -0.6814   -0.8761    0.0000 C   0  0  0  0  0  0  0  0  0  0  0  0
   -0.2720   -1.5905    0.0000 C   0  0  0  0  0  0  0  0  0  0  0  0
    0.5533   -1.5943    0.0000 N   0  0  0  0  0  0  0  0  0  0  0  0
    0.9676   -0.8769    0.0000 C   0  0  0  0  0  0  0  0  0  0  0  0
    0.5564   -0.1603    0.0000 C   0  0  0  0  0  0  0  0  0  0  0  0
    0.9636   -2.3082    0.0000 C   0  0  0  0  0  0  0  0  0  0  0  0
    1.7886   -2.3107    0.0000 C   0  0  0  0  0  0  0  0  0  0  0  0
    2.1989   -3.0246    0.0000 C   0  0  0  0  0  0  0  0  0  0  0  0
    1.7840   -3.7369    0.0000 C   0  0  0  0  0  0  0  0  0  0  0  0
    2.1935   -4.4502    0.0000 C   0  0  0  0  0  0  0  0  0  0  0  0
    3.0195   -4.4533    0.0000 C   0  0  0  0  0  0  0  0  0  0  0  0
    3.4341   -3.7364    0.0000 C   0  0  0  0  0  0  0  0  0  0  0  0
    3.0219   -3.0218    0.0000 C   0  0  0  0  0  0  0  0  0  0  0  0
    3.4308   -5.1712    0.0000 O   0  0  0  0  0  0  0  0  0  0  0  0
    4.2558   -5.1725    0.0000 C   0  0  0  0  0  0  0  0  0  0  0  0
 16 11  1  0
  6  7  1  0
 14 17  1  0
  7  8  2  0
  8 18  1  0
  8  9  1  0
 18 19  1  0
 19 20  1  0
  9  5  1  0
  4  1  2  0
  9 10  1  0
  5  6  2  0
 10 11  1  0
 19 24  1  0
 20 21  1  0
 21 22  1  0
 22 23  1  0
 23 24  1  0
 22 25  1  0
 11 12  2  0
 25 26  1  0
  2  3  2  0
 26 27  1  0
 12 13  1  0
 27 28  2  0
  3  6  1  0
 28 29  1  0
 13 14  2  0
 29 30  2  0
  1  2  1  0
 30 31  1  0
 14 15  1  0
 31 32  2  0
 32 27  1  0
  5  4  1  0
 30 33  1  0
 15 16  2  0
 33 34  1  0
M  END
>  <Classification>  (36) 
0

>  <pchembl>  (36) 
4.58

>  <InChI_steorem>  (36) 
InChI=1S/C28H31FN4O/c1-34-25-12-8-21(9-13-25)14-17-32-18-15-24(16-19-32)30-28-31-26-4-2-3-5-27(26)33(28)20-22-6-10-23(29)11-7-22/h2-13,24H,14-20H2,1H3,(H,30,31)

>  <source>  (36) 
ChEMBL25

>  <source_id>  (36) 
25

>  <optional_reference>  (36) 
10.1021/jm301302s

>  <optional_origin>  (36) 
None

>  <target>  (36) 
MATE1

$$$$

     RDKit          2D

 45 49  0  0  0  0  0  0  0  0999 V2000
    3.0579  -17.4480    0.0000 C   0  0  0  0  0  0  0  0  0  0  0  0
    2.3414  -17.8687    0.0000 N   0  0  0  0  0  0  0  0  0  0  0  0
    3.0579  -16.6356    0.0000 C   0  0  0  0  0  0  0  0  0  0  0  0
   -1.9165  -17.9437    0.0000 N   0  0  0  0  0  0  0  0  0  0  0  0
   -2.6539  -17.5813    0.0000 C   0  0  0  0  0  0  0  0  0  0  0  0
   -1.2291  -17.4855    0.0000 C   0  0  0  0  0  0  0  0  0  0  0  0
   -3.3829  -17.9604    0.0000 C   0  0  0  0  0  0  0  0  0  0  0  0
    3.7913  -18.6771    0.0000 N   0  0  0  0  0  0  0  0  0  0  0  0
   -3.9745  -17.3813    0.0000 C   0  0  0  0  0  0  0  0  0  0  0  0
   -2.7955  -16.7648    0.0000 C   0  0  0  0  0  0  0  0  0  0  0  0
    2.3289  -16.2231    0.0000 N   0  0  0  0  0  0  0  0  0  0  0  0
   -0.5124  -17.8979    0.0000 C   0  0  0  0  0  0  0  0  0  0  0  0
    3.7788  -17.8605    0.0000 C   0  0  0  0  0  0  0  0  0  0  0  0
   -3.6079  -16.6439    0.0000 C   0  0  0  0  0  0  0  0  0  0  0  0
    1.6290  -17.4605    0.0000 C   0  0  0  0  0  0  0  0  0  0  0  0
    2.3539  -18.7021    0.0000 C   0  0  0  0  0  0  0  0  0  0  0  0
    3.7704  -16.2106    0.0000 O   0  0  0  0  0  0  0  0  0  0  0  0
   -1.2416  -16.6689    0.0000 O   0  0  0  0  0  0  0  0  0  0  0  0
    0.2000  -17.4855    0.0000 C   0  0  0  0  0  0  0  0  0  0  0  0
   -0.5041  -18.7229    0.0000 C   0  0  0  0  0  0  0  0  0  0  0  0
    2.3289  -15.3940    0.0000 C   0  0  0  0  0  0  0  0  0  0  0  0
    4.5078  -19.0978    0.0000 C   0  0  0  0  0  0  0  0  0  0  0  0
    5.2452  -21.1518    0.0000 N   0  0  0  0  0  0  0  0  0  0  0  0
    3.0829  -19.1020    0.0000 C   0  0  0  0  0  0  0  0  0  0  0  0
    4.5162  -19.9144    0.0000 C   0  0  0  0  0  0  0  0  0  0  0  0
    0.9249  -17.8854    0.0000 C   0  0  0  0  0  0  0  0  0  0  0  0
   -2.2039  -16.1731    0.0000 O   0  0  0  0  0  0  0  0  0  0  0  0
   -1.2166  -19.1395    0.0000 C   0  0  0  0  0  0  0  0  0  0  0  0
    5.2327  -20.3227    0.0000 C   0  0  0  0  0  0  0  0  0  0  0  0
    0.9249  -18.7146    0.0000 O   0  0  0  0  0  0  0  0  0  0  0  0
   -3.5954  -18.7645    0.0000 C   0  0  0  0  0  0  0  0  0  0  0  0
   -4.7537  -17.5980    0.0000 C   0  0  0  0  0  0  0  0  0  0  0  0
    4.5287  -21.5683    0.0000 C   0  0  0  0  0  0  0  0  0  0  0  0
    3.1538  -15.3815    0.0000 C   0  0  0  0  0  0  0  0  0  0  0  0
    1.5040  -15.4024    0.0000 C   0  0  0  0  0  0  0  0  0  0  0  0
    2.3247  -14.5650    0.0000 C   0  0  0  0  0  0  0  0  0  0  0  0
    3.8038  -20.3269    0.0000 C   0  0  0  0  0  0  0  0  0  0  0  0
   -1.2082  -19.9727    0.0000 C   0  0  0  0  0  0  0  0  0  0  0  0
   -1.9290  -18.7395    0.0000 C   0  0  0  0  0  0  0  0  0  0  0  0
    3.8038  -21.1643    0.0000 C   0  0  0  0  0  0  0  0  0  0  0  0
   -4.3870  -18.9770    0.0000 C   0  0  0  0  0  0  0  0  0  0  0  0
   -4.9661  -18.3979    0.0000 C   0  0  0  0  0  0  0  0  0  0  0  0
   -1.9165  -20.3894    0.0000 C   0  0  0  0  0  0  0  0  0  0  0  0
   -2.6455  -19.1520    0.0000 C   0  0  0  0  0  0  0  0  0  0  0  0
   -2.6330  -19.9769    0.0000 C   0  0  0  0  0  0  0  0  0  0  0  0
  5  4  1  0
  6 12  1  0
  7  5  1  0
  8 13  1  0
  9  7  2  0
 10  5  1  0
 11  3  1  0
 12 19  1  0
 13  1  1  0
 14 10  1  0
 15  2  1  0
 16  2  1  0
 17  3  2  0
 18  6  2  0
 19 26  1  0
 20 12  1  0
 21 11  1  0
 22  8  1  0
 23 29  2  0
 24 16  1  0
 25 22  1  0
 26 15  1  0
 10 27  1  0
 28 20  1  0
 29 25  1  0
 26 30  1  0
 31  7  1  0
 32  9  1  0
 33 40  2  0
 34 21  1  0
 35 21  1  0
 36 21  1  0
 37 25  2  0
 38 28  2  0
 39 28  1  0
 40 37  1  0
 41 31  2  0
 42 41  1  0
 43 38  1  0
 44 39  2  0
 45 43  2  0
 24  8  1  0
 23 33  1  0
 44 45  1  0
 14  9  1  0
 32 42  2  0
  2  1  1  0
  1  3  1  0
  4  6  1  0
M  END
>  <Classification>  (37) 
1

>  <pchembl>  (37) 
5.72

>  <InChI_steorem>  (37) 
InChI=1S/C36H47N5O4/c1-36(2,3)39-35(45)31-24-40(22-26-12-9-15-37-21-26)16-17-41(31)23-29(42)19-28(18-25-10-5-4-6-11-25)34(44)38-33-30-14-8-7-13-27(30)20-32(33)43/h4-15,21,28-29,31-33,42-43H,16-20,22-24H2,1-3H3,(H,38,44)(H,39,45)

>  <source>  (37) 
ChEMBL25

>  <source_id>  (37) 
25

>  <optional_reference>  (37) 
10.1021/jm301302s

>  <optional_origin>  (37) 
None

>  <target>  (37) 
MATE1

$$$$

     RDKit          2D

 26 29  0  0  0  0  0  0  0  0999 V2000
    3.2203   -2.9290    0.0000 O   0  0  0  0  0  0  0  0  0  0  0  0
    3.6363   -3.6447    0.0000 S   0  0  0  0  0  0  0  0  0  0  0  0
    4.0480   -2.9265    0.0000 O   0  0  0  0  0  0  0  0  0  0  0  0
    6.6449   -4.9793    0.0000 O   0  0  0  0  0  0  0  0  0  0  0  0
    7.0997   -4.2941    0.0000 C   0  0  0  0  0  0  0  0  0  0  0  0
    6.5866   -3.6545    0.0000 N   0  0  0  0  0  0  0  0  0  0  0  0
    5.8198   -3.9446    0.0000 C   0  0  0  0  0  0  0  0  0  0  0  0
    5.8572   -4.7559    0.0000 C   0  0  0  0  0  0  0  0  0  0  0  0
    5.1632   -5.1969    0.0000 C   0  0  0  0  0  0  0  0  0  0  0  0
    4.4276   -4.8100    0.0000 C   0  0  0  0  0  0  0  0  0  0  0  0
    4.3901   -4.0070    0.0000 C   0  0  0  0  0  0  0  0  0  0  0  0
    5.0924   -3.5618    0.0000 C   0  0  0  0  0  0  0  0  0  0  0  0
    8.3396   -5.0089    0.0000 C   0  0  0  0  0  0  0  0  0  0  0  0
    7.9277   -4.2941    0.0000 C   0  0  0  0  0  0  0  0  0  0  0  0
    8.3396   -3.5792    0.0000 C   0  0  0  0  0  0  0  0  0  0  0  0
    9.1676   -3.5792    0.0000 C   0  0  0  0  0  0  0  0  0  0  0  0
    9.5794   -4.2941    0.0000 C   0  0  0  0  0  0  0  0  0  0  0  0
   10.4074   -4.2941    0.0000 C   0  0  0  0  0  0  0  0  0  0  0  0
   10.8193   -5.0089    0.0000 C   0  0  0  0  0  0  0  0  0  0  0  0
   10.4074   -5.7237    0.0000 C   0  0  0  0  0  0  0  0  0  0  0  0
    9.5794   -5.7237    0.0000 C   0  0  0  0  0  0  0  0  0  0  0  0
    9.1676   -5.0089    0.0000 C   0  0  0  0  0  0  0  0  0  0  0  0
    2.9522   -4.1151    0.0000 C   0  0  0  0  0  0  0  0  0  0  0  0
    2.2083   -3.7574    0.0000 C   0  0  0  0  0  0  0  0  0  0  0  0
   10.8196   -3.5809    0.0000 O   0  0  0  0  0  0  0  0  0  0  0  0
   11.6431   -5.0089    0.0000 O   0  0  0  0  0  0  0  0  0  0  0  0
  2  1  2  0
  3  2  2  0
  4  5  1  0
  5  6  2  0
  6  7  1  0
  7  8  2  0
  4  8  1  0
  9 10  2  0
 10 11  1  0
 11 12  2  0
  7 12  1  0
  8  9  1  0
 13 14  2  0
 14 15  1  0
 15 16  2  0
 16 17  1  0
 17 18  1  0
 18 19  1  0
 19 20  1  0
 20 21  2  0
 21 22  1  0
 13 22  1  0
 17 22  2  0
  5 14  1  0
 23 24  1  0
  2 23  1  0
 11  2  1  0
 18 25  1  0
 19 26  1  0
M  END
>  <Classification>  (38) 
1

>  <pchembl>  (38) 
5.0

>  <InChI_steorem>  (38) 
InChI=1S/C19H17NO5S/c1-2-26(23,24)13-5-8-17-15(10-13)20-19(25-17)12-3-6-14-11(9-12)4-7-16(21)18(14)22/h3-10,16,18,21-22H,2H2,1H3

>  <source>  (38) 
ChEMBL28

>  <source_id>  (38) 
28

>  <optional_reference>  (38) 
10.1021/acs.jmedchem.9b01547

>  <optional_origin>  (38) 
None

>  <target>  (38) 
MATE1

$$$$

     RDKit          2D

 26 29  0  0  0  0  0  0  0  0999 V2000
    6.9413   -6.0018    0.0000 C   0  0  0  0  0  0  0  0  0  0  0  0
    4.8470   -7.1648    0.0000 C   0  0  0  0  0  0  0  0  0  0  0  0
    7.6657   -5.5920    0.0000 C   0  0  0  0  0  0  0  0  0  0  0  0
    5.5175   -6.7302    0.0000 C   0  0  0  0  0  0  0  0  0  0  0  0
    6.2335   -7.1648    0.0000 C   0  0  0  0  0  0  0  0  0  0  0  0
    6.9413   -6.7302    0.0000 C   0  0  0  0  0  0  0  0  0  0  0  0
    5.5175   -6.0018    0.0000 C   0  0  0  0  0  0  0  0  0  0  0  0
    4.8552   -7.9265    0.0000 C   0  0  0  0  0  0  0  0  0  0  0  0
    6.2335   -5.5920    0.0000 C   0  0  0  0  0  0  0  0  0  0  0  0
    4.1392   -8.3983    0.0000 C   0  0  0  0  0  0  0  0  0  0  0  0
    7.6409   -4.8470    0.0000 C   0  0  0  0  0  0  0  0  0  0  0  0
    8.3818   -6.0018    0.0000 C   0  0  0  0  0  0  0  0  0  0  0  0
    8.3818   -6.7302    0.0000 C   0  0  0  0  0  0  0  0  0  0  0  0
    6.2335   -7.9761    0.0000 C   0  0  0  0  0  0  0  0  0  0  0  0
    4.1392   -6.7302    0.0000 C   0  0  0  0  0  0  0  0  0  0  0  0
    5.5175   -8.3983    0.0000 C   0  0  0  0  0  0  0  0  0  0  0  0
    5.0415   -5.6375    0.0000 O   0  0  0  0  0  0  0  0  0  0  0  0
    7.0945   -4.4620    0.0000 O   0  0  0  0  0  0  0  0  0  0  0  0
    8.6715   -5.4182    0.0000 O   0  0  0  0  0  0  0  0  0  0  0  0
    3.4065   -7.9761    0.0000 C   0  0  0  0  0  0  0  0  0  0  0  0
    6.9413   -5.1519    0.0000 C   0  0  0  0  0  0  0  0  0  0  0  0
    3.4065   -7.1648    0.0000 C   0  0  0  0  0  0  0  0  0  0  0  0
    4.8470   -6.2690    0.0000 C   0  0  0  0  0  0  0  0  0  0  0  0
    8.2452   -4.3378    0.0000 C   0  0  0  0  0  0  0  0  0  0  0  0
    2.8063   -8.3611    0.0000 O   0  0  0  0  0  0  0  0  0  0  0  0
    9.0565   -4.5448    0.0000 O   0  0  0  0  0  0  0  0  0  0  0  0
  2  4  1  0
  3  1  1  0
  4  7  1  0
  5  6  1  0
  6  1  1  0
  7  9  1  0
  8  2  1  0
  9  1  1  0
 10  8  2  0
 11  3  1  0
 12  3  1  0
 13  6  1  0
 14  5  1  0
 15  2  1  0
 16 14  1  0
 17  7  2  0
 18 11  2  0
  3 19  1  0
 20 22  1  0
  1 21  1  0
 22 15  1  0
  2 23  1  0
 24 11  1  0
 20 25  2  0
 26 24  1  0
 13 12  1  0
  5  4  1  0
 16  8  1  0
 20 10  1  0
M  END
>  <Classification>  (39) 
0

>  <pchembl>  (39) 
4.67

>  <InChI_steorem>  (39) 
InChI=1S/C21H28O5/c1-19-7-5-13(23)9-12(19)3-4-14-15-6-8-21(26,17(25)11-22)20(15,2)10-16(24)18(14)19/h9,14-15,18,22,26H,3-8,10-11H2,1-2H3

>  <source>  (39) 
ChEMBL30

>  <source_id>  (39) 
30

>  <optional_reference>  (39) 
10.1021/jm301302s

>  <optional_origin>  (39) 
None

>  <target>  (39) 
MATE1

$$$$

     RDKit          2D

 17 18  0  0  0  0  0  0  0  0999 V2000
   -3.4978    0.3476    0.0000 C   0  0  0  0  0  0  0  0  0  0  0  0
   -3.1647   -0.4071    0.0000 N   0  0  0  0  0  0  0  0  0  0  0  0
   -2.3676   -0.3239    0.0000 C   0  0  0  0  0  0  0  0  0  0  0  0
   -2.1859    0.4938    0.0000 C   0  0  0  0  0  0  0  0  0  0  0  0
   -2.8984    0.9019    0.0000 N   0  0  0  0  0  0  0  0  0  0  0  0
   -1.4751    0.9043    0.0000 C   0  0  0  0  0  0  0  0  0  0  0  0
   -0.7644    0.4938    0.0000 S   0  0  0  0  0  0  0  0  0  0  0  0
   -0.0536    0.9043    0.0000 C   0  0  0  0  0  0  0  0  0  0  0  0
    0.6570    0.4938    0.0000 C   0  0  0  0  0  0  0  0  0  0  0  0
    1.3677    0.9043    0.0000 N   0  0  0  0  0  0  0  0  0  0  0  0
    2.0785    0.4938    0.0000 C   0  0  0  0  0  0  0  0  0  0  0  0
   -1.7873   -0.9043    0.0000 C   0  0  0  0  0  0  0  0  0  0  0  0
    2.7895    0.9041    0.0000 N   0  0  0  0  0  0  0  0  0  0  0  0
    3.4978    0.4943    0.0000 C   0  0  0  0  0  0  0  0  0  0  0  0
    3.4978   -0.3265    0.0000 C   0  0  0  0  0  0  0  0  0  0  0  0
    2.7913   -0.7362    0.0000 C   0  0  0  0  0  0  0  0  0  0  0  0
    2.0785   -0.3301    0.0000 N   0  0  0  0  0  0  0  0  0  0  0  0
  1  2  1  0
  3  2  1  0
  4  3  2  0
  5  1  2  0
  5  4  1  0
  4  6  1  0
  6  7  1  0
  7  8  1  0
  8  9  1  0
  9 10  1  0
 10 11  1  0
  3 12  1  0
 13 11  2  0
 14 13  1  0
 15 14  2  0
 16 15  1  0
 17 16  2  0
 11 17  1  0
M  END
>  <Classification>  (40) 
1

>  <pchembl>  (40) 
5.7

>  <InChI_steorem>  (40) 
InChI=1S/C11H15N5S/c1-9-10(16-8-15-9)7-17-6-5-14-11-12-3-2-4-13-11/h2-4,8H,5-7H2,1H3,(H,15,16)(H,12,13,14)

>  <source>  (40) 
ChEMBL33

>  <source_id>  (40) 
33

>  <optional_reference>  (40) 
10.1016/j.bmc.2022.117042

>  <optional_origin>  (40) 
None

>  <target>  (40) 
MATE1

$$$$
