
     RDKit          2D

 26 27  0  0  0  0  0  0  0  0999 V2000
    4.8306  -14.3526    0.0000 C   0  0  0  0  0  0  0  0  0  0  0  0
    4.1147  -14.7651    0.0000 C   0  0  0  0  0  0  0  0  0  0  0  0
    3.4030  -14.3526    0.0000 C   0  0  0  0  0  0  0  0  0  0  0  0
    3.4030  -13.5276    0.0000 C   0  0  0  0  0  0  0  0  0  0  0  0
    2.6872  -13.1151    0.0000 C   0  0  0  0  0  0  0  0  0  0  0  0
    1.9713  -13.5276    0.0000 C   0  0  0  0  0  0  0  0  0  0  0  0
    1.9713  -14.3526    0.0000 C   0  0  0  0  0  0  0  0  0  0  0  0
    2.6872  -14.7651    0.0000 C   0  0  0  0  0  0  0  0  0  0  0  0
    1.2596  -13.1151    0.0000 C   0  0  0  0  0  0  0  0  0  0  0  0
    1.2596  -12.2901    0.0000 O   0  0  0  0  0  0  0  0  0  0  0  0
    0.5437  -13.5276    0.0000 N   0  0  0  0  0  0  0  0  0  0  0  0
   -0.1721  -13.1151    0.0000 N   0  0  0  0  0  0  0  0  0  0  0  0
   -0.8838  -13.5276    0.0000 C   0  0  0  0  0  0  0  0  0  0  0  0
   -0.8838  -14.3526    0.0000 O   0  0  0  0  0  0  0  0  0  0  0  0
   -1.5997  -13.1151    0.0000 C   0  0  0  0  0  0  0  0  0  0  0  0
   -2.3155  -13.5276    0.0000 C   0  0  0  0  0  0  0  0  0  0  0  0
   -3.0272  -13.1151    0.0000 C   0  0  0  0  0  0  0  0  0  0  0  0
   -3.0272  -12.2901    0.0000 C   0  0  0  0  0  0  0  0  0  0  0  0
   -2.3155  -11.8734    0.0000 C   0  0  0  0  0  0  0  0  0  0  0  0
   -1.5997  -12.2901    0.0000 C   0  0  0  0  0  0  0  0  0  0  0  0
   -2.3155  -11.0484    0.0000 C   0  0  0  0  0  0  0  0  0  0  0  0
   -3.7431  -13.5276    0.0000 C   0  0  0  0  0  0  0  0  0  0  0  0
   -0.1721  -12.2901    0.0000 C   0  0  0  0  0  0  0  0  0  0  0  0
   -0.9971  -12.2901    0.0000 C   0  0  0  0  0  0  0  0  0  0  0  0
   -0.1721  -11.4609    0.0000 C   0  0  0  0  0  0  0  0  0  0  0  0
    0.6529  -12.2901    0.0000 C   0  0  0  0  0  0  0  0  0  0  0  0
  1  2  1  0
  2  3  1  0
  3  4  2  0
  4  5  1  0
  5  6  2  0
  6  7  1  0
  7  8  2  0
  3  8  1  0
  6  9  1  0
  9 10  2  0
  9 11  1  0
 11 12  1  0
 12 13  1  0
 13 14  2  0
 13 15  1  0
 15 16  2  0
 16 17  1  0
 17 18  2  0
 18 19  1  0
 19 20  2  0
 15 20  1  0
 19 21  1  0
 17 22  1  0
 12 23  1  0
 23 24  1  0
 23 25  1  0
 23 26  1  0
M  END
>  <Classification>  (1) 
0

>  <pchembl>  (1) 
4.67

>  <InChI_steorem>  (1) 
InChI=1S/C22H28N2O2/c1-7-17-8-10-18(11-9-17)20(25)23-24(22(4,5)6)21(26)19-13-15(2)12-16(3)14-19/h8-14H,7H2,1-6H3,(H,23,25)

>  <source>  (1) 
ChEMBL25

>  <source_id>  (1) 
25

>  <optional_reference>  (1) 
10.1016/j.bmc.2016.05.039

>  <optional_origin>  (1) 
None

>  <target>  (1) 
MDR1

$$$$

     RDKit          2D

 34 37  0  0  0  0  0  0  0  0999 V2000
   -3.6710   -5.0871    0.0000 C   0  0  0  0  0  0  0  0  0  0  0  0
   -3.6710   -5.9167    0.0000 C   0  0  0  0  0  0  0  0  0  0  0  0
   -2.9566   -6.3292    0.0000 C   0  0  0  0  0  0  0  0  0  0  0  0
   -2.9566   -4.6701    0.0000 C   0  0  0  0  0  0  0  0  0  0  0  0
   -2.2376   -5.0871    0.0000 C   0  0  0  0  0  0  0  0  0  0  0  0
   -2.2365   -5.9167    0.0000 C   0  0  0  0  0  0  0  0  0  0  0  0
   -1.5215   -6.3282    0.0000 C   0  0  0  0  0  0  0  0  0  0  0  0
   -0.8031   -5.9148    0.0000 C   0  0  0  0  0  0  0  0  0  0  0  0
   -0.8042   -5.0853    0.0000 C   0  0  0  0  0  0  0  0  0  0  0  0
   -1.5237   -4.6692    0.0000 C   0  0  0  0  0  0  0  0  0  0  0  0
   -2.9577   -3.8451    0.0000 O   0  0  0  0  0  0  0  0  0  0  0  0
   -3.6728   -3.4336    0.0000 C   0  0  0  0  0  0  0  0  0  0  0  0
   -3.6739   -2.6087    0.0000 O   0  0  0  0  0  0  0  0  0  0  0  0
   -4.3864   -4.6764    0.0000 O   0  0  0  0  0  0  0  0  0  0  0  0
   -2.9652   -5.5042    0.0000 C   0  0  0  0  0  0  0  0  0  0  0  0
   -2.2457   -6.7370    0.0000 O   0  0  0  0  0  0  0  0  0  0  0  0
   -0.8112   -6.7370    0.0000 C   0  0  0  0  0  0  0  0  0  0  0  0
   -0.6003   -7.5298    0.0000 C   0  0  0  0  0  0  0  0  0  0  0  0
   -0.0184   -6.5217    0.0000 C   0  0  0  0  0  0  0  0  0  0  0  0
   -2.2457   -4.2622    0.0000 C   0  0  0  0  0  0  0  0  0  0  0  0
   -1.5259   -3.8442    0.0000 O   0  0  0  0  0  0  0  0  0  0  0  0
   -0.8125   -3.4299    0.0000 C   0  0  0  0  0  0  0  0  0  0  0  0
   -0.8147   -2.6049    0.0000 O   0  0  0  0  0  0  0  0  0  0  0  0
   -0.0971   -3.8413    0.0000 C   0  0  0  0  0  0  0  0  0  0  0  0
   -0.0087   -4.6614    0.0000 C   0  0  0  0  0  0  0  0  0  0  0  0
    0.7987   -4.8307    0.0000 C   0  0  0  0  0  0  0  0  0  0  0  0
    1.2093   -4.1151    0.0000 C   0  0  0  0  0  0  0  0  0  0  0  0
    0.6556   -3.5037    0.0000 O   0  0  0  0  0  0  0  0  0  0  0  0
   -1.5216   -7.1531    0.0000 O   0  0  0  0  0  0  0  0  0  0  0  0
   -3.6756   -6.7370    0.0000 O   0  0  0  0  0  0  0  0  0  0  0  0
   -4.3884   -3.8515    0.0000 C   0  0  0  0  0  0  0  0  0  0  0  0
   -5.0998   -5.0906    0.0000 C   0  0  0  0  0  0  0  0  0  0  0  0
   -5.8153   -4.6798    0.0000 C   0  0  0  0  0  0  0  0  0  0  0  0
   -5.0978   -5.9155    0.0000 O   0  0  0  0  0  0  0  0  0  0  0  0
  5  4  1  0
  8 17  1  0
 16 17  1  0
  5 10  1  0
 17 18  1  0
  6  7  1  0
 17 19  1  0
  7  8  1  0
  8  9  1  0
  5 20  1  0
  9 10  1  0
 10 21  1  0
  5  6  1  0
 21 22  1  0
  4 11  1  0
 22 23  2  0
 24 25  2  0
 11 12  1  0
  1  2  1  0
 12 13  2  0
 12 31  1  0
 25 26  1  0
 26 27  2  0
 27 28  1  0
 28 24  1  0
 22 24  1  0
  1  4  1  0
  7 29  1  0
  1 14  1  0
  3 30  1  0
  2  3  1  0
  3 15  1  0
 14 32  1  0
  3  6  1  0
 32 33  1  0
  6 16  1  0
 32 34  2  0
M  END
>  <Classification>  (2) 
0

>  <pchembl>  (2) 
4.76

>  <InChI_steorem>  (2) 
InChI=1S/C24H32O10/c1-12(25)31-16-11-22(5,29)24-18(27)14(21(3,4)34-24)10-17(23(24,6)19(16)32-13(2)26)33-20(28)15-8-7-9-30-15/h7-9,14,16-19,27,29H,10-11H2,1-6H3

>  <source>  (2) 
ChEMBL25

>  <source_id>  (2) 
25

>  <optional_reference>  (2) 
10.1021/jm070290v

>  <optional_origin>  (2) 
None

>  <target>  (2) 
MDR1

$$$$

     RDKit          2D

 35 37  0  0  0  0  0  0  0  0999 V2000
   15.2183   -8.0310    0.0000 C   0  0  0  0  0  0  0  0  0  0  0  0
   15.2183   -8.8560    0.0000 C   0  0  0  0  0  0  0  0  0  0  0  0
   15.9308   -9.2615    0.0000 C   0  0  0  0  0  0  0  0  0  0  0  0
   15.9308   -7.6115    0.0000 C   0  0  0  0  0  0  0  0  0  0  0  0
   16.6434   -8.0310    0.0000 C   0  0  0  0  0  0  0  0  0  0  0  0
   16.6445   -8.8560    0.0000 C   0  0  0  0  0  0  0  0  0  0  0  0
   17.3577   -9.2605    0.0000 C   0  0  0  0  0  0  0  0  0  0  0  0
   18.0744   -8.8541    0.0000 C   0  0  0  0  0  0  0  0  0  0  0  0
   18.0733   -8.0291    0.0000 C   0  0  0  0  0  0  0  0  0  0  0  0
   17.3531   -7.6113    0.0000 C   0  0  0  0  0  0  0  0  0  0  0  0
   16.6351   -9.6716    0.0000 O   0  0  0  0  0  0  0  0  0  0  0  0
   18.0661   -9.6716    0.0000 C   0  0  0  0  0  0  0  0  0  0  0  0
   18.8539   -9.4525    0.0000 C   0  0  0  0  0  0  0  0  0  0  0  0
   18.4669  -10.3754    0.0000 C   0  0  0  0  0  0  0  0  0  0  0  0
   17.3576  -10.0809    0.0000 O   0  0  0  0  0  0  0  0  0  0  0  0
   17.8041   -6.9283    0.0000 O   0  0  0  0  0  0  0  0  0  0  0  0
   16.6351   -7.2106    0.0000 C   0  0  0  0  0  0  0  0  0  0  0  0
   15.9296   -6.7911    0.0000 O   0  0  0  0  0  0  0  0  0  0  0  0
   14.5093   -7.6179    0.0000 O   0  0  0  0  0  0  0  0  0  0  0  0
   13.7977   -8.0344    0.0000 C   0  0  0  0  0  0  0  0  0  0  0  0
   13.0887   -7.6213    0.0000 C   0  0  0  0  0  0  0  0  0  0  0  0
   18.7948   -7.6089    0.0000 O   0  0  0  0  0  0  0  0  0  0  0  0
   17.3576   -6.7839    0.0000 O   0  0  0  0  0  0  0  0  0  0  0  0
   17.3492   -5.9496    0.0000 C   0  0  0  0  0  0  0  0  0  0  0  0
   18.0668   -5.5276    0.0000 C   0  0  0  0  0  0  0  0  0  0  0  0
   16.6184   -5.5420    0.0000 O   0  0  0  0  0  0  0  0  0  0  0  0
   15.9305  -10.0958    0.0000 O   0  0  0  0  0  0  0  0  0  0  0  0
   13.7986   -8.8687    0.0000 O   0  0  0  0  0  0  0  0  0  0  0  0
   15.2072   -6.3773    0.0000 C   0  0  0  0  0  0  0  0  0  0  0  0
   15.2060   -5.5430    0.0000 C   0  0  0  0  0  0  0  0  0  0  0  0
   18.6000   -6.6795    0.0000 C   0  0  0  0  0  0  0  0  0  0  0  0
   18.7817   -5.8605    0.0000 C   0  0  0  0  0  0  0  0  0  0  0  0
   15.9220   -8.4271    0.0000 C   0  0  0  0  0  0  0  0  0  0  0  0
   14.4858   -6.7932    0.0000 O   0  0  0  0  0  0  0  0  0  0  0  0
   19.2142   -7.2414    0.0000 O   0  0  0  0  0  0  0  0  0  0  0  0
  5 17  1  0
  5 10  1  0
  4 18  1  0
  6  7  1  0
  1 19  1  0
  7  8  1  0
 19 20  1  0
  8  9  1  0
 20 21  1  0
  9 10  1  0
  9 22  2  0
  5  6  1  0
 17 23  1  0
  6 11  1  0
 23 24  1  0
 24 25  1  0
  8 12  1  0
 24 26  2  0
 11 12  1  0
  3 27  1  0
  1  2  1  0
 20 28  2  0
 12 13  1  0
 18 29  1  0
  1  4  1  0
 29 30  1  0
 12 14  1  0
 16 31  1  0
  2  3  1  0
 31 32  1  0
  7 15  1  0
  3 33  1  0
  3  6  1  0
 29 34  2  0
 10 16  1  0
 31 35  2  0
  5  4  1  0
M  END
>  <Classification>  (3) 
1

>  <pchembl>  (3) 
5.12

>  <InChI_steorem>  (3) 
InChI=1S/C23H32O12/c1-10(24)31-9-22-18(33-12(3)26)14(32-11(2)25)8-21(7,30)23(22)17(29)15(20(5,6)35-23)16(28)19(22)34-13(4)27/h14-15,17-19,29-30H,8-9H2,1-7H3

>  <source>  (3) 
ChEMBL25

>  <source_id>  (3) 
25

>  <optional_reference>  (3) 
10.1021/jm070290v

>  <optional_origin>  (3) 
None

>  <target>  (3) 
MDR1

$$$$

     RDKit          2D

 37 40  0  0  0  0  0  0  0  0999 V2000
    4.5281   -4.4181    0.0000 C   0  0  0  0  0  0  0  0  0  0  0  0
    4.5281   -5.2476    0.0000 C   0  0  0  0  0  0  0  0  0  0  0  0
    5.2425   -5.6601    0.0000 C   0  0  0  0  0  0  0  0  0  0  0  0
    5.2425   -4.0010    0.0000 C   0  0  0  0  0  0  0  0  0  0  0  0
    5.9616   -4.4181    0.0000 C   0  0  0  0  0  0  0  0  0  0  0  0
    5.9626   -5.2476    0.0000 C   0  0  0  0  0  0  0  0  0  0  0  0
    6.6775   -5.6592    0.0000 C   0  0  0  0  0  0  0  0  0  0  0  0
    7.3960   -5.2458    0.0000 C   0  0  0  0  0  0  0  0  0  0  0  0
    7.3950   -4.4163    0.0000 C   0  0  0  0  0  0  0  0  0  0  0  0
    6.6754   -4.0002    0.0000 C   0  0  0  0  0  0  0  0  0  0  0  0
    5.2413   -3.1761    0.0000 O   0  0  0  0  0  0  0  0  0  0  0  0
    4.5264   -2.7646    0.0000 C   0  0  0  0  0  0  0  0  0  0  0  0
    4.5253   -1.9396    0.0000 O   0  0  0  0  0  0  0  0  0  0  0  0
    3.8126   -4.0073    0.0000 O   0  0  0  0  0  0  0  0  0  0  0  0
    5.2339   -4.8351    0.0000 C   0  0  0  0  0  0  0  0  0  0  0  0
    5.9534   -6.0681    0.0000 O   0  0  0  0  0  0  0  0  0  0  0  0
    7.3880   -6.0681    0.0000 C   0  0  0  0  0  0  0  0  0  0  0  0
    7.5987   -6.8609    0.0000 C   0  0  0  0  0  0  0  0  0  0  0  0
    8.1808   -5.8526    0.0000 C   0  0  0  0  0  0  0  0  0  0  0  0
    5.9534   -3.5932    0.0000 C   0  0  0  0  0  0  0  0  0  0  0  0
    6.6732   -3.1752    0.0000 O   0  0  0  0  0  0  0  0  0  0  0  0
    7.3866   -2.7607    0.0000 C   0  0  0  0  0  0  0  0  0  0  0  0
    7.3844   -1.9358    0.0000 O   0  0  0  0  0  0  0  0  0  0  0  0
    8.1021   -3.1721    0.0000 C   0  0  0  0  0  0  0  0  0  0  0  0
    8.1905   -3.9924    0.0000 C   0  0  0  0  0  0  0  0  0  0  0  0
    8.9979   -4.1617    0.0000 C   0  0  0  0  0  0  0  0  0  0  0  0
    9.4085   -3.4461    0.0000 C   0  0  0  0  0  0  0  0  0  0  0  0
    8.8548   -2.8347    0.0000 O   0  0  0  0  0  0  0  0  0  0  0  0
    6.6774   -6.4842    0.0000 O   0  0  0  0  0  0  0  0  0  0  0  0
    4.5235   -6.0681    0.0000 O   0  0  0  0  0  0  0  0  0  0  0  0
    3.8108   -3.1824    0.0000 C   0  0  0  0  0  0  0  0  0  0  0  0
    3.0992   -4.4215    0.0000 C   0  0  0  0  0  0  0  0  0  0  0  0
    2.3838   -4.0107    0.0000 C   0  0  0  0  0  0  0  0  0  0  0  0
    3.1012   -5.2465    0.0000 O   0  0  0  0  0  0  0  0  0  0  0  0
    5.9630   -6.8965    0.0000 C   0  0  0  0  0  0  0  0  0  0  0  0
    5.9629   -7.7215    0.0000 O   0  0  0  0  0  0  0  0  0  0  0  0
    5.2486   -6.4841    0.0000 C   0  0  0  0  0  0  0  0  0  0  0  0
  5 10  1  0
 17 18  1  0
  6  7  1  0
 17 19  1  0
  7  8  1  0
  8  9  1  0
  5 20  1  0
  9 10  1  0
 10 21  1  0
  5  6  1  0
 21 22  1  0
  4 11  1  0
 22 23  2  0
 24 25  2  0
 11 12  1  0
  1  2  1  0
 12 13  2  0
 12 31  1  0
 25 26  1  0
 26 27  2  0
 27 28  1  0
 28 24  1  0
 22 24  1  0
  1  4  1  0
  7 29  1  0
  1 14  1  0
  3 30  1  0
  2  3  1  0
  3 15  1  0
 14 32  1  0
  3  6  1  0
 32 33  1  0
  6 16  1  0
 32 34  2  0
  5  4  1  0
 29 35  1  0
  8 17  1  0
 35 36  2  0
 16 17  1  0
 35 37  1  0
M  END
>  <Classification>  (4) 
0

>  <pchembl>  (4) 
4.0

>  <InChI_steorem>  (4) 
InChI=1S/C26H34O11/c1-13(27)33-18-12-24(6,31)26-20(34-14(2)28)16(23(4,5)37-26)11-19(25(26,7)21(18)35-15(3)29)36-22(30)17-9-8-10-32-17/h8-10,16,18-21,31H,11-12H2,1-7H3

>  <source>  (4) 
ChEMBL25

>  <source_id>  (4) 
25

>  <optional_reference>  (4) 
10.1021/jm070290v

>  <optional_origin>  (4) 
None

>  <target>  (4) 
MDR1

$$$$

     RDKit          2D

 37 41  0  0  0  0  0  0  0  0999 V2000
    8.6941  -23.9008    0.0000 C   0  0  0  0  0  0  0  0  0  0  0  0
    8.6941  -24.7303    0.0000 C   0  0  0  0  0  0  0  0  0  0  0  0
    9.4085  -25.1427    0.0000 C   0  0  0  0  0  0  0  0  0  0  0  0
    9.4085  -23.4837    0.0000 C   0  0  0  0  0  0  0  0  0  0  0  0
   10.1276  -23.9008    0.0000 C   0  0  0  0  0  0  0  0  0  0  0  0
   10.1286  -24.7303    0.0000 C   0  0  0  0  0  0  0  0  0  0  0  0
   10.8435  -25.1419    0.0000 C   0  0  0  0  0  0  0  0  0  0  0  0
   11.5620  -24.7285    0.0000 C   0  0  0  0  0  0  0  0  0  0  0  0
   11.5610  -23.8989    0.0000 C   0  0  0  0  0  0  0  0  0  0  0  0
   10.8414  -23.4828    0.0000 C   0  0  0  0  0  0  0  0  0  0  0  0
    9.4073  -22.6587    0.0000 O   0  0  0  0  0  0  0  0  0  0  0  0
    9.3999  -24.3178    0.0000 C   0  0  0  0  0  0  0  0  0  0  0  0
   10.1194  -25.5507    0.0000 O   0  0  0  0  0  0  0  0  0  0  0  0
   11.5540  -25.5507    0.0000 C   0  0  0  0  0  0  0  0  0  0  0  0
   11.7647  -26.3435    0.0000 C   0  0  0  0  0  0  0  0  0  0  0  0
   12.3468  -25.3352    0.0000 C   0  0  0  0  0  0  0  0  0  0  0  0
   10.1194  -23.0758    0.0000 C   0  0  0  0  0  0  0  0  0  0  0  0
   10.8392  -22.6579    0.0000 O   0  0  0  0  0  0  0  0  0  0  0  0
   11.5525  -22.2434    0.0000 C   0  0  0  0  0  0  0  0  0  0  0  0
   11.5503  -21.4185    0.0000 O   0  0  0  0  0  0  0  0  0  0  0  0
   12.2681  -22.6548    0.0000 C   0  0  0  0  0  0  0  0  0  0  0  0
   12.3565  -23.4750    0.0000 C   0  0  0  0  0  0  0  0  0  0  0  0
   13.1638  -23.6444    0.0000 C   0  0  0  0  0  0  0  0  0  0  0  0
   13.5745  -22.9288    0.0000 C   0  0  0  0  0  0  0  0  0  0  0  0
   13.0207  -22.3173    0.0000 O   0  0  0  0  0  0  0  0  0  0  0  0
   10.8434  -25.9668    0.0000 O   0  0  0  0  0  0  0  0  0  0  0  0
   10.1290  -26.3792    0.0000 C   0  0  0  0  0  0  0  0  0  0  0  0
   10.1289  -27.2041    0.0000 C   0  0  0  0  0  0  0  0  0  0  0  0
    8.6895  -25.5507    0.0000 O   0  0  0  0  0  0  0  0  0  0  0  0
    9.4146  -25.9667    0.0000 O   0  0  0  0  0  0  0  0  0  0  0  0
    9.4601  -27.6944    0.0000 C   0  0  0  0  0  0  0  0  0  0  0  0
    9.7150  -28.4790    0.0000 C   0  0  0  0  0  0  0  0  0  0  0  0
   10.5401  -28.4791    0.0000 C   0  0  0  0  0  0  0  0  0  0  0  0
   10.7949  -27.6945    0.0000 O   0  0  0  0  0  0  0  0  0  0  0  0
    8.6924  -22.2473    0.0000 C   0  0  0  0  0  0  0  0  0  0  0  0
    8.6913  -21.4223    0.0000 O   0  0  0  0  0  0  0  0  0  0  0  0
    7.9785  -22.6607    0.0000 C   0  0  0  0  0  0  0  0  0  0  0  0
  5 17  1  0
  6  7  1  0
 10 18  1  0
  7  8  1  0
 18 19  1  0
  8  9  1  0
 19 20  2  0
 21 22  2  0
  9 10  1  0
  5  6  1  0
  4 11  1  0
  3 12  1  0
 22 23  1  0
 23 24  2  0
 24 25  1  0
 25 21  1  0
 19 21  1  0
  1  2  1  0
  7 26  1  0
  6 13  1  0
 26 27  1  0
  1  4  1  0
 27 28  1  0
  8 14  1  0
  3 29  1  0
 13 14  1  0
 27 30  2  0
 28 31  2  0
  2  3  1  0
 14 15  1  0
  3  6  1  0
 14 16  1  0
 31 32  1  0
 32 33  2  0
 33 34  1  0
 34 28  1  0
  5  4  1  0
 11 35  1  0
 35 36  2  0
  5 10  1  0
 35 37  1  0
M  END
>  <Classification>  (5) 
1

>  <pchembl>  (5) 
5.18

>  <InChI_steorem>  (5) 
InChI=1S/C27H32O10/c1-15(28)34-19-10-11-25(4,31)27-21(36-23(30)18-9-7-13-33-18)16(24(2,3)37-27)14-20(26(19,27)5)35-22(29)17-8-6-12-32-17/h6-9,12-13,16,19-21,31H,10-11,14H2,1-5H3

>  <source>  (5) 
ChEMBL25

>  <source_id>  (5) 
25

>  <optional_reference>  (5) 
10.1021/jm070290v

>  <optional_origin>  (5) 
None

>  <target>  (5) 
MDR1

$$$$

     RDKit          2D

 38 42  0  0  0  0  0  0  0  0999 V2000
   12.5001   -2.4566    0.0000 C   0  0  0  0  0  0  0  0  0  0  0  0
   12.5001   -3.2740    0.0000 C   0  0  0  0  0  0  0  0  0  0  0  0
   13.2060   -3.6757    0.0000 C   0  0  0  0  0  0  0  0  0  0  0  0
   13.2060   -2.0411    0.0000 C   0  0  0  0  0  0  0  0  0  0  0  0
   13.9120   -2.4566    0.0000 C   0  0  0  0  0  0  0  0  0  0  0  0
   13.9131   -3.2740    0.0000 C   0  0  0  0  0  0  0  0  0  0  0  0
   14.6150   -3.6747    0.0000 C   0  0  0  0  0  0  0  0  0  0  0  0
   15.3297   -3.2721    0.0000 C   0  0  0  0  0  0  0  0  0  0  0  0
   15.3286   -2.4548    0.0000 C   0  0  0  0  0  0  0  0  0  0  0  0
   14.6105   -2.0408    0.0000 C   0  0  0  0  0  0  0  0  0  0  0  0
   13.9038   -4.0820    0.0000 O   0  0  0  0  0  0  0  0  0  0  0  0
   15.3215   -4.0820    0.0000 C   0  0  0  0  0  0  0  0  0  0  0  0
   16.1019   -3.8650    0.0000 C   0  0  0  0  0  0  0  0  0  0  0  0
   15.7185   -4.7793    0.0000 C   0  0  0  0  0  0  0  0  0  0  0  0
   14.6457   -1.2285    0.0000 O   0  0  0  0  0  0  0  0  0  0  0  0
   13.9038   -1.6439    0.0000 C   0  0  0  0  0  0  0  0  0  0  0  0
   13.2048   -1.2283    0.0000 O   0  0  0  0  0  0  0  0  0  0  0  0
   12.4891   -0.8183    0.0000 C   0  0  0  0  0  0  0  0  0  0  0  0
   12.4879    0.0082    0.0000 C   0  0  0  0  0  0  0  0  0  0  0  0
   15.3781   -0.8488    0.0000 C   0  0  0  0  0  0  0  0  0  0  0  0
   15.4138   -0.0231    0.0000 C   0  0  0  0  0  0  0  0  0  0  0  0
   16.1531    0.3592    0.0000 C   0  0  0  0  0  0  0  0  0  0  0  0
   16.0787   -1.2960    0.0000 O   0  0  0  0  0  0  0  0  0  0  0  0
   16.1917    1.1895    0.0000 C   0  0  0  0  0  0  0  0  0  0  0  0
   16.9316    1.5668    0.0000 C   0  0  0  0  0  0  0  0  0  0  0  0
   16.9704    2.3964    0.0000 C   0  0  0  0  0  0  0  0  0  0  0  0
   16.2701    2.8457    0.0000 C   0  0  0  0  0  0  0  0  0  0  0  0
   15.5293    2.4596    0.0000 C   0  0  0  0  0  0  0  0  0  0  0  0
   15.4940    1.6313    0.0000 C   0  0  0  0  0  0  0  0  0  0  0  0
   13.2055    0.4188    0.0000 C   0  0  0  0  0  0  0  0  0  0  0  0
   13.2046    1.2447    0.0000 C   0  0  0  0  0  0  0  0  0  0  0  0
   12.4877    1.6577    0.0000 C   0  0  0  0  0  0  0  0  0  0  0  0
   11.7701    1.2390    0.0000 C   0  0  0  0  0  0  0  0  0  0  0  0
   11.7744    0.4146    0.0000 C   0  0  0  0  0  0  0  0  0  0  0  0
   13.2057   -4.5069    0.0000 C   0  0  0  0  0  0  0  0  0  0  0  0
   11.7815   -3.6918    0.0000 O   0  0  0  0  0  0  0  0  0  0  0  0
   11.7785   -2.0440    0.0000 O   0  0  0  0  0  0  0  0  0  0  0  0
   11.7703   -1.2357    0.0000 O   0  0  0  0  0  0  0  0  0  0  0  0
  6  7  1  0
 18 19  1  0
  7  8  1  0
  8  9  1  0
 15 20  1  0
  9 10  1  0
 20 21  1  0
  5  6  1  0
 21 22  2  3
  6 11  1  0
 20 23  2  0
 22 24  1  0
  8 12  1  0
 24 25  2  0
 11 12  1  0
 25 26  1  0
  1  2  1  0
 26 27  2  0
 12 13  1  0
 27 28  1  0
  1  4  1  0
 28 29  2  0
 29 24  1  0
 12 14  1  0
 19 30  2  0
  2  3  1  0
 30 31  1  0
 10 15  1  0
 31 32  2  0
  3  6  1  0
 32 33  1  0
  5 16  1  0
 33 34  2  0
 34 19  1  0
  5  4  1  0
  3 35  1  0
  4 17  1  0
  2 36  1  0
  5 10  1  0
  1 37  1  0
 17 18  1  0
 18 38  2  0
M  END
>  <Classification>  (6) 
1

>  <pchembl>  (6) 
5.16

>  <InChI_steorem>  (6) 
InChI=1S/C31H36O7/c1-19-25(33)26(34)27(37-28(35)21-13-9-6-10-14-21)30(4)23(17-22-18-31(19,30)38-29(22,2)3)36-24(32)16-15-20-11-7-5-8-12-20/h5-16,19,22-23,25-27,33-34H,17-18H2,1-4H3

>  <source>  (6) 
ChEMBL25

>  <source_id>  (6) 
25

>  <optional_reference>  (6) 
10.1021/jm070290v

>  <optional_origin>  (6) 
None

>  <target>  (6) 
MDR1

$$$$

     RDKit          2D

 38 42  0  0  0  0  0  0  0  0999 V2000
   13.4692    1.2420    0.0000 C   0  0  0  0  0  0  0  0  0  0  0  0
   13.4692    0.4125    0.0000 C   0  0  0  0  0  0  0  0  0  0  0  0
   14.1837    0.0000    0.0000 C   0  0  0  0  0  0  0  0  0  0  0  0
   14.1837    1.6590    0.0000 C   0  0  0  0  0  0  0  0  0  0  0  0
   14.9026    1.2420    0.0000 C   0  0  0  0  0  0  0  0  0  0  0  0
   14.9037    0.4125    0.0000 C   0  0  0  0  0  0  0  0  0  0  0  0
   15.6186    0.0009    0.0000 C   0  0  0  0  0  0  0  0  0  0  0  0
   16.3371    0.4143    0.0000 C   0  0  0  0  0  0  0  0  0  0  0  0
   16.3360    1.2438    0.0000 C   0  0  0  0  0  0  0  0  0  0  0  0
   15.6165    1.6600    0.0000 C   0  0  0  0  0  0  0  0  0  0  0  0
   14.1825    2.4839    0.0000 O   0  0  0  0  0  0  0  0  0  0  0  0
   13.4676    2.8954    0.0000 C   0  0  0  0  0  0  0  0  0  0  0  0
   13.4663    3.7203    0.0000 O   0  0  0  0  0  0  0  0  0  0  0  0
   12.7538    1.6527    0.0000 O   0  0  0  0  0  0  0  0  0  0  0  0
   14.1750    0.8249    0.0000 C   0  0  0  0  0  0  0  0  0  0  0  0
   14.8946   -0.4078    0.0000 O   0  0  0  0  0  0  0  0  0  0  0  0
   16.3290   -0.4078    0.0000 C   0  0  0  0  0  0  0  0  0  0  0  0
   16.5398   -1.2008    0.0000 C   0  0  0  0  0  0  0  0  0  0  0  0
   17.1219   -0.1925    0.0000 C   0  0  0  0  0  0  0  0  0  0  0  0
   14.8946    2.0669    0.0000 C   0  0  0  0  0  0  0  0  0  0  0  0
   15.6143    2.4849    0.0000 O   0  0  0  0  0  0  0  0  0  0  0  0
   16.3276    2.8992    0.0000 C   0  0  0  0  0  0  0  0  0  0  0  0
   16.3254    3.7242    0.0000 O   0  0  0  0  0  0  0  0  0  0  0  0
   17.0430    2.4879    0.0000 C   0  0  0  0  0  0  0  0  0  0  0  0
   17.1314    1.6678    0.0000 C   0  0  0  0  0  0  0  0  0  0  0  0
   17.9389    1.4984    0.0000 C   0  0  0  0  0  0  0  0  0  0  0  0
   18.3495    2.2139    0.0000 C   0  0  0  0  0  0  0  0  0  0  0  0
   17.7958    2.8254    0.0000 O   0  0  0  0  0  0  0  0  0  0  0  0
   15.6185   -0.8240    0.0000 O   0  0  0  0  0  0  0  0  0  0  0  0
   14.9041   -1.2364    0.0000 C   0  0  0  0  0  0  0  0  0  0  0  0
   14.9040   -2.0613    0.0000 C   0  0  0  0  0  0  0  0  0  0  0  0
   13.4647   -0.4078    0.0000 O   0  0  0  0  0  0  0  0  0  0  0  0
   14.1898   -0.8238    0.0000 O   0  0  0  0  0  0  0  0  0  0  0  0
   14.2353   -2.5516    0.0000 C   0  0  0  0  0  0  0  0  0  0  0  0
   14.4901   -3.3361    0.0000 C   0  0  0  0  0  0  0  0  0  0  0  0
   15.3151   -3.3362    0.0000 C   0  0  0  0  0  0  0  0  0  0  0  0
   15.5699   -2.5517    0.0000 O   0  0  0  0  0  0  0  0  0  0  0  0
   12.7518    2.4776    0.0000 C   0  0  0  0  0  0  0  0  0  0  0  0
 17 18  1  0
  6  7  1  0
 17 19  1  0
  7  8  1  0
  8  9  1  0
  5 20  1  0
  9 10  1  0
 10 21  1  0
  5  6  1  0
 21 22  1  0
  4 11  1  0
 22 23  2  0
 24 25  2  0
 11 12  1  0
  1  2  1  0
 12 13  2  0
 12 38  1  0
 25 26  1  0
 26 27  2  0
 27 28  1  0
 28 24  1  0
 22 24  1  0
  1  4  1  0
  7 29  1  0
  1 14  1  0
 29 30  1  0
  2  3  1  0
 30 31  1  0
  3 15  1  0
  3 32  1  0
  3  6  1  0
 30 33  2  0
 31 34  2  0
  6 16  1  0
  5  4  1  0
  8 17  1  0
 16 17  1  0
 34 35  1  0
 35 36  2  0
 36 37  1  0
 37 31  1  0
  5 10  1  0
M  END
>  <Classification>  (7) 
1

>  <pchembl>  (7) 
5.38

>  <InChI_steorem>  (7) 
InChI=1S/C27H32O11/c1-14(28)35-21-16(29)13-25(4,32)27-20(37-23(31)18-9-7-11-34-18)15(24(2,3)38-27)12-19(26(21,27)5)36-22(30)17-8-6-10-33-17/h6-11,15-16,19-21,29,32H,12-13H2,1-5H3

>  <source>  (7) 
ChEMBL25

>  <source_id>  (7) 
25

>  <optional_reference>  (7) 
10.1021/jm070290v

>  <optional_origin>  (7) 
None

>  <target>  (7) 
MDR1

$$$$

     RDKit          2D

 38 42  0  0  0  0  0  0  0  0999 V2000
   -2.6444    1.1137    0.0000 C   0  0  0  0  0  0  0  0  0  0  0  0
   -2.6444    0.2841    0.0000 C   0  0  0  0  0  0  0  0  0  0  0  0
   -1.9299   -0.1284    0.0000 C   0  0  0  0  0  0  0  0  0  0  0  0
   -1.9299    1.5307    0.0000 C   0  0  0  0  0  0  0  0  0  0  0  0
   -1.2110    1.1137    0.0000 C   0  0  0  0  0  0  0  0  0  0  0  0
   -1.2099    0.2841    0.0000 C   0  0  0  0  0  0  0  0  0  0  0  0
   -0.4950   -0.1274    0.0000 C   0  0  0  0  0  0  0  0  0  0  0  0
    0.2235    0.2860    0.0000 C   0  0  0  0  0  0  0  0  0  0  0  0
    0.2224    1.1155    0.0000 C   0  0  0  0  0  0  0  0  0  0  0  0
   -0.4970    1.5316    0.0000 C   0  0  0  0  0  0  0  0  0  0  0  0
   -1.9311    2.3557    0.0000 O   0  0  0  0  0  0  0  0  0  0  0  0
   -2.6460    2.7671    0.0000 C   0  0  0  0  0  0  0  0  0  0  0  0
   -2.6472    3.5921    0.0000 O   0  0  0  0  0  0  0  0  0  0  0  0
   -3.3598    1.5244    0.0000 O   0  0  0  0  0  0  0  0  0  0  0  0
   -1.9386    0.6966    0.0000 C   0  0  0  0  0  0  0  0  0  0  0  0
   -1.2190   -0.5362    0.0000 O   0  0  0  0  0  0  0  0  0  0  0  0
    0.2154   -0.5362    0.0000 C   0  0  0  0  0  0  0  0  0  0  0  0
    0.4262   -1.3290    0.0000 C   0  0  0  0  0  0  0  0  0  0  0  0
    1.0083   -0.3208    0.0000 C   0  0  0  0  0  0  0  0  0  0  0  0
   -1.2190    1.9386    0.0000 C   0  0  0  0  0  0  0  0  0  0  0  0
   -0.4992    2.3565    0.0000 O   0  0  0  0  0  0  0  0  0  0  0  0
    0.2140    2.7709    0.0000 C   0  0  0  0  0  0  0  0  0  0  0  0
    0.2118    3.5958    0.0000 O   0  0  0  0  0  0  0  0  0  0  0  0
    0.9294    2.3595    0.0000 C   0  0  0  0  0  0  0  0  0  0  0  0
    1.0179    1.5394    0.0000 C   0  0  0  0  0  0  0  0  0  0  0  0
    1.8253    1.3700    0.0000 C   0  0  0  0  0  0  0  0  0  0  0  0
    2.2359    2.0856    0.0000 C   0  0  0  0  0  0  0  0  0  0  0  0
    1.6822    2.6971    0.0000 O   0  0  0  0  0  0  0  0  0  0  0  0
   -0.4951   -0.9523    0.0000 O   0  0  0  0  0  0  0  0  0  0  0  0
   -2.6489   -0.5362    0.0000 O   0  0  0  0  0  0  0  0  0  0  0  0
   -3.3617    2.3493    0.0000 C   0  0  0  0  0  0  0  0  0  0  0  0
   -4.0732    1.1102    0.0000 C   0  0  0  0  0  0  0  0  0  0  0  0
   -4.7885    1.5209    0.0000 C   0  0  0  0  0  0  0  0  0  0  0  0
   -4.0712    0.2853    0.0000 O   0  0  0  0  0  0  0  0  0  0  0  0
   -4.8731    2.3455    0.0000 O   0  0  0  0  0  0  0  0  0  0  0  0
   -5.6805    2.5150    0.0000 C   0  0  0  0  0  0  0  0  0  0  0  0
   -6.0913    1.7997    0.0000 C   0  0  0  0  0  0  0  0  0  0  0  0
   -5.5377    1.1880    0.0000 C   0  0  0  0  0  0  0  0  0  0  0  0
 17 18  1  0
  6  7  1  0
 17 19  1  0
  7  8  1  0
  8  9  1  0
  5 20  1  0
  9 10  1  0
 10 21  1  0
  5  6  1  0
 21 22  1  0
  4 11  1  0
 22 23  2  0
 24 25  2  0
 11 12  1  0
  1  2  1  0
 12 13  2  0
 12 31  1  0
 25 26  1  0
 26 27  2  0
 27 28  1  0
 28 24  1  0
 22 24  1  0
  1  4  1  0
  7 29  1  0
  1 14  1  0
  3 30  1  0
  2  3  1  0
  3 15  1  0
 14 32  1  0
  3  6  1  0
 32 33  1  0
  6 16  1  0
 32 34  2  0
 33 35  1  0
  5  4  1  0
  8 17  1  0
 16 17  1  0
  5 10  1  0
 35 36  1  0
 36 37  2  0
 37 38  1  0
 38 33  2  0
M  END
>  <Classification>  (8) 
1

>  <pchembl>  (8) 
5.26

>  <InChI_steorem>  (8) 
InChI=1S/C27H32O11/c1-14(28)35-21-18(36-22(30)16-8-6-10-33-16)13-25(4,32)27-20(29)15(24(2,3)38-27)12-19(26(21,27)5)37-23(31)17-9-7-11-34-17/h6-11,15,18-21,29,32H,12-13H2,1-5H3

>  <source>  (8) 
ChEMBL25

>  <source_id>  (8) 
25

>  <optional_reference>  (8) 
10.1021/jm070290v

>  <optional_origin>  (8) 
None

>  <target>  (8) 
MDR1

$$$$

     RDKit          2D

 38 42  0  0  0  0  0  0  0  0999 V2000
    7.6671  -15.2885    0.0000 C   0  0  0  0  0  0  0  0  0  0  0  0
    7.6671  -16.1180    0.0000 C   0  0  0  0  0  0  0  0  0  0  0  0
    8.3816  -16.5305    0.0000 C   0  0  0  0  0  0  0  0  0  0  0  0
    8.3816  -14.8714    0.0000 C   0  0  0  0  0  0  0  0  0  0  0  0
    9.1005  -15.2885    0.0000 C   0  0  0  0  0  0  0  0  0  0  0  0
    9.1016  -16.1180    0.0000 C   0  0  0  0  0  0  0  0  0  0  0  0
    9.8165  -16.5295    0.0000 C   0  0  0  0  0  0  0  0  0  0  0  0
   10.5350  -16.1161    0.0000 C   0  0  0  0  0  0  0  0  0  0  0  0
   10.5339  -15.2866    0.0000 C   0  0  0  0  0  0  0  0  0  0  0  0
    9.8144  -14.8705    0.0000 C   0  0  0  0  0  0  0  0  0  0  0  0
    8.3804  -14.0465    0.0000 O   0  0  0  0  0  0  0  0  0  0  0  0
    6.9517  -14.8778    0.0000 O   0  0  0  0  0  0  0  0  0  0  0  0
    8.3729  -15.7056    0.0000 C   0  0  0  0  0  0  0  0  0  0  0  0
    9.0925  -16.9383    0.0000 O   0  0  0  0  0  0  0  0  0  0  0  0
   10.5268  -16.9383    0.0000 C   0  0  0  0  0  0  0  0  0  0  0  0
   10.7377  -17.7311    0.0000 C   0  0  0  0  0  0  0  0  0  0  0  0
   11.3197  -16.7230    0.0000 C   0  0  0  0  0  0  0  0  0  0  0  0
    9.0925  -14.4636    0.0000 C   0  0  0  0  0  0  0  0  0  0  0  0
    9.8122  -14.0456    0.0000 O   0  0  0  0  0  0  0  0  0  0  0  0
   10.5255  -13.6313    0.0000 C   0  0  0  0  0  0  0  0  0  0  0  0
   10.5233  -12.8064    0.0000 O   0  0  0  0  0  0  0  0  0  0  0  0
   11.2409  -14.0426    0.0000 C   0  0  0  0  0  0  0  0  0  0  0  0
   11.3293  -14.8627    0.0000 C   0  0  0  0  0  0  0  0  0  0  0  0
   12.1367  -15.0321    0.0000 C   0  0  0  0  0  0  0  0  0  0  0  0
   12.5473  -14.3165    0.0000 C   0  0  0  0  0  0  0  0  0  0  0  0
   11.9936  -13.7051    0.0000 O   0  0  0  0  0  0  0  0  0  0  0  0
    9.8164  -17.3544    0.0000 O   0  0  0  0  0  0  0  0  0  0  0  0
    9.1020  -17.7669    0.0000 C   0  0  0  0  0  0  0  0  0  0  0  0
    9.1019  -18.5918    0.0000 C   0  0  0  0  0  0  0  0  0  0  0  0
    7.6626  -16.9383    0.0000 O   0  0  0  0  0  0  0  0  0  0  0  0
    8.3877  -17.3543    0.0000 O   0  0  0  0  0  0  0  0  0  0  0  0
    8.4332  -19.0819    0.0000 C   0  0  0  0  0  0  0  0  0  0  0  0
    8.6880  -19.8666    0.0000 C   0  0  0  0  0  0  0  0  0  0  0  0
    9.5130  -19.8666    0.0000 C   0  0  0  0  0  0  0  0  0  0  0  0
    9.7678  -19.0821    0.0000 O   0  0  0  0  0  0  0  0  0  0  0  0
    6.2384  -15.2919    0.0000 C   0  0  0  0  0  0  0  0  0  0  0  0
    5.5230  -14.8812    0.0000 C   0  0  0  0  0  0  0  0  0  0  0  0
    6.2403  -16.1168    0.0000 O   0  0  0  0  0  0  0  0  0  0  0  0
  6  7  1  0
  5 18  1  0
  7  8  1  0
 10 19  1  0
  8  9  1  0
 19 20  1  0
  9 10  1  0
 20 21  2  0
 22 23  2  0
  5  6  1  0
  4 11  1  0
  1 12  1  0
  1  2  1  0
 23 24  1  0
 24 25  2  0
 25 26  1  0
 26 22  1  0
 20 22  1  0
  3 13  1  0
  7 27  1  0
  1  4  1  0
 27 28  1  0
  6 14  1  0
 28 29  1  0
  2  3  1  0
  3 30  1  0
  8 15  1  0
 28 31  2  0
 29 32  2  0
 14 15  1  0
  3  6  1  0
 15 16  1  0
  5  4  1  0
 32 33  1  0
 33 34  2  0
 34 35  1  0
 35 29  1  0
 15 17  1  0
 12 36  1  0
  5 10  1  0
 36 37  1  0
 36 38  2  0
M  END
>  <Classification>  (9) 
0

>  <pchembl>  (9) 
4.0

>  <InChI_steorem>  (9) 
InChI=1S/C27H32O11/c1-14(28)35-18-13-25(4,32)27-21(37-23(31)17-9-7-11-34-17)15(24(2,3)38-27)12-19(26(27,5)20(18)29)36-22(30)16-8-6-10-33-16/h6-11,15,18-21,29,32H,12-13H2,1-5H3

>  <source>  (9) 
ChEMBL25

>  <source_id>  (9) 
25

>  <optional_reference>  (9) 
10.1021/jm070290v

>  <optional_origin>  (9) 
None

>  <target>  (9) 
MDR1

$$$$

     RDKit          2D

 39 42  0  0  0  0  0  0  0  0999 V2000
   13.2085   -4.2577    0.0000 C   0  0  0  0  0  0  0  0  0  0  0  0
   13.2085   -5.0873    0.0000 C   0  0  0  0  0  0  0  0  0  0  0  0
   13.9230   -5.4997    0.0000 C   0  0  0  0  0  0  0  0  0  0  0  0
   13.9230   -3.8407    0.0000 C   0  0  0  0  0  0  0  0  0  0  0  0
   14.6420   -4.2577    0.0000 C   0  0  0  0  0  0  0  0  0  0  0  0
   14.6431   -5.0873    0.0000 C   0  0  0  0  0  0  0  0  0  0  0  0
   15.3580   -5.4989    0.0000 C   0  0  0  0  0  0  0  0  0  0  0  0
   16.0765   -5.0854    0.0000 C   0  0  0  0  0  0  0  0  0  0  0  0
   16.0754   -4.2559    0.0000 C   0  0  0  0  0  0  0  0  0  0  0  0
   15.3559   -3.8397    0.0000 C   0  0  0  0  0  0  0  0  0  0  0  0
   13.9218   -3.0157    0.0000 O   0  0  0  0  0  0  0  0  0  0  0  0
   13.2069   -2.6042    0.0000 C   0  0  0  0  0  0  0  0  0  0  0  0
   13.2056   -1.7793    0.0000 O   0  0  0  0  0  0  0  0  0  0  0  0
   12.4931   -3.8470    0.0000 O   0  0  0  0  0  0  0  0  0  0  0  0
   13.9143   -4.6748    0.0000 C   0  0  0  0  0  0  0  0  0  0  0  0
   14.6339   -5.9076    0.0000 O   0  0  0  0  0  0  0  0  0  0  0  0
   16.0684   -5.9076    0.0000 C   0  0  0  0  0  0  0  0  0  0  0  0
   16.2792   -6.7006    0.0000 C   0  0  0  0  0  0  0  0  0  0  0  0
   16.8613   -5.6922    0.0000 C   0  0  0  0  0  0  0  0  0  0  0  0
   14.6339   -3.4327    0.0000 C   0  0  0  0  0  0  0  0  0  0  0  0
   15.3537   -3.0147    0.0000 O   0  0  0  0  0  0  0  0  0  0  0  0
   16.0670   -2.6004    0.0000 C   0  0  0  0  0  0  0  0  0  0  0  0
   16.0648   -1.7754    0.0000 O   0  0  0  0  0  0  0  0  0  0  0  0
   16.7825   -3.0118    0.0000 C   0  0  0  0  0  0  0  0  0  0  0  0
   16.8709   -3.8319    0.0000 C   0  0  0  0  0  0  0  0  0  0  0  0
   17.6784   -4.0013    0.0000 C   0  0  0  0  0  0  0  0  0  0  0  0
   18.0890   -3.2858    0.0000 C   0  0  0  0  0  0  0  0  0  0  0  0
   17.5353   -2.6742    0.0000 O   0  0  0  0  0  0  0  0  0  0  0  0
   15.3579   -6.3238    0.0000 O   0  0  0  0  0  0  0  0  0  0  0  0
   12.4911   -3.0220    0.0000 C   0  0  0  0  0  0  0  0  0  0  0  0
   11.7797   -4.2611    0.0000 C   0  0  0  0  0  0  0  0  0  0  0  0
   11.0643   -3.8504    0.0000 C   0  0  0  0  0  0  0  0  0  0  0  0
   11.7817   -5.0860    0.0000 O   0  0  0  0  0  0  0  0  0  0  0  0
   14.6435   -6.7362    0.0000 C   0  0  0  0  0  0  0  0  0  0  0  0
   13.9291   -6.3236    0.0000 O   0  0  0  0  0  0  0  0  0  0  0  0
   14.6434   -7.5612    0.0000 C   0  0  0  0  0  0  0  0  0  0  0  0
   13.9289   -7.9735    0.0000 C   0  0  0  0  0  0  0  0  0  0  0  0
   13.9288   -8.7985    0.0000 C   0  0  0  0  0  0  0  0  0  0  0  0
   13.2143   -9.2110    0.0000 C   0  0  0  0  0  0  0  0  0  0  0  0
  6  7  1  0
 17 19  1  0
  7  8  1  0
  8  9  1  0
  5 20  1  0
  9 10  1  0
 10 21  1  0
  5  6  1  0
 21 22  1  0
  4 11  1  0
 22 23  2  0
 24 25  2  0
 11 12  1  0
  1  2  1  0
 12 13  2  0
 12 30  1  0
 25 26  1  0
 26 27  2  0
 27 28  1  0
 28 24  1  0
 22 24  1  0
  1  4  1  0
  7 29  1  0
  1 14  1  0
  2  3  1  0
 14 31  1  0
  3 15  1  0
 31 32  1  0
  3  6  1  0
 31 33  2  0
  6 16  1  0
 29 34  1  0
  3 35  1  0
  5  4  1  0
  8 17  1  0
 34 36  1  0
 16 17  1  0
 36 37  1  0
  5 10  1  0
 37 38  1  0
 17 18  1  0
 38 39  1  0
M  END
>  <Classification>  (10) 
1

>  <pchembl>  (10) 
5.55

>  <InChI_steorem>  (10) 
InChI=1S/C29H42O10/c1-8-9-10-13-35-23-19-15-22(38-25(32)20-12-11-14-34-20)28(7)24(37-18(3)31)21(36-17(2)30)16-27(6,33)29(23,28)39-26(19,4)5/h11-12,14,19,21-24,33H,8-10,13,15-16H2,1-7H3

>  <source>  (10) 
ChEMBL25

>  <source_id>  (10) 
25

>  <optional_reference>  (10) 
10.1021/jm070290v

>  <optional_origin>  (10) 
None

>  <target>  (10) 
MDR1

$$$$

     RDKit          2D

 39 43  0  0  0  0  0  0  0  0999 V2000
   -1.7599    0.9624    0.0000 C   0  0  0  0  0  0  0  0  0  0  0  0
   -1.7599    0.1329    0.0000 C   0  0  0  0  0  0  0  0  0  0  0  0
   -1.0455   -0.2796    0.0000 C   0  0  0  0  0  0  0  0  0  0  0  0
   -1.0455    1.3795    0.0000 C   0  0  0  0  0  0  0  0  0  0  0  0
   -0.3265    0.9624    0.0000 C   0  0  0  0  0  0  0  0  0  0  0  0
   -0.3254    0.1329    0.0000 C   0  0  0  0  0  0  0  0  0  0  0  0
    0.3896   -0.2786    0.0000 C   0  0  0  0  0  0  0  0  0  0  0  0
    1.1081    0.1347    0.0000 C   0  0  0  0  0  0  0  0  0  0  0  0
    1.1070    0.9643    0.0000 C   0  0  0  0  0  0  0  0  0  0  0  0
    0.3874    1.3804    0.0000 C   0  0  0  0  0  0  0  0  0  0  0  0
   -1.0466    2.2045    0.0000 O   0  0  0  0  0  0  0  0  0  0  0  0
   -1.7616    2.6159    0.0000 C   0  0  0  0  0  0  0  0  0  0  0  0
   -1.7627    3.4409    0.0000 O   0  0  0  0  0  0  0  0  0  0  0  0
   -2.4753    1.3731    0.0000 O   0  0  0  0  0  0  0  0  0  0  0  0
   -1.0541    0.5453    0.0000 C   0  0  0  0  0  0  0  0  0  0  0  0
   -0.3346   -0.6875    0.0000 O   0  0  0  0  0  0  0  0  0  0  0  0
    1.0999   -0.6875    0.0000 C   0  0  0  0  0  0  0  0  0  0  0  0
    1.3108   -1.4803    0.0000 C   0  0  0  0  0  0  0  0  0  0  0  0
    1.8927   -0.4721    0.0000 C   0  0  0  0  0  0  0  0  0  0  0  0
   -0.3346    1.7874    0.0000 C   0  0  0  0  0  0  0  0  0  0  0  0
    0.3852    2.2053    0.0000 O   0  0  0  0  0  0  0  0  0  0  0  0
    1.0986    2.6197    0.0000 C   0  0  0  0  0  0  0  0  0  0  0  0
    1.0964    3.4446    0.0000 O   0  0  0  0  0  0  0  0  0  0  0  0
    1.8140    2.2083    0.0000 C   0  0  0  0  0  0  0  0  0  0  0  0
    1.9024    1.3882    0.0000 C   0  0  0  0  0  0  0  0  0  0  0  0
    2.7098    1.2188    0.0000 C   0  0  0  0  0  0  0  0  0  0  0  0
    3.1204    1.9344    0.0000 C   0  0  0  0  0  0  0  0  0  0  0  0
    2.5667    2.5459    0.0000 O   0  0  0  0  0  0  0  0  0  0  0  0
    0.3895   -1.1036    0.0000 O   0  0  0  0  0  0  0  0  0  0  0  0
   -2.4772    2.1981    0.0000 C   0  0  0  0  0  0  0  0  0  0  0  0
   -3.1887    0.9590    0.0000 C   0  0  0  0  0  0  0  0  0  0  0  0
   -3.9042    1.3697    0.0000 C   0  0  0  0  0  0  0  0  0  0  0  0
   -3.1867    0.1341    0.0000 O   0  0  0  0  0  0  0  0  0  0  0  0
   -1.0394   -1.1034    0.0000 O   0  0  0  0  0  0  0  0  0  0  0  0
   -3.9028    2.1952    0.0000 C   0  0  0  0  0  0  0  0  0  0  0  0
   -4.6174    2.6059    0.0000 C   0  0  0  0  0  0  0  0  0  0  0  0
   -5.3318    2.1917    0.0000 C   0  0  0  0  0  0  0  0  0  0  0  0
   -5.3272    1.3625    0.0000 C   0  0  0  0  0  0  0  0  0  0  0  0
   -4.6120    0.9556    0.0000 C   0  0  0  0  0  0  0  0  0  0  0  0
  6  7  1  0
 17 19  1  0
  7  8  1  0
  8  9  1  0
  5 20  1  0
  9 10  1  0
 10 21  1  0
  5  6  1  0
 21 22  1  0
  4 11  1  0
 22 23  2  0
 24 25  2  0
 11 12  1  0
  1  2  1  0
 12 13  2  0
 12 30  1  0
 25 26  1  0
 26 27  2  0
 27 28  1  0
 28 24  1  0
 22 24  1  0
  1  4  1  0
  7 29  1  0
  1 14  1  0
  2  3  1  0
 14 31  1  0
  3 15  1  0
 31 32  1  0
  3  6  1  0
 31 33  2  0
  3 34  1  0
  6 16  1  0
  5  4  1  0
 32 35  2  0
  8 17  1  0
 35 36  1  0
 16 17  1  0
 36 37  2  0
  5 10  1  0
 37 38  1  0
 17 18  1  0
 38 39  2  0
 39 32  1  0
M  END
>  <Classification>  (11) 
1

>  <pchembl>  (11) 
5.6

>  <InChI_steorem>  (11) 
InChI=1S/C29H34O10/c1-16(30)36-23-20(37-24(32)17-10-7-6-8-11-17)15-27(4,34)29-22(31)18(26(2,3)39-29)14-21(28(23,29)5)38-25(33)19-12-9-13-35-19/h6-13,18,20-23,31,34H,14-15H2,1-5H3

>  <source>  (11) 
ChEMBL25

>  <source_id>  (11) 
25

>  <optional_reference>  (11) 
10.1021/jm070290v

>  <optional_origin>  (11) 
None

>  <target>  (11) 
MDR1

$$$$

     RDKit          2D

 39 43  0  0  0  0  0  0  0  0999 V2000
    8.4842  -25.8704    0.0000 C   0  0  0  0  0  0  0  0  0  0  0  0
    8.4842  -26.6923    0.0000 C   0  0  0  0  0  0  0  0  0  0  0  0
    9.1941  -27.0964    0.0000 C   0  0  0  0  0  0  0  0  0  0  0  0
    9.1941  -25.4525    0.0000 C   0  0  0  0  0  0  0  0  0  0  0  0
    9.9040  -25.8704    0.0000 C   0  0  0  0  0  0  0  0  0  0  0  0
    9.9051  -26.6923    0.0000 C   0  0  0  0  0  0  0  0  0  0  0  0
   10.6110  -27.0955    0.0000 C   0  0  0  0  0  0  0  0  0  0  0  0
   11.3297  -26.6905    0.0000 C   0  0  0  0  0  0  0  0  0  0  0  0
   11.3286  -25.8685    0.0000 C   0  0  0  0  0  0  0  0  0  0  0  0
   10.6065  -25.4522    0.0000 C   0  0  0  0  0  0  0  0  0  0  0  0
    9.8959  -27.5050    0.0000 O   0  0  0  0  0  0  0  0  0  0  0  0
   11.3215  -27.5050    0.0000 C   0  0  0  0  0  0  0  0  0  0  0  0
   12.1063  -27.2867    0.0000 C   0  0  0  0  0  0  0  0  0  0  0  0
   11.7209  -28.2062    0.0000 C   0  0  0  0  0  0  0  0  0  0  0  0
   10.6418  -24.6353    0.0000 O   0  0  0  0  0  0  0  0  0  0  0  0
    9.8959  -25.0531    0.0000 C   0  0  0  0  0  0  0  0  0  0  0  0
    9.1930  -24.6352    0.0000 O   0  0  0  0  0  0  0  0  0  0  0  0
    7.7778  -25.4588    0.0000 O   0  0  0  0  0  0  0  0  0  0  0  0
    7.0688  -25.8739    0.0000 C   0  0  0  0  0  0  0  0  0  0  0  0
    6.3579  -25.4623    0.0000 C   0  0  0  0  0  0  0  0  0  0  0  0
    9.1939  -27.9276    0.0000 O   0  0  0  0  0  0  0  0  0  0  0  0
    7.0697  -26.7052    0.0000 O   0  0  0  0  0  0  0  0  0  0  0  0
    8.4731  -24.2229    0.0000 C   0  0  0  0  0  0  0  0  0  0  0  0
    8.4719  -23.3916    0.0000 C   0  0  0  0  0  0  0  0  0  0  0  0
    9.1965  -22.9743    0.0000 C   0  0  0  0  0  0  0  0  0  0  0  0
    9.1958  -22.1484    0.0000 C   0  0  0  0  0  0  0  0  0  0  0  0
    8.4754  -21.7349    0.0000 C   0  0  0  0  0  0  0  0  0  0  0  0
    7.7543  -22.1520    0.0000 C   0  0  0  0  0  0  0  0  0  0  0  0
    7.7587  -22.9786    0.0000 C   0  0  0  0  0  0  0  0  0  0  0  0
    9.1854  -26.2652    0.0000 C   0  0  0  0  0  0  0  0  0  0  0  0
   11.3784  -24.2536    0.0000 C   0  0  0  0  0  0  0  0  0  0  0  0
   11.4144  -23.4231    0.0000 C   0  0  0  0  0  0  0  0  0  0  0  0
   12.1538  -23.0410    0.0000 C   0  0  0  0  0  0  0  0  0  0  0  0
   12.1901  -22.2113    0.0000 C   0  0  0  0  0  0  0  0  0  0  0  0
   11.4883  -21.7641    0.0000 C   0  0  0  0  0  0  0  0  0  0  0  0
   10.7486  -22.1525    0.0000 C   0  0  0  0  0  0  0  0  0  0  0  0
   10.7159  -22.9809    0.0000 C   0  0  0  0  0  0  0  0  0  0  0  0
    7.7503  -24.6426    0.0000 O   0  0  0  0  0  0  0  0  0  0  0  0
   12.0831  -24.7032    0.0000 O   0  0  0  0  0  0  0  0  0  0  0  0
 18 19  1  0
  7  8  1  0
 19 20  1  0
  8  9  1  0
  3 21  1  0
  9 10  1  0
 19 22  2  0
  5  6  1  0
 17 23  1  0
  6 11  1  0
 23 24  1  0
 24 25  2  0
  8 12  1  0
 25 26  1  0
 11 12  1  0
 26 27  2  0
  1  2  1  0
 27 28  1  0
 12 13  1  0
 28 29  2  0
 29 24  1  0
  1  4  1  0
  3 30  1  0
 12 14  1  0
  2  3  1  0
 15 31  1  0
 10 15  1  0
 31 32  1  0
  3  6  1  0
 32 33  2  0
  5 16  1  0
 33 34  1  0
  5  4  1  0
 34 35  2  0
  4 17  1  0
 35 36  1  0
  5 10  1  0
 36 37  2  0
 37 32  1  0
  1 18  1  0
 23 38  2  0
  6  7  1  0
 31 39  2  0
M  END
>  <Classification>  (12) 
1

>  <pchembl>  (12) 
5.12

>  <InChI_steorem>  (12) 
InChI=1S/C31H36O8/c1-19(32)36-23-18-29(4,35)31-17-22(28(2,3)39-31)16-24(37-26(33)20-12-8-6-9-13-20)30(31,5)25(23)38-27(34)21-14-10-7-11-15-21/h6-15,22-25,35H,16-18H2,1-5H3

>  <source>  (12) 
ChEMBL25

>  <source_id>  (12) 
25

>  <optional_reference>  (12) 
10.1021/jm070290v

>  <optional_origin>  (12) 
None

>  <target>  (12) 
MDR1

$$$$

     RDKit          2D

 40 43  0  0  0  0  0  0  0  0999 V2000
   12.9885  -12.2598    0.0000 C   0  0  0  0  0  0  0  0  0  0  0  0
   12.9885  -13.0894    0.0000 C   0  0  0  0  0  0  0  0  0  0  0  0
   13.7030  -13.5019    0.0000 C   0  0  0  0  0  0  0  0  0  0  0  0
   13.7030  -11.8428    0.0000 C   0  0  0  0  0  0  0  0  0  0  0  0
   14.4220  -12.2598    0.0000 C   0  0  0  0  0  0  0  0  0  0  0  0
   14.4231  -13.0894    0.0000 C   0  0  0  0  0  0  0  0  0  0  0  0
   15.1380  -13.5010    0.0000 C   0  0  0  0  0  0  0  0  0  0  0  0
   15.8565  -13.0875    0.0000 C   0  0  0  0  0  0  0  0  0  0  0  0
   15.8554  -12.2580    0.0000 C   0  0  0  0  0  0  0  0  0  0  0  0
   15.1359  -11.8418    0.0000 C   0  0  0  0  0  0  0  0  0  0  0  0
   13.7018  -11.0178    0.0000 O   0  0  0  0  0  0  0  0  0  0  0  0
   12.9869  -10.6064    0.0000 C   0  0  0  0  0  0  0  0  0  0  0  0
   12.9857   -9.7814    0.0000 O   0  0  0  0  0  0  0  0  0  0  0  0
   12.2731  -11.8491    0.0000 O   0  0  0  0  0  0  0  0  0  0  0  0
   13.6944  -12.6769    0.0000 C   0  0  0  0  0  0  0  0  0  0  0  0
   14.4139  -13.9097    0.0000 O   0  0  0  0  0  0  0  0  0  0  0  0
   15.8484  -13.9097    0.0000 C   0  0  0  0  0  0  0  0  0  0  0  0
   16.0592  -14.7027    0.0000 C   0  0  0  0  0  0  0  0  0  0  0  0
   16.6413  -13.6944    0.0000 C   0  0  0  0  0  0  0  0  0  0  0  0
   14.4139  -11.4348    0.0000 C   0  0  0  0  0  0  0  0  0  0  0  0
   15.1337  -11.0169    0.0000 O   0  0  0  0  0  0  0  0  0  0  0  0
   15.8471  -10.6025    0.0000 C   0  0  0  0  0  0  0  0  0  0  0  0
   15.8449   -9.7775    0.0000 O   0  0  0  0  0  0  0  0  0  0  0  0
   16.5625  -11.0139    0.0000 C   0  0  0  0  0  0  0  0  0  0  0  0
   16.6509  -11.8340    0.0000 C   0  0  0  0  0  0  0  0  0  0  0  0
   17.4584  -12.0034    0.0000 C   0  0  0  0  0  0  0  0  0  0  0  0
   17.8690  -11.2879    0.0000 C   0  0  0  0  0  0  0  0  0  0  0  0
   17.3153  -10.6763    0.0000 O   0  0  0  0  0  0  0  0  0  0  0  0
   15.1379  -14.3259    0.0000 O   0  0  0  0  0  0  0  0  0  0  0  0
   12.2711  -11.0241    0.0000 C   0  0  0  0  0  0  0  0  0  0  0  0
   11.5597  -12.2633    0.0000 C   0  0  0  0  0  0  0  0  0  0  0  0
   10.8443  -11.8525    0.0000 C   0  0  0  0  0  0  0  0  0  0  0  0
   11.5617  -13.0882    0.0000 O   0  0  0  0  0  0  0  0  0  0  0  0
   14.4235  -14.7383    0.0000 C   0  0  0  0  0  0  0  0  0  0  0  0
   14.4234  -15.5633    0.0000 C   0  0  0  0  0  0  0  0  0  0  0  0
   13.1123  -14.0840    0.0000 O   0  0  0  0  0  0  0  0  0  0  0  0
   13.7091  -14.3257    0.0000 O   0  0  0  0  0  0  0  0  0  0  0  0
   14.4184  -16.3846    0.0000 C   0  0  0  0  0  0  0  0  0  0  0  0
   15.2484  -15.5658    0.0000 C   0  0  0  0  0  0  0  0  0  0  0  0
   13.5984  -15.5644    0.0000 C   0  0  0  0  0  0  0  0  0  0  0  0
 17 19  1  0
  7  8  1  0
  8  9  1  0
  5 20  1  0
  9 10  1  0
 10 21  1  0
  5  6  1  0
 21 22  1  0
  4 11  1  0
 22 23  2  0
 24 25  2  0
 11 12  1  0
  1  2  1  0
 12 13  2  0
 12 30  1  0
 25 26  1  0
 26 27  2  0
 27 28  1  0
 28 24  1  0
 22 24  1  0
  1  4  1  0
  7 29  1  0
  1 14  1  0
  2  3  1  0
 14 31  1  0
  3 15  1  0
 31 32  1  0
  3  6  1  0
 31 33  2  0
  6 16  1  0
 29 34  1  0
  5  4  1  0
 34 35  1  0
  8 17  1  0
  3 36  1  0
 16 17  1  0
 34 37  2  0
  5 10  1  0
 35 38  1  0
 17 18  1  0
 35 39  1  0
  6  7  1  0
 35 40  1  0
M  END
>  <Classification>  (13) 
1

>  <pchembl>  (13) 
6.02

>  <InChI_steorem>  (13) 
InChI=1S/C29H40O11/c1-15(30)36-19-14-27(8,34)29-21(39-24(33)25(3,4)5)17(26(6,7)40-29)13-20(28(29,9)22(19)37-16(2)31)38-23(32)18-11-10-12-35-18/h10-12,17,19-22,34H,13-14H2,1-9H3

>  <source>  (13) 
ChEMBL25

>  <source_id>  (13) 
25

>  <optional_reference>  (13) 
10.1021/jm070290v

>  <optional_origin>  (13) 
None

>  <target>  (13) 
MDR1

$$$$

     RDKit          2D

 40 43  0  0  0  0  0  0  0  0999 V2000
   -2.6673  -21.4623    0.0000 C   0  0  0  0  0  0  0  0  0  0  0  0
   -2.6673  -22.2918    0.0000 C   0  0  0  0  0  0  0  0  0  0  0  0
   -1.9529  -22.7043    0.0000 C   0  0  0  0  0  0  0  0  0  0  0  0
   -1.9529  -21.0452    0.0000 C   0  0  0  0  0  0  0  0  0  0  0  0
   -1.2339  -21.4623    0.0000 C   0  0  0  0  0  0  0  0  0  0  0  0
   -1.2328  -22.2918    0.0000 C   0  0  0  0  0  0  0  0  0  0  0  0
   -0.5178  -22.7033    0.0000 C   0  0  0  0  0  0  0  0  0  0  0  0
    0.2006  -22.2900    0.0000 C   0  0  0  0  0  0  0  0  0  0  0  0
    0.1995  -21.4604    0.0000 C   0  0  0  0  0  0  0  0  0  0  0  0
   -0.5200  -21.0443    0.0000 C   0  0  0  0  0  0  0  0  0  0  0  0
   -1.9540  -20.2202    0.0000 O   0  0  0  0  0  0  0  0  0  0  0  0
   -2.6691  -19.8087    0.0000 C   0  0  0  0  0  0  0  0  0  0  0  0
   -2.6702  -18.9838    0.0000 O   0  0  0  0  0  0  0  0  0  0  0  0
   -3.3827  -21.0516    0.0000 O   0  0  0  0  0  0  0  0  0  0  0  0
   -1.9615  -21.8794    0.0000 C   0  0  0  0  0  0  0  0  0  0  0  0
   -1.2420  -23.1122    0.0000 O   0  0  0  0  0  0  0  0  0  0  0  0
    0.1925  -23.1122    0.0000 C   0  0  0  0  0  0  0  0  0  0  0  0
    0.4033  -23.9050    0.0000 C   0  0  0  0  0  0  0  0  0  0  0  0
    0.9853  -22.8968    0.0000 C   0  0  0  0  0  0  0  0  0  0  0  0
   -1.2420  -20.6373    0.0000 C   0  0  0  0  0  0  0  0  0  0  0  0
   -0.5222  -20.2194    0.0000 O   0  0  0  0  0  0  0  0  0  0  0  0
    0.1912  -19.8050    0.0000 C   0  0  0  0  0  0  0  0  0  0  0  0
    0.1890  -18.9801    0.0000 O   0  0  0  0  0  0  0  0  0  0  0  0
    0.9066  -20.2164    0.0000 C   0  0  0  0  0  0  0  0  0  0  0  0
    0.9950  -21.0365    0.0000 C   0  0  0  0  0  0  0  0  0  0  0  0
    1.8023  -21.2059    0.0000 C   0  0  0  0  0  0  0  0  0  0  0  0
    2.2129  -20.4903    0.0000 C   0  0  0  0  0  0  0  0  0  0  0  0
    1.6592  -19.8788    0.0000 O   0  0  0  0  0  0  0  0  0  0  0  0
   -0.5180  -23.5283    0.0000 O   0  0  0  0  0  0  0  0  0  0  0  0
   -3.3847  -20.2266    0.0000 C   0  0  0  0  0  0  0  0  0  0  0  0
   -4.0961  -21.4657    0.0000 C   0  0  0  0  0  0  0  0  0  0  0  0
   -4.8116  -21.0550    0.0000 C   0  0  0  0  0  0  0  0  0  0  0  0
   -4.0941  -22.2906    0.0000 O   0  0  0  0  0  0  0  0  0  0  0  0
   -1.2325  -23.9407    0.0000 C   0  0  0  0  0  0  0  0  0  0  0  0
   -1.2326  -24.7657    0.0000 C   0  0  0  0  0  0  0  0  0  0  0  0
   -2.5436  -23.2863    0.0000 O   0  0  0  0  0  0  0  0  0  0  0  0
   -1.9469  -23.5281    0.0000 O   0  0  0  0  0  0  0  0  0  0  0  0
   -0.4076  -24.7681    0.0000 F   0  0  0  0  0  0  0  0  0  0  0  0
   -2.0575  -24.7668    0.0000 F   0  0  0  0  0  0  0  0  0  0  0  0
   -1.2326  -25.5906    0.0000 F   0  0  0  0  0  0  0  0  0  0  0  0
 17 19  1  0
  7  8  1  0
  8  9  1  0
  5 20  1  0
  9 10  1  0
 10 21  1  0
  5  6  1  0
 21 22  1  0
  4 11  1  0
 22 23  2  0
 24 25  2  0
 11 12  1  0
  1  2  1  0
 12 13  2  0
 12 30  1  0
 25 26  1  0
 26 27  2  0
 27 28  1  0
 28 24  1  0
 22 24  1  0
  1  4  1  0
  7 29  1  0
  1 14  1  0
  2  3  1  0
 14 31  1  0
  3 15  1  0
 31 32  1  0
  3  6  1  0
 31 33  2  0
  6 16  1  0
 29 34  1  0
  5  4  1  0
 34 35  1  0
  8 17  1  0
  3 36  1  0
 16 17  1  0
 34 37  2  0
  5 10  1  0
 35 38  1  0
 17 18  1  0
 35 39  1  0
  6  7  1  0
 35 40  1  0
M  END
>  <Classification>  (14) 
0

>  <pchembl>  (14) 
4.92

>  <InChI_steorem>  (14) 
InChI=1S/C26H31F3O11/c1-12(30)36-16-11-23(5,34)25-18(39-21(33)26(27,28)29)14(22(3,4)40-25)10-17(24(25,6)19(16)37-13(2)31)38-20(32)15-8-7-9-35-15/h7-9,14,16-19,34H,10-11H2,1-6H3

>  <source>  (14) 
ChEMBL25

>  <source_id>  (14) 
25

>  <optional_reference>  (14) 
10.1021/jm070290v

>  <optional_origin>  (14) 
None

>  <target>  (14) 
MDR1

$$$$

     RDKit          2D

 41 45  0  0  0  0  0  0  0  0999 V2000
   -2.2088  -26.4636    0.0000 C   0  0  0  0  0  0  0  0  0  0  0  0
   -2.2088  -27.2815    0.0000 C   0  0  0  0  0  0  0  0  0  0  0  0
   -1.5023  -27.6835    0.0000 C   0  0  0  0  0  0  0  0  0  0  0  0
   -1.5023  -26.0477    0.0000 C   0  0  0  0  0  0  0  0  0  0  0  0
   -0.7958  -26.4636    0.0000 C   0  0  0  0  0  0  0  0  0  0  0  0
   -0.7948  -27.2815    0.0000 C   0  0  0  0  0  0  0  0  0  0  0  0
   -0.0924  -27.6826    0.0000 C   0  0  0  0  0  0  0  0  0  0  0  0
    0.6227  -27.2796    0.0000 C   0  0  0  0  0  0  0  0  0  0  0  0
    0.6217  -26.4617    0.0000 C   0  0  0  0  0  0  0  0  0  0  0  0
   -0.0969  -26.0475    0.0000 C   0  0  0  0  0  0  0  0  0  0  0  0
   -0.8040  -28.0902    0.0000 O   0  0  0  0  0  0  0  0  0  0  0  0
    0.6146  -28.0902    0.0000 C   0  0  0  0  0  0  0  0  0  0  0  0
    1.3955  -27.8729    0.0000 C   0  0  0  0  0  0  0  0  0  0  0  0
    1.0120  -28.7879    0.0000 C   0  0  0  0  0  0  0  0  0  0  0  0
   -0.0617  -25.2346    0.0000 O   0  0  0  0  0  0  0  0  0  0  0  0
   -0.8040  -25.6504    0.0000 C   0  0  0  0  0  0  0  0  0  0  0  0
   -1.5035  -25.2345    0.0000 O   0  0  0  0  0  0  0  0  0  0  0  0
   -2.9116  -26.0541    0.0000 O   0  0  0  0  0  0  0  0  0  0  0  0
   -3.6170  -26.4670    0.0000 C   0  0  0  0  0  0  0  0  0  0  0  0
   -4.3246  -26.0575    0.0000 C   0  0  0  0  0  0  0  0  0  0  0  0
   -1.5026  -28.5106    0.0000 O   0  0  0  0  0  0  0  0  0  0  0  0
   -3.6162  -27.2943    0.0000 O   0  0  0  0  0  0  0  0  0  0  0  0
   -2.2198  -24.8243    0.0000 C   0  0  0  0  0  0  0  0  0  0  0  0
   -2.2209  -23.9971    0.0000 C   0  0  0  0  0  0  0  0  0  0  0  0
   -1.5110  -26.8564    0.0000 C   0  0  0  0  0  0  0  0  0  0  0  0
    0.6712  -24.8548    0.0000 C   0  0  0  0  0  0  0  0  0  0  0  0
    0.7070  -24.0283    0.0000 C   0  0  0  0  0  0  0  0  0  0  0  0
    1.4468  -23.6459    0.0000 C   0  0  0  0  0  0  0  0  0  0  0  0
    1.3724  -25.3021    0.0000 O   0  0  0  0  0  0  0  0  0  0  0  0
    1.4854  -22.8150    0.0000 C   0  0  0  0  0  0  0  0  0  0  0  0
    2.2258  -22.4374    0.0000 C   0  0  0  0  0  0  0  0  0  0  0  0
    2.2647  -21.6073    0.0000 C   0  0  0  0  0  0  0  0  0  0  0  0
    1.5639  -21.1576    0.0000 C   0  0  0  0  0  0  0  0  0  0  0  0
    0.8224  -21.5440    0.0000 C   0  0  0  0  0  0  0  0  0  0  0  0
    0.7872  -22.3728    0.0000 C   0  0  0  0  0  0  0  0  0  0  0  0
   -1.5029  -23.5862    0.0000 C   0  0  0  0  0  0  0  0  0  0  0  0
   -1.5037  -22.7598    0.0000 C   0  0  0  0  0  0  0  0  0  0  0  0
   -2.2212  -22.3464    0.0000 C   0  0  0  0  0  0  0  0  0  0  0  0
   -2.9393  -22.7654    0.0000 C   0  0  0  0  0  0  0  0  0  0  0  0
   -2.9349  -23.5904    0.0000 C   0  0  0  0  0  0  0  0  0  0  0  0
   -2.9391  -25.2418    0.0000 O   0  0  0  0  0  0  0  0  0  0  0  0
 19 20  1  0
  8  9  1  0
  3 21  1  0
  9 10  1  0
 19 22  2  0
  5  6  1  0
 17 23  1  0
  6 11  1  0
 23 24  1  0
  3 25  1  0
  8 12  1  0
 11 12  1  0
 15 26  1  0
  1  2  1  0
 26 27  1  0
 12 13  1  0
 27 28  2  3
  1  4  1  0
 26 29  2  0
 12 14  1  0
 28 30  1  0
  2  3  1  0
 30 31  2  0
 10 15  1  0
 31 32  1  0
  3  6  1  0
 32 33  2  0
  5 16  1  0
 33 34  1  0
  5  4  1  0
 34 35  2  0
 35 30  1  0
  4 17  1  0
 24 36  2  0
  5 10  1  0
 36 37  1  0
  1 18  1  0
 37 38  2  0
  6  7  1  0
 38 39  1  0
 18 19  1  0
 39 40  2  0
 40 24  1  0
  7  8  1  0
 23 41  2  0
M  END
>  <Classification>  (15) 
1

>  <pchembl>  (15) 
5.12

>  <InChI_steorem>  (15) 
InChI=1S/C33H38O8/c1-21(34)38-25-20-31(4,37)33-19-24(30(2,3)41-33)18-26(39-27(35)17-16-22-12-8-6-9-13-22)32(33,5)28(25)40-29(36)23-14-10-7-11-15-23/h6-17,24-26,28,37H,18-20H2,1-5H3

>  <source>  (15) 
ChEMBL25

>  <source_id>  (15) 
25

>  <optional_reference>  (15) 
10.1021/jm070290v

>  <optional_origin>  (15) 
None

>  <target>  (15) 
MDR1

$$$$

     RDKit          2D

 41 45  0  0  0  0  0  0  0  0999 V2000
   -3.2993   -1.5895    0.0000 C   0  0  0  0  0  0  0  0  0  0  0  0
   -3.2993   -2.4074    0.0000 C   0  0  0  0  0  0  0  0  0  0  0  0
   -2.5929   -2.8094    0.0000 C   0  0  0  0  0  0  0  0  0  0  0  0
   -2.5929   -1.1737    0.0000 C   0  0  0  0  0  0  0  0  0  0  0  0
   -1.8864   -1.5895    0.0000 C   0  0  0  0  0  0  0  0  0  0  0  0
   -1.8853   -2.4074    0.0000 C   0  0  0  0  0  0  0  0  0  0  0  0
   -1.1830   -2.8086    0.0000 C   0  0  0  0  0  0  0  0  0  0  0  0
   -0.4678   -2.4057    0.0000 C   0  0  0  0  0  0  0  0  0  0  0  0
   -0.4689   -1.5878    0.0000 C   0  0  0  0  0  0  0  0  0  0  0  0
   -1.1874   -1.1735    0.0000 C   0  0  0  0  0  0  0  0  0  0  0  0
   -1.8945   -3.2161    0.0000 O   0  0  0  0  0  0  0  0  0  0  0  0
   -0.4760   -3.2161    0.0000 C   0  0  0  0  0  0  0  0  0  0  0  0
    0.3050   -2.9990    0.0000 C   0  0  0  0  0  0  0  0  0  0  0  0
   -0.0785   -3.9139    0.0000 C   0  0  0  0  0  0  0  0  0  0  0  0
   -1.1523   -0.3606    0.0000 O   0  0  0  0  0  0  0  0  0  0  0  0
   -1.8945   -0.7763    0.0000 C   0  0  0  0  0  0  0  0  0  0  0  0
   -2.5940   -0.3604    0.0000 O   0  0  0  0  0  0  0  0  0  0  0  0
   -4.0022   -1.1801    0.0000 O   0  0  0  0  0  0  0  0  0  0  0  0
   -4.7076   -1.5931    0.0000 C   0  0  0  0  0  0  0  0  0  0  0  0
   -5.4150   -1.1835    0.0000 C   0  0  0  0  0  0  0  0  0  0  0  0
   -4.7067   -2.4202    0.0000 O   0  0  0  0  0  0  0  0  0  0  0  0
   -3.3103    0.0498    0.0000 C   0  0  0  0  0  0  0  0  0  0  0  0
   -3.3115    0.8769    0.0000 C   0  0  0  0  0  0  0  0  0  0  0  0
   -0.4193    0.0193    0.0000 C   0  0  0  0  0  0  0  0  0  0  0  0
   -0.3835    0.8456    0.0000 C   0  0  0  0  0  0  0  0  0  0  0  0
    0.3563    1.2282    0.0000 C   0  0  0  0  0  0  0  0  0  0  0  0
    0.2819   -0.4281    0.0000 O   0  0  0  0  0  0  0  0  0  0  0  0
    0.3948    2.0591    0.0000 C   0  0  0  0  0  0  0  0  0  0  0  0
    1.1353    2.4367    0.0000 C   0  0  0  0  0  0  0  0  0  0  0  0
    1.1741    3.2668    0.0000 C   0  0  0  0  0  0  0  0  0  0  0  0
    0.4733    3.7164    0.0000 C   0  0  0  0  0  0  0  0  0  0  0  0
   -0.2680    3.3300    0.0000 C   0  0  0  0  0  0  0  0  0  0  0  0
   -0.3033    2.5011    0.0000 C   0  0  0  0  0  0  0  0  0  0  0  0
   -2.5934    1.2879    0.0000 C   0  0  0  0  0  0  0  0  0  0  0  0
   -2.5943    2.1142    0.0000 C   0  0  0  0  0  0  0  0  0  0  0  0
   -3.3117    2.5276    0.0000 C   0  0  0  0  0  0  0  0  0  0  0  0
   -4.0298    2.1086    0.0000 C   0  0  0  0  0  0  0  0  0  0  0  0
   -4.0255    1.2836    0.0000 C   0  0  0  0  0  0  0  0  0  0  0  0
   -2.5931   -3.6412    0.0000 C   0  0  0  0  0  0  0  0  0  0  0  0
   -4.0183   -2.8256    0.0000 O   0  0  0  0  0  0  0  0  0  0  0  0
   -4.0296   -0.3679    0.0000 O   0  0  0  0  0  0  0  0  0  0  0  0
 19 20  1  0
  8  9  1  0
 19 21  2  0
  9 10  1  0
 17 22  1  0
  5  6  1  0
 22 23  1  0
  6 11  1  0
 15 24  1  0
  8 12  1  0
 24 25  1  0
 11 12  1  0
 25 26  2  3
  1  2  1  0
 24 27  2  0
 12 13  1  0
 26 28  1  0
  1  4  1  0
 28 29  2  0
 12 14  1  0
 29 30  1  0
  2  3  1  0
 30 31  2  0
 10 15  1  0
 31 32  1  0
  3  6  1  0
 32 33  2  0
 33 28  1  0
  5 16  1  0
 23 34  2  0
  5  4  1  0
 34 35  1  0
  4 17  1  0
 35 36  2  0
  5 10  1  0
 36 37  1  0
  1 18  1  0
 37 38  2  0
 38 23  1  0
  6  7  1  0
  3 39  1  0
 18 19  1  0
  2 40  1  0
  7  8  1  0
 22 41  2  0
M  END
>  <Classification>  (16) 
1

>  <pchembl>  (16) 
5.07

>  <InChI_steorem>  (16) 
InChI=1S/C33H38O8/c1-20-27(36)28(38-21(2)34)29(40-30(37)23-14-10-7-11-15-23)32(5)25(18-24-19-33(20,32)41-31(24,3)4)39-26(35)17-16-22-12-8-6-9-13-22/h6-17,20,24-25,27-29,36H,18-19H2,1-5H3

>  <source>  (16) 
ChEMBL25

>  <source_id>  (16) 
25

>  <optional_reference>  (16) 
10.1021/jm070290v

>  <optional_origin>  (16) 
None

>  <target>  (16) 
MDR1

$$$$

     RDKit          2D

 41 45  0  0  0  0  0  0  0  0999 V2000
    4.7797   -2.0023    0.0000 C   0  0  0  0  0  0  0  0  0  0  0  0
    4.7797   -2.8189    0.0000 C   0  0  0  0  0  0  0  0  0  0  0  0
    5.4850   -3.2202    0.0000 C   0  0  0  0  0  0  0  0  0  0  0  0
    5.4850   -1.5870    0.0000 C   0  0  0  0  0  0  0  0  0  0  0  0
    6.1903   -2.0023    0.0000 C   0  0  0  0  0  0  0  0  0  0  0  0
    6.1914   -2.8189    0.0000 C   0  0  0  0  0  0  0  0  0  0  0  0
    6.8927   -3.2193    0.0000 C   0  0  0  0  0  0  0  0  0  0  0  0
    7.6067   -2.8171    0.0000 C   0  0  0  0  0  0  0  0  0  0  0  0
    7.6056   -2.0005    0.0000 C   0  0  0  0  0  0  0  0  0  0  0  0
    6.8882   -1.5869    0.0000 C   0  0  0  0  0  0  0  0  0  0  0  0
    6.1821   -3.6263    0.0000 O   0  0  0  0  0  0  0  0  0  0  0  0
    7.5985   -3.6263    0.0000 C   0  0  0  0  0  0  0  0  0  0  0  0
    8.3783   -3.4095    0.0000 C   0  0  0  0  0  0  0  0  0  0  0  0
    7.9953   -4.3229    0.0000 C   0  0  0  0  0  0  0  0  0  0  0  0
    6.9233   -0.7753    0.0000 O   0  0  0  0  0  0  0  0  0  0  0  0
    6.1821   -1.1903    0.0000 C   0  0  0  0  0  0  0  0  0  0  0  0
    5.4838   -0.7751    0.0000 O   0  0  0  0  0  0  0  0  0  0  0  0
    4.7687   -0.3655    0.0000 C   0  0  0  0  0  0  0  0  0  0  0  0
    4.7675    0.4603    0.0000 C   0  0  0  0  0  0  0  0  0  0  0  0
    7.6551   -0.3960    0.0000 C   0  0  0  0  0  0  0  0  0  0  0  0
    7.6908    0.4291    0.0000 C   0  0  0  0  0  0  0  0  0  0  0  0
    8.4294    0.8111    0.0000 C   0  0  0  0  0  0  0  0  0  0  0  0
    8.3551   -0.8426    0.0000 O   0  0  0  0  0  0  0  0  0  0  0  0
    8.4680    1.6406    0.0000 C   0  0  0  0  0  0  0  0  0  0  0  0
    9.2073    2.0176    0.0000 C   0  0  0  0  0  0  0  0  0  0  0  0
    9.2460    2.8464    0.0000 C   0  0  0  0  0  0  0  0  0  0  0  0
    8.5464    3.2953    0.0000 C   0  0  0  0  0  0  0  0  0  0  0  0
    7.8062    2.9095    0.0000 C   0  0  0  0  0  0  0  0  0  0  0  0
    7.7709    2.0820    0.0000 C   0  0  0  0  0  0  0  0  0  0  0  0
    5.4845    0.8706    0.0000 C   0  0  0  0  0  0  0  0  0  0  0  0
    5.4836    1.6957    0.0000 C   0  0  0  0  0  0  0  0  0  0  0  0
    4.7673    2.1084    0.0000 C   0  0  0  0  0  0  0  0  0  0  0  0
    4.0503    1.6900    0.0000 C   0  0  0  0  0  0  0  0  0  0  0  0
    4.0547    0.8663    0.0000 C   0  0  0  0  0  0  0  0  0  0  0  0
    5.4847   -4.0507    0.0000 C   0  0  0  0  0  0  0  0  0  0  0  0
    4.0617   -3.2364    0.0000 O   0  0  0  0  0  0  0  0  0  0  0  0
    3.3413   -2.8234    0.0000 C   0  0  0  0  0  0  0  0  0  0  0  0
    3.3387   -1.9929    0.0000 O   0  0  0  0  0  0  0  0  0  0  0  0
    2.6234   -3.2408    0.0000 C   0  0  0  0  0  0  0  0  0  0  0  0
    4.0588   -1.5901    0.0000 O   0  0  0  0  0  0  0  0  0  0  0  0
    4.0506   -0.7825    0.0000 O   0  0  0  0  0  0  0  0  0  0  0  0
  8  9  1  0
 15 20  1  0
  9 10  1  0
 20 21  1  0
  5  6  1  0
 21 22  2  3
  6 11  1  0
 20 23  2  0
 22 24  1  0
  8 12  1  0
 24 25  2  0
 11 12  1  0
 25 26  1  0
  1  2  1  0
 26 27  2  0
 12 13  1  0
 27 28  1  0
  1  4  1  0
 28 29  2  0
 29 24  1  0
 12 14  1  0
 19 30  2  0
  2  3  1  0
 30 31  1  0
 10 15  1  0
 31 32  2  0
  3  6  1  0
 32 33  1  0
  5 16  1  0
 33 34  2  0
 34 19  1  0
  5  4  1  0
  3 35  1  0
  4 17  1  0
  2 36  1  0
  5 10  1  0
 36 37  1  0
 17 18  1  0
 37 38  2  0
  6  7  1  0
 37 39  1  0
 18 19  1  0
  1 40  1  0
  7  8  1  0
 18 41  2  0
M  END
>  <Classification>  (17) 
1

>  <pchembl>  (17) 
5.37

>  <InChI_steorem>  (17) 
InChI=1S/C33H38O8/c1-20-28(38-21(2)34)27(36)29(40-30(37)23-14-10-7-11-15-23)32(5)25(18-24-19-33(20,32)41-31(24,3)4)39-26(35)17-16-22-12-8-6-9-13-22/h6-17,20,24-25,27-29,36H,18-19H2,1-5H3

>  <source>  (17) 
ChEMBL25

>  <source_id>  (17) 
25

>  <optional_reference>  (17) 
10.1021/jm070290v

>  <optional_origin>  (17) 
None

>  <target>  (17) 
MDR1

$$$$

     RDKit          2D

 41 45  0  0  0  0  0  0  0  0999 V2000
    5.3760    1.1458    0.0000 C   0  0  0  0  0  0  0  0  0  0  0  0
    5.3760    0.3162    0.0000 C   0  0  0  0  0  0  0  0  0  0  0  0
    6.0904   -0.0962    0.0000 C   0  0  0  0  0  0  0  0  0  0  0  0
    6.0904    1.5628    0.0000 C   0  0  0  0  0  0  0  0  0  0  0  0
    6.8094    1.1458    0.0000 C   0  0  0  0  0  0  0  0  0  0  0  0
    6.8105    0.3162    0.0000 C   0  0  0  0  0  0  0  0  0  0  0  0
    7.5255   -0.0954    0.0000 C   0  0  0  0  0  0  0  0  0  0  0  0
    8.2439    0.3181    0.0000 C   0  0  0  0  0  0  0  0  0  0  0  0
    8.2428    1.1476    0.0000 C   0  0  0  0  0  0  0  0  0  0  0  0
    7.5233    1.5638    0.0000 C   0  0  0  0  0  0  0  0  0  0  0  0
    6.0893    2.3878    0.0000 O   0  0  0  0  0  0  0  0  0  0  0  0
    5.3742    2.7992    0.0000 C   0  0  0  0  0  0  0  0  0  0  0  0
    5.3731    3.6242    0.0000 O   0  0  0  0  0  0  0  0  0  0  0  0
    4.6606    1.5565    0.0000 O   0  0  0  0  0  0  0  0  0  0  0  0
    6.0818    0.7287    0.0000 C   0  0  0  0  0  0  0  0  0  0  0  0
    6.8013   -0.5041    0.0000 O   0  0  0  0  0  0  0  0  0  0  0  0
    8.2358   -0.5041    0.0000 C   0  0  0  0  0  0  0  0  0  0  0  0
    8.4467   -1.2970    0.0000 C   0  0  0  0  0  0  0  0  0  0  0  0
    9.0286   -0.2887    0.0000 C   0  0  0  0  0  0  0  0  0  0  0  0
    6.8013    1.9708    0.0000 C   0  0  0  0  0  0  0  0  0  0  0  0
    7.5211    2.3887    0.0000 O   0  0  0  0  0  0  0  0  0  0  0  0
    8.2345    2.8031    0.0000 C   0  0  0  0  0  0  0  0  0  0  0  0
    8.2323    3.6280    0.0000 O   0  0  0  0  0  0  0  0  0  0  0  0
    8.9499    2.3917    0.0000 C   0  0  0  0  0  0  0  0  0  0  0  0
    9.0383    1.5716    0.0000 C   0  0  0  0  0  0  0  0  0  0  0  0
    9.8457    1.4022    0.0000 C   0  0  0  0  0  0  0  0  0  0  0  0
   10.2563    2.1177    0.0000 C   0  0  0  0  0  0  0  0  0  0  0  0
    9.7026    2.7293    0.0000 O   0  0  0  0  0  0  0  0  0  0  0  0
    7.5254   -0.9203    0.0000 O   0  0  0  0  0  0  0  0  0  0  0  0
    6.8108   -1.3327    0.0000 C   0  0  0  0  0  0  0  0  0  0  0  0
    6.8107   -2.1576    0.0000 C   0  0  0  0  0  0  0  0  0  0  0  0
    5.3713   -0.5041    0.0000 O   0  0  0  0  0  0  0  0  0  0  0  0
    6.0964   -0.9201    0.0000 O   0  0  0  0  0  0  0  0  0  0  0  0
    6.1420   -2.6479    0.0000 C   0  0  0  0  0  0  0  0  0  0  0  0
    6.3968   -3.4325    0.0000 C   0  0  0  0  0  0  0  0  0  0  0  0
    7.2219   -3.4326    0.0000 C   0  0  0  0  0  0  0  0  0  0  0  0
    7.4767   -2.6480    0.0000 O   0  0  0  0  0  0  0  0  0  0  0  0
    4.6586    2.3815    0.0000 C   0  0  0  0  0  0  0  0  0  0  0  0
    3.9471    1.1424    0.0000 C   0  0  0  0  0  0  0  0  0  0  0  0
    3.2316    1.5531    0.0000 C   0  0  0  0  0  0  0  0  0  0  0  0
    3.9491    0.3174    0.0000 O   0  0  0  0  0  0  0  0  0  0  0  0
  7  8  1  0
  8  9  1  0
  5 20  1  0
  9 10  1  0
 10 21  1  0
  5  6  1  0
 21 22  1  0
  4 11  1  0
 22 23  2  0
 24 25  2  0
 11 12  1  0
  1  2  1  0
 12 13  2  0
 12 38  1  0
 25 26  1  0
 26 27  2  0
 27 28  1  0
 28 24  1  0
 22 24  1  0
  1  4  1  0
  7 29  1  0
  1 14  1  0
 29 30  1  0
  2  3  1  0
 30 31  1  0
  3 15  1  0
  3 32  1  0
  3  6  1  0
 30 33  2  0
 31 34  2  0
  6 16  1  0
  5  4  1  0
  8 17  1  0
 16 17  1  0
 34 35  1  0
 35 36  2  0
 36 37  1  0
 37 31  1  0
  5 10  1  0
 17 18  1  0
 14 39  1  0
  6  7  1  0
 39 40  1  0
 17 19  1  0
 39 41  2  0
M  END
>  <Classification>  (18) 
1

>  <pchembl>  (18) 
5.54

>  <InChI_steorem>  (18) 
InChI=1S/C29H34O12/c1-15(30)37-20-14-27(5,34)29-22(40-25(33)19-10-8-12-36-19)17(26(3,4)41-29)13-21(28(29,6)23(20)38-16(2)31)39-24(32)18-9-7-11-35-18/h7-12,17,20-23,34H,13-14H2,1-6H3

>  <source>  (18) 
ChEMBL25

>  <source_id>  (18) 
25

>  <optional_reference>  (18) 
10.1021/jm070290v

>  <optional_origin>  (18) 
None

>  <target>  (18) 
MDR1

$$$$

     RDKit          2D

 41 45  0  0  0  0  0  0  0  0999 V2000
    5.6418   -7.3467    0.0000 C   0  0  0  0  0  0  0  0  0  0  0  0
    5.6418   -8.1762    0.0000 C   0  0  0  0  0  0  0  0  0  0  0  0
    6.3562   -8.5887    0.0000 C   0  0  0  0  0  0  0  0  0  0  0  0
    6.3562   -6.9296    0.0000 C   0  0  0  0  0  0  0  0  0  0  0  0
    7.0752   -7.3467    0.0000 C   0  0  0  0  0  0  0  0  0  0  0  0
    7.0762   -8.1762    0.0000 C   0  0  0  0  0  0  0  0  0  0  0  0
    7.7912   -8.5878    0.0000 C   0  0  0  0  0  0  0  0  0  0  0  0
    8.5097   -8.1744    0.0000 C   0  0  0  0  0  0  0  0  0  0  0  0
    8.5087   -7.3448    0.0000 C   0  0  0  0  0  0  0  0  0  0  0  0
    7.7891   -6.9287    0.0000 C   0  0  0  0  0  0  0  0  0  0  0  0
    6.3550   -6.1047    0.0000 O   0  0  0  0  0  0  0  0  0  0  0  0
    5.6400   -5.6932    0.0000 C   0  0  0  0  0  0  0  0  0  0  0  0
    5.6389   -4.8682    0.0000 O   0  0  0  0  0  0  0  0  0  0  0  0
    4.9263   -6.9359    0.0000 O   0  0  0  0  0  0  0  0  0  0  0  0
    6.3475   -7.7637    0.0000 C   0  0  0  0  0  0  0  0  0  0  0  0
    7.0671   -8.9966    0.0000 O   0  0  0  0  0  0  0  0  0  0  0  0
    8.5016   -8.9966    0.0000 C   0  0  0  0  0  0  0  0  0  0  0  0
    8.7124   -9.7895    0.0000 C   0  0  0  0  0  0  0  0  0  0  0  0
    9.2945   -8.7811    0.0000 C   0  0  0  0  0  0  0  0  0  0  0  0
    7.0671   -6.5218    0.0000 C   0  0  0  0  0  0  0  0  0  0  0  0
    7.7869   -6.1038    0.0000 O   0  0  0  0  0  0  0  0  0  0  0  0
    8.5002   -5.6893    0.0000 C   0  0  0  0  0  0  0  0  0  0  0  0
    8.4980   -4.8644    0.0000 O   0  0  0  0  0  0  0  0  0  0  0  0
    9.2157   -6.1007    0.0000 C   0  0  0  0  0  0  0  0  0  0  0  0
    9.3042   -6.9209    0.0000 C   0  0  0  0  0  0  0  0  0  0  0  0
   10.1115   -7.0903    0.0000 C   0  0  0  0  0  0  0  0  0  0  0  0
   10.5221   -6.3747    0.0000 C   0  0  0  0  0  0  0  0  0  0  0  0
    9.9684   -5.7632    0.0000 O   0  0  0  0  0  0  0  0  0  0  0  0
    7.7911   -9.4127    0.0000 O   0  0  0  0  0  0  0  0  0  0  0  0
    7.0767   -9.8251    0.0000 C   0  0  0  0  0  0  0  0  0  0  0  0
    7.0766  -10.6500    0.0000 C   0  0  0  0  0  0  0  0  0  0  0  0
    5.6372   -8.9966    0.0000 O   0  0  0  0  0  0  0  0  0  0  0  0
    6.3623   -9.4126    0.0000 O   0  0  0  0  0  0  0  0  0  0  0  0
    6.4078  -11.1403    0.0000 C   0  0  0  0  0  0  0  0  0  0  0  0
    6.6627  -11.9249    0.0000 C   0  0  0  0  0  0  0  0  0  0  0  0
    7.4877  -11.9250    0.0000 C   0  0  0  0  0  0  0  0  0  0  0  0
    7.7426  -11.1404    0.0000 O   0  0  0  0  0  0  0  0  0  0  0  0
    4.9244   -6.1109    0.0000 C   0  0  0  0  0  0  0  0  0  0  0  0
    4.2129   -7.3501    0.0000 C   0  0  0  0  0  0  0  0  0  0  0  0
    3.4975   -6.9393    0.0000 C   0  0  0  0  0  0  0  0  0  0  0  0
    2.7841   -7.3535    0.0000 C   0  0  0  0  0  0  0  0  0  0  0  0
  7  8  1  0
  8  9  1  0
  5 20  1  0
  9 10  1  0
 10 21  1  0
  5  6  1  0
 21 22  1  0
  4 11  1  0
 22 23  2  0
 24 25  2  0
 11 12  1  0
  1  2  1  0
 12 13  2  0
 12 38  1  0
 25 26  1  0
 26 27  2  0
 27 28  1  0
 28 24  1  0
 22 24  1  0
  1  4  1  0
  7 29  1  0
  1 14  1  0
 29 30  1  0
  2  3  1  0
 30 31  1  0
  3 15  1  0
  3 32  1  0
  3  6  1  0
 30 33  2  0
 31 34  2  0
  6 16  1  0
  5  4  1  0
  8 17  1  0
 16 17  1  0
 34 35  1  0
 35 36  2  0
 36 37  1  0
 37 31  1  0
  5 10  1  0
 17 18  1  0
 14 39  1  0
  6  7  1  0
 39 40  1  0
 17 19  1  0
 40 41  1  0
M  END
>  <Classification>  (19) 
1

>  <pchembl>  (19) 
5.95

>  <InChI_steorem>  (19) 
InChI=1S/C30H38O11/c1-7-12-35-21-16-28(5,34)30-23(40-26(33)20-11-9-14-37-20)18(27(3,4)41-30)15-22(29(30,6)24(21)38-17(2)31)39-25(32)19-10-8-13-36-19/h8-11,13-14,18,21-24,34H,7,12,15-16H2,1-6H3

>  <source>  (19) 
ChEMBL25

>  <source_id>  (19) 
25

>  <optional_reference>  (19) 
10.1021/jm070290v

>  <optional_origin>  (19) 
None

>  <target>  (19) 
MDR1

$$$$

     RDKit          2D

 41 45  0  0  0  0  0  0  0  0999 V2000
    9.2304    1.5812    0.0000 C   0  0  0  0  0  0  0  0  0  0  0  0
    9.2304    0.7516    0.0000 C   0  0  0  0  0  0  0  0  0  0  0  0
    9.9448    0.3391    0.0000 C   0  0  0  0  0  0  0  0  0  0  0  0
    9.9448    1.9983    0.0000 C   0  0  0  0  0  0  0  0  0  0  0  0
   10.6639    1.5812    0.0000 C   0  0  0  0  0  0  0  0  0  0  0  0
   10.6649    0.7516    0.0000 C   0  0  0  0  0  0  0  0  0  0  0  0
   11.3798    0.3401    0.0000 C   0  0  0  0  0  0  0  0  0  0  0  0
   12.0983    0.7535    0.0000 C   0  0  0  0  0  0  0  0  0  0  0  0
   12.0973    1.5830    0.0000 C   0  0  0  0  0  0  0  0  0  0  0  0
   11.3777    1.9992    0.0000 C   0  0  0  0  0  0  0  0  0  0  0  0
    9.9436    2.8232    0.0000 O   0  0  0  0  0  0  0  0  0  0  0  0
    9.2287    3.2347    0.0000 C   0  0  0  0  0  0  0  0  0  0  0  0
    9.2276    4.0597    0.0000 O   0  0  0  0  0  0  0  0  0  0  0  0
    8.5149    1.9919    0.0000 O   0  0  0  0  0  0  0  0  0  0  0  0
    9.9361    1.1641    0.0000 C   0  0  0  0  0  0  0  0  0  0  0  0
   10.6557   -0.0687    0.0000 O   0  0  0  0  0  0  0  0  0  0  0  0
   12.0903   -0.0687    0.0000 C   0  0  0  0  0  0  0  0  0  0  0  0
   12.3010   -0.8616    0.0000 C   0  0  0  0  0  0  0  0  0  0  0  0
   12.8831    0.1466    0.0000 C   0  0  0  0  0  0  0  0  0  0  0  0
   10.6557    2.4061    0.0000 C   0  0  0  0  0  0  0  0  0  0  0  0
   11.3755    2.8241    0.0000 O   0  0  0  0  0  0  0  0  0  0  0  0
   12.0889    3.2385    0.0000 C   0  0  0  0  0  0  0  0  0  0  0  0
   12.0867    4.0634    0.0000 O   0  0  0  0  0  0  0  0  0  0  0  0
   12.8044    2.8271    0.0000 C   0  0  0  0  0  0  0  0  0  0  0  0
   12.8928    2.0070    0.0000 C   0  0  0  0  0  0  0  0  0  0  0  0
   13.7002    1.8376    0.0000 C   0  0  0  0  0  0  0  0  0  0  0  0
   14.1108    2.5532    0.0000 C   0  0  0  0  0  0  0  0  0  0  0  0
   13.5571    3.1647    0.0000 O   0  0  0  0  0  0  0  0  0  0  0  0
   11.3797   -0.4849    0.0000 O   0  0  0  0  0  0  0  0  0  0  0  0
    9.2258   -0.0687    0.0000 O   0  0  0  0  0  0  0  0  0  0  0  0
    8.5130    2.8169    0.0000 C   0  0  0  0  0  0  0  0  0  0  0  0
    7.8015    1.5778    0.0000 C   0  0  0  0  0  0  0  0  0  0  0  0
    7.0861    1.9885    0.0000 C   0  0  0  0  0  0  0  0  0  0  0  0
    7.8035    0.7528    0.0000 O   0  0  0  0  0  0  0  0  0  0  0  0
    7.0015    2.8131    0.0000 O   0  0  0  0  0  0  0  0  0  0  0  0
    6.1941    2.9826    0.0000 C   0  0  0  0  0  0  0  0  0  0  0  0
    5.7833    2.2672    0.0000 C   0  0  0  0  0  0  0  0  0  0  0  0
    6.3369    1.6555    0.0000 C   0  0  0  0  0  0  0  0  0  0  0  0
   10.6653   -0.8973    0.0000 C   0  0  0  0  0  0  0  0  0  0  0  0
   10.6652   -1.7223    0.0000 C   0  0  0  0  0  0  0  0  0  0  0  0
    9.9509   -0.4847    0.0000 O   0  0  0  0  0  0  0  0  0  0  0  0
  7  8  1  0
  8  9  1  0
  5 20  1  0
  9 10  1  0
 10 21  1  0
  5  6  1  0
 21 22  1  0
  4 11  1  0
 22 23  2  0
 24 25  2  0
 11 12  1  0
  1  2  1  0
 12 13  2  0
 12 31  1  0
 25 26  1  0
 26 27  2  0
 27 28  1  0
 28 24  1  0
 22 24  1  0
  1  4  1  0
  7 29  1  0
  1 14  1  0
  3 30  1  0
  2  3  1  0
  3 15  1  0
 14 32  1  0
  3  6  1  0
 32 33  1  0
  6 16  1  0
 32 34  2  0
 33 35  1  0
  5  4  1  0
  8 17  1  0
 16 17  1  0
  5 10  1  0
 35 36  1  0
 36 37  2  0
 37 38  1  0
 38 33  2  0
 17 18  1  0
 29 39  1  0
  6  7  1  0
 39 40  1  0
 17 19  1  0
 39 41  2  0
M  END
>  <Classification>  (20) 
1

>  <pchembl>  (20) 
5.38

>  <InChI_steorem>  (20) 
InChI=1S/C29H34O12/c1-15(30)37-22-17-13-21(40-25(33)19-10-8-12-36-19)28(6)23(38-16(2)31)20(39-24(32)18-9-7-11-35-18)14-27(5,34)29(22,28)41-26(17,3)4/h7-12,17,20-23,34H,13-14H2,1-6H3

>  <source>  (20) 
ChEMBL25

>  <source_id>  (20) 
25

>  <optional_reference>  (20) 
10.1021/jm070290v

>  <optional_origin>  (20) 
None

>  <target>  (20) 
MDR1

$$$$

     RDKit          2D

 42 45  0  0  0  0  0  0  0  0999 V2000
    4.5629    0.8996    0.0000 C   0  0  0  0  0  0  0  0  0  0  0  0
    4.5629    0.0699    0.0000 C   0  0  0  0  0  0  0  0  0  0  0  0
    5.2801   -0.3403    0.0000 C   0  0  0  0  0  0  0  0  0  0  0  0
    5.2801    1.3190    0.0000 C   0  0  0  0  0  0  0  0  0  0  0  0
    5.9973    0.8996    0.0000 C   0  0  0  0  0  0  0  0  0  0  0  0
    5.9984    0.0699    0.0000 C   0  0  0  0  0  0  0  0  0  0  0  0
    6.7115   -0.3393    0.0000 C   0  0  0  0  0  0  0  0  0  0  0  0
    7.4329    0.0718    0.0000 C   0  0  0  0  0  0  0  0  0  0  0  0
    7.4317    0.9014    0.0000 C   0  0  0  0  0  0  0  0  0  0  0  0
    6.7070    1.3191    0.0000 C   0  0  0  0  0  0  0  0  0  0  0  0
    5.9891   -0.7503    0.0000 O   0  0  0  0  0  0  0  0  0  0  0  0
    7.4246   -0.7503    0.0000 C   0  0  0  0  0  0  0  0  0  0  0  0
    8.2169   -0.5313    0.0000 C   0  0  0  0  0  0  0  0  0  0  0  0
    7.8301   -1.4589    0.0000 C   0  0  0  0  0  0  0  0  0  0  0  0
    6.7114   -1.1642    0.0000 O   0  0  0  0  0  0  0  0  0  0  0  0
    7.1448    2.0179    0.0000 O   0  0  0  0  0  0  0  0  0  0  0  0
    7.9693    1.9910    0.0000 C   0  0  0  0  0  0  0  0  0  0  0  0
    8.3607    1.2653    0.0000 C   0  0  0  0  0  0  0  0  0  0  0  0
    7.9203    0.5667    0.0000 C   0  0  0  0  0  0  0  0  0  0  0  0
    8.3110   -0.1631    0.0000 C   0  0  0  0  0  0  0  0  0  0  0  0
    9.1364   -0.1904    0.0000 C   0  0  0  0  0  0  0  0  0  0  0  0
    9.5696    0.5181    0.0000 C   0  0  0  0  0  0  0  0  0  0  0  0
    9.1812    1.2403    0.0000 C   0  0  0  0  0  0  0  0  0  0  0  0
    5.9891    1.7245    0.0000 C   0  0  0  0  0  0  0  0  0  0  0  0
    6.6975    2.1464    0.0000 O   0  0  0  0  0  0  0  0  0  0  0  0
    6.6939    2.9713    0.0000 C   0  0  0  0  0  0  0  0  0  0  0  0
    7.4023    3.3886    0.0000 C   0  0  0  0  0  0  0  0  0  0  0  0
    5.9725    3.3790    0.0000 O   0  0  0  0  0  0  0  0  0  0  0  0
    5.2789    2.1440    0.0000 O   0  0  0  0  0  0  0  0  0  0  0  0
    4.5611    2.5530    0.0000 C   0  0  0  0  0  0  0  0  0  0  0  0
    4.5600    3.3827    0.0000 C   0  0  0  0  0  0  0  0  0  0  0  0
    3.8491    2.1420    0.0000 O   0  0  0  0  0  0  0  0  0  0  0  0
    3.8493    1.3125    0.0000 O   0  0  0  0  0  0  0  0  0  0  0  0
    3.1331    0.8961    0.0000 C   0  0  0  0  0  0  0  0  0  0  0  0
    2.4195    1.3091    0.0000 C   0  0  0  0  0  0  0  0  0  0  0  0
    3.1352    0.0711    0.0000 O   0  0  0  0  0  0  0  0  0  0  0  0
    5.2713    0.4847    0.0000 C   0  0  0  0  0  0  0  0  0  0  0  0
    5.2713   -1.1652    0.0000 O   0  0  0  0  0  0  0  0  0  0  0  0
    5.9988   -1.5790    0.0000 C   0  0  0  0  0  0  0  0  0  0  0  0
    5.9987   -2.4039    0.0000 O   0  0  0  0  0  0  0  0  0  0  0  0
    5.2014   -1.7850    0.0000 C   0  0  0  0  0  0  0  0  0  0  0  0
    8.4110    2.7043    0.0000 O   0  0  0  0  0  0  0  0  0  0  0  0
  8  9  1  0
 20 21  2  0
  9 10  1  0
 21 22  1  0
  5  6  1  0
 22 23  2  0
 23 18  1  0
  6 11  1  0
  5 24  1  0
 24 25  1  0
  8 12  1  0
 25 26  1  0
 11 12  1  0
 26 27  1  0
  1  2  1  0
 26 28  2  0
 12 13  1  0
  4 29  1  0
  1  4  1  0
 29 30  1  0
 12 14  1  0
 30 31  1  0
  2  3  1  0
 30 32  2  0
  7 15  1  0
  1 33  1  0
  3  6  1  0
 33 34  1  0
 10 16  1  0
 34 35  1  0
  5  4  1  0
 34 36  2  0
 16 17  1  0
  3 37  1  0
  5 10  1  0
  3 38  1  0
 17 18  1  0
 15 39  1  0
  6  7  1  0
 39 40  2  0
 18 19  2  0
 39 41  1  0
  7  8  1  0
 17 42  2  0
 19 20  1  0
M  END
>  <Classification>  (21) 
1

>  <pchembl>  (21) 
5.36

>  <InChI_steorem>  (21) 
InChI=1S/C30H38O12/c1-16(31)37-15-29-23(41-26(35)20-11-9-8-10-12-20)13-21-24(39-18(3)33)30(29,42-27(21,5)6)28(7,36)14-22(38-17(2)32)25(29)40-19(4)34/h8-12,21-25,36H,13-15H2,1-7H3

>  <source>  (21) 
ChEMBL25

>  <source_id>  (21) 
25

>  <optional_reference>  (21) 
10.1021/jm070290v

>  <optional_origin>  (21) 
None

>  <target>  (21) 
MDR1

$$$$

     RDKit          2D

 42 46  0  0  0  0  0  0  0  0999 V2000
   11.4342    1.6498    0.0000 C   0  0  0  0  0  0  0  0  0  0  0  0
   11.4342    0.8203    0.0000 C   0  0  0  0  0  0  0  0  0  0  0  0
   12.1487    0.4078    0.0000 C   0  0  0  0  0  0  0  0  0  0  0  0
   12.1487    2.0669    0.0000 C   0  0  0  0  0  0  0  0  0  0  0  0
   12.8676    1.6498    0.0000 C   0  0  0  0  0  0  0  0  0  0  0  0
   12.8687    0.8203    0.0000 C   0  0  0  0  0  0  0  0  0  0  0  0
   13.5836    0.4088    0.0000 C   0  0  0  0  0  0  0  0  0  0  0  0
   14.3021    0.8222    0.0000 C   0  0  0  0  0  0  0  0  0  0  0  0
   14.3010    1.6517    0.0000 C   0  0  0  0  0  0  0  0  0  0  0  0
   13.5816    2.0678    0.0000 C   0  0  0  0  0  0  0  0  0  0  0  0
   12.1475    2.8918    0.0000 O   0  0  0  0  0  0  0  0  0  0  0  0
   11.4326    3.3033    0.0000 C   0  0  0  0  0  0  0  0  0  0  0  0
   11.4314    4.1282    0.0000 O   0  0  0  0  0  0  0  0  0  0  0  0
   10.7189    2.0605    0.0000 O   0  0  0  0  0  0  0  0  0  0  0  0
   12.1400    1.2328    0.0000 C   0  0  0  0  0  0  0  0  0  0  0  0
   12.8596    0.0000    0.0000 O   0  0  0  0  0  0  0  0  0  0  0  0
   14.2940    0.0000    0.0000 C   0  0  0  0  0  0  0  0  0  0  0  0
   14.5048   -0.7928    0.0000 C   0  0  0  0  0  0  0  0  0  0  0  0
   15.0869    0.2154    0.0000 C   0  0  0  0  0  0  0  0  0  0  0  0
   12.8596    2.4748    0.0000 C   0  0  0  0  0  0  0  0  0  0  0  0
   13.5794    2.8927    0.0000 O   0  0  0  0  0  0  0  0  0  0  0  0
   14.2926    3.3070    0.0000 C   0  0  0  0  0  0  0  0  0  0  0  0
   14.2904    4.1320    0.0000 O   0  0  0  0  0  0  0  0  0  0  0  0
   15.0080    2.8957    0.0000 C   0  0  0  0  0  0  0  0  0  0  0  0
   15.0964    2.0756    0.0000 C   0  0  0  0  0  0  0  0  0  0  0  0
   15.9039    1.9062    0.0000 C   0  0  0  0  0  0  0  0  0  0  0  0
   16.3145    2.6218    0.0000 C   0  0  0  0  0  0  0  0  0  0  0  0
   15.7608    3.2332    0.0000 O   0  0  0  0  0  0  0  0  0  0  0  0
   13.5835   -0.4161    0.0000 O   0  0  0  0  0  0  0  0  0  0  0  0
   10.7169    2.8855    0.0000 C   0  0  0  0  0  0  0  0  0  0  0  0
   10.0055    1.6464    0.0000 C   0  0  0  0  0  0  0  0  0  0  0  0
    9.2901    2.0571    0.0000 C   0  0  0  0  0  0  0  0  0  0  0  0
   10.0075    0.8215    0.0000 O   0  0  0  0  0  0  0  0  0  0  0  0
   12.1548   -0.4160    0.0000 O   0  0  0  0  0  0  0  0  0  0  0  0
    9.2914    2.8826    0.0000 C   0  0  0  0  0  0  0  0  0  0  0  0
    8.5769    3.2933    0.0000 C   0  0  0  0  0  0  0  0  0  0  0  0
    7.8625    2.8791    0.0000 C   0  0  0  0  0  0  0  0  0  0  0  0
    7.8672    2.0499    0.0000 C   0  0  0  0  0  0  0  0  0  0  0  0
    8.5822    1.6430    0.0000 C   0  0  0  0  0  0  0  0  0  0  0  0
   13.1621   -1.1228    0.0000 C   0  0  0  0  0  0  0  0  0  0  0  0
   12.3371   -1.1111    0.0000 C   0  0  0  0  0  0  0  0  0  0  0  0
   13.5643   -1.8430    0.0000 O   0  0  0  0  0  0  0  0  0  0  0  0
  8  9  1  0
  5 20  1  0
  9 10  1  0
 10 21  1  0
  5  6  1  0
 21 22  1  0
  4 11  1  0
 22 23  2  0
 24 25  2  0
 11 12  1  0
  1  2  1  0
 12 13  2  0
 12 30  1  0
 25 26  1  0
 26 27  2  0
 27 28  1  0
 28 24  1  0
 22 24  1  0
  1  4  1  0
  7 29  1  0
  1 14  1  0
  2  3  1  0
 14 31  1  0
  3 15  1  0
 31 32  1  0
  3  6  1  0
 31 33  2  0
  3 34  1  0
  6 16  1  0
  5  4  1  0
 32 35  2  0
  8 17  1  0
 35 36  1  0
 16 17  1  0
 36 37  2  0
  5 10  1  0
 37 38  1  0
 17 18  1  0
 38 39  2  0
 39 32  1  0
  6  7  1  0
 29 40  1  0
 17 19  1  0
 40 41  1  0
  7  8  1  0
 40 42  2  0
M  END
>  <Classification>  (22) 
1

>  <pchembl>  (22) 
5.53

>  <InChI_steorem>  (22) 
InChI=1S/C31H36O11/c1-17(32)38-24-20-15-23(41-27(35)21-13-10-14-37-21)30(6)25(39-18(2)33)22(40-26(34)19-11-8-7-9-12-19)16-29(5,36)31(24,30)42-28(20,3)4/h7-14,20,22-25,36H,15-16H2,1-6H3

>  <source>  (22) 
ChEMBL25

>  <source_id>  (22) 
25

>  <optional_reference>  (22) 
10.1021/jm070290v

>  <optional_origin>  (22) 
None

>  <target>  (22) 
MDR1

$$$$

     RDKit          2D

 42 46  0  0  0  0  0  0  0  0999 V2000
    7.8006  -21.4950    0.0000 C   0  0  0  0  0  0  0  0  0  0  0  0
    7.8006  -22.3245    0.0000 C   0  0  0  0  0  0  0  0  0  0  0  0
    8.5150  -22.7370    0.0000 C   0  0  0  0  0  0  0  0  0  0  0  0
    8.5150  -21.0779    0.0000 C   0  0  0  0  0  0  0  0  0  0  0  0
    9.2340  -21.4950    0.0000 C   0  0  0  0  0  0  0  0  0  0  0  0
    9.2350  -22.3245    0.0000 C   0  0  0  0  0  0  0  0  0  0  0  0
    9.9500  -22.7361    0.0000 C   0  0  0  0  0  0  0  0  0  0  0  0
   10.6685  -22.3228    0.0000 C   0  0  0  0  0  0  0  0  0  0  0  0
   10.6675  -21.4932    0.0000 C   0  0  0  0  0  0  0  0  0  0  0  0
    9.9479  -21.0771    0.0000 C   0  0  0  0  0  0  0  0  0  0  0  0
    8.5138  -20.2530    0.0000 O   0  0  0  0  0  0  0  0  0  0  0  0
    7.7988  -19.8415    0.0000 C   0  0  0  0  0  0  0  0  0  0  0  0
    7.7977  -19.0165    0.0000 O   0  0  0  0  0  0  0  0  0  0  0  0
    7.0850  -21.0842    0.0000 O   0  0  0  0  0  0  0  0  0  0  0  0
    8.5063  -21.9120    0.0000 C   0  0  0  0  0  0  0  0  0  0  0  0
    9.2259  -23.1450    0.0000 O   0  0  0  0  0  0  0  0  0  0  0  0
   10.6605  -23.1450    0.0000 C   0  0  0  0  0  0  0  0  0  0  0  0
   10.8712  -23.9378    0.0000 C   0  0  0  0  0  0  0  0  0  0  0  0
   11.4533  -22.9295    0.0000 C   0  0  0  0  0  0  0  0  0  0  0  0
    9.2259  -20.6701    0.0000 C   0  0  0  0  0  0  0  0  0  0  0  0
    9.9457  -20.2521    0.0000 O   0  0  0  0  0  0  0  0  0  0  0  0
   10.6590  -19.8376    0.0000 C   0  0  0  0  0  0  0  0  0  0  0  0
   10.6568  -19.0127    0.0000 O   0  0  0  0  0  0  0  0  0  0  0  0
   11.3745  -20.2490    0.0000 C   0  0  0  0  0  0  0  0  0  0  0  0
   11.4630  -21.0692    0.0000 C   0  0  0  0  0  0  0  0  0  0  0  0
   12.2704  -21.2386    0.0000 C   0  0  0  0  0  0  0  0  0  0  0  0
   12.6810  -20.5230    0.0000 C   0  0  0  0  0  0  0  0  0  0  0  0
   12.1272  -19.9115    0.0000 O   0  0  0  0  0  0  0  0  0  0  0  0
    9.9499  -23.5611    0.0000 O   0  0  0  0  0  0  0  0  0  0  0  0
    7.0832  -20.2592    0.0000 C   0  0  0  0  0  0  0  0  0  0  0  0
    6.3716  -21.4984    0.0000 C   0  0  0  0  0  0  0  0  0  0  0  0
    5.6562  -21.0876    0.0000 C   0  0  0  0  0  0  0  0  0  0  0  0
    6.3736  -22.3234    0.0000 O   0  0  0  0  0  0  0  0  0  0  0  0
    9.2355  -23.9735    0.0000 C   0  0  0  0  0  0  0  0  0  0  0  0
    9.2354  -24.7984    0.0000 C   0  0  0  0  0  0  0  0  0  0  0  0
    7.9243  -23.3191    0.0000 O   0  0  0  0  0  0  0  0  0  0  0  0
    8.5210  -23.5610    0.0000 O   0  0  0  0  0  0  0  0  0  0  0  0
    8.5213  -25.2072    0.0000 C   0  0  0  0  0  0  0  0  0  0  0  0
    8.5208  -26.0314    0.0000 C   0  0  0  0  0  0  0  0  0  0  0  0
    9.2358  -26.4447    0.0000 C   0  0  0  0  0  0  0  0  0  0  0  0
    9.9526  -26.0278    0.0000 C   0  0  0  0  0  0  0  0  0  0  0  0
    9.9496  -25.2051    0.0000 C   0  0  0  0  0  0  0  0  0  0  0  0
  8  9  1  0
  5 20  1  0
  9 10  1  0
 10 21  1  0
  5  6  1  0
 21 22  1  0
  4 11  1  0
 22 23  2  0
 24 25  2  0
 11 12  1  0
  1  2  1  0
 12 13  2  0
 12 30  1  0
 25 26  1  0
 26 27  2  0
 27 28  1  0
 28 24  1  0
 22 24  1  0
  1  4  1  0
  7 29  1  0
  1 14  1  0
  2  3  1  0
 14 31  1  0
  3 15  1  0
 31 32  1  0
  3  6  1  0
 31 33  2  0
  6 16  1  0
 29 34  1  0
  5  4  1  0
 34 35  1  0
  8 17  1  0
  3 36  1  0
 16 17  1  0
 34 37  2  0
  5 10  1  0
 35 38  2  0
 17 18  1  0
 38 39  1  0
  6  7  1  0
 39 40  2  0
 17 19  1  0
 40 41  1  0
  7  8  1  0
 41 42  2  0
 42 35  1  0
M  END
>  <Classification>  (23) 
1

>  <pchembl>  (23) 
5.05

>  <InChI_steorem>  (23) 
InChI=1S/C31H36O11/c1-17(32)38-22-16-29(5,36)31-24(41-26(34)19-11-8-7-9-12-19)20(28(3,4)42-31)15-23(30(31,6)25(22)39-18(2)33)40-27(35)21-13-10-14-37-21/h7-14,20,22-25,36H,15-16H2,1-6H3

>  <source>  (23) 
ChEMBL25

>  <source_id>  (23) 
25

>  <optional_reference>  (23) 
10.1021/jm070290v

>  <optional_origin>  (23) 
None

>  <target>  (23) 
MDR1

$$$$

     RDKit          2D

 43 47  0  0  0  0  0  0  0  0999 V2000
   14.0288   -7.7271    0.0000 C   0  0  0  0  0  0  0  0  0  0  0  0
   14.0288   -8.5566    0.0000 C   0  0  0  0  0  0  0  0  0  0  0  0
   14.7433   -8.9691    0.0000 C   0  0  0  0  0  0  0  0  0  0  0  0
   14.7433   -7.3100    0.0000 C   0  0  0  0  0  0  0  0  0  0  0  0
   15.4623   -7.7271    0.0000 C   0  0  0  0  0  0  0  0  0  0  0  0
   15.4633   -8.5566    0.0000 C   0  0  0  0  0  0  0  0  0  0  0  0
   16.1782   -8.9681    0.0000 C   0  0  0  0  0  0  0  0  0  0  0  0
   16.8967   -8.5548    0.0000 C   0  0  0  0  0  0  0  0  0  0  0  0
   16.8957   -7.7252    0.0000 C   0  0  0  0  0  0  0  0  0  0  0  0
   16.1761   -7.3091    0.0000 C   0  0  0  0  0  0  0  0  0  0  0  0
   14.7420   -6.4850    0.0000 O   0  0  0  0  0  0  0  0  0  0  0  0
   14.0271   -6.0735    0.0000 C   0  0  0  0  0  0  0  0  0  0  0  0
   14.0260   -5.2486    0.0000 O   0  0  0  0  0  0  0  0  0  0  0  0
   13.3133   -7.3164    0.0000 O   0  0  0  0  0  0  0  0  0  0  0  0
   14.7346   -8.1442    0.0000 C   0  0  0  0  0  0  0  0  0  0  0  0
   15.4541   -9.3770    0.0000 O   0  0  0  0  0  0  0  0  0  0  0  0
   16.8887   -9.3770    0.0000 C   0  0  0  0  0  0  0  0  0  0  0  0
   17.0994  -10.1698    0.0000 C   0  0  0  0  0  0  0  0  0  0  0  0
   17.6815   -9.1616    0.0000 C   0  0  0  0  0  0  0  0  0  0  0  0
   15.4541   -6.9021    0.0000 C   0  0  0  0  0  0  0  0  0  0  0  0
   16.1739   -6.4841    0.0000 O   0  0  0  0  0  0  0  0  0  0  0  0
   16.8873   -6.0698    0.0000 C   0  0  0  0  0  0  0  0  0  0  0  0
   16.8851   -5.2448    0.0000 O   0  0  0  0  0  0  0  0  0  0  0  0
   17.6028   -6.4812    0.0000 C   0  0  0  0  0  0  0  0  0  0  0  0
   17.6912   -7.3013    0.0000 C   0  0  0  0  0  0  0  0  0  0  0  0
   18.4986   -7.4707    0.0000 C   0  0  0  0  0  0  0  0  0  0  0  0
   18.9092   -6.7551    0.0000 C   0  0  0  0  0  0  0  0  0  0  0  0
   18.3555   -6.1436    0.0000 O   0  0  0  0  0  0  0  0  0  0  0  0
   16.1781   -9.7931    0.0000 O   0  0  0  0  0  0  0  0  0  0  0  0
   15.4637  -10.2056    0.0000 C   0  0  0  0  0  0  0  0  0  0  0  0
   15.4636  -11.0305    0.0000 C   0  0  0  0  0  0  0  0  0  0  0  0
   14.0242   -9.3770    0.0000 O   0  0  0  0  0  0  0  0  0  0  0  0
   14.7493   -9.7930    0.0000 O   0  0  0  0  0  0  0  0  0  0  0  0
   14.7948  -11.5207    0.0000 C   0  0  0  0  0  0  0  0  0  0  0  0
   15.0497  -12.3053    0.0000 C   0  0  0  0  0  0  0  0  0  0  0  0
   15.8748  -12.3053    0.0000 C   0  0  0  0  0  0  0  0  0  0  0  0
   16.1296  -11.5209    0.0000 O   0  0  0  0  0  0  0  0  0  0  0  0
   13.3115   -6.4914    0.0000 C   0  0  0  0  0  0  0  0  0  0  0  0
   12.5999   -7.7305    0.0000 C   0  0  0  0  0  0  0  0  0  0  0  0
   11.8845   -7.3198    0.0000 C   0  0  0  0  0  0  0  0  0  0  0  0
   11.1711   -7.7339    0.0000 C   0  0  0  0  0  0  0  0  0  0  0  0
   10.4557   -7.3232    0.0000 C   0  0  0  0  0  0  0  0  0  0  0  0
    9.7423   -7.7373    0.0000 C   0  0  0  0  0  0  0  0  0  0  0  0
  8  9  1  0
  5 20  1  0
  9 10  1  0
 10 21  1  0
  5  6  1  0
 21 22  1  0
  4 11  1  0
 22 23  2  0
 24 25  2  0
 11 12  1  0
  1  2  1  0
 12 13  2  0
 12 38  1  0
 25 26  1  0
 26 27  2  0
 27 28  1  0
 28 24  1  0
 22 24  1  0
  1  4  1  0
  7 29  1  0
  1 14  1  0
 29 30  1  0
  2  3  1  0
 30 31  1  0
  3 15  1  0
  3 32  1  0
  3  6  1  0
 30 33  2  0
 31 34  2  0
  6 16  1  0
  5  4  1  0
  8 17  1  0
 16 17  1  0
 34 35  1  0
 35 36  2  0
 36 37  1  0
 37 31  1  0
  5 10  1  0
 17 18  1  0
 14 39  1  0
  6  7  1  0
 39 40  1  0
 17 19  1  0
 40 41  1  0
  7  8  1  0
 41 42  1  0
 42 43  1  0
M  END
>  <Classification>  (24) 
1

>  <pchembl>  (24) 
6.24

>  <InChI_steorem>  (24) 
InChI=1S/C32H42O11/c1-7-8-9-14-39-23-18-30(5,36)32-25(42-28(35)22-13-11-16-38-22)20(29(3,4)43-32)17-24(31(32,6)26(23)40-19(2)33)41-27(34)21-12-10-15-37-21/h10-13,15-16,20,23-26,36H,7-9,14,17-18H2,1-6H3

>  <source>  (24) 
ChEMBL25

>  <source_id>  (24) 
25

>  <optional_reference>  (24) 
10.1021/jm070290v

>  <optional_origin>  (24) 
None

>  <target>  (24) 
MDR1

$$$$

     RDKit          2D

 44 47  0  0  0  0  0  0  0  0999 V2000
   -4.4595    0.3116    0.0000 C   0  0  0  0  0  0  0  0  0  0  0  0
   -4.4595   -0.5179    0.0000 C   0  0  0  0  0  0  0  0  0  0  0  0
   -3.7449   -0.9304    0.0000 C   0  0  0  0  0  0  0  0  0  0  0  0
   -3.7449    0.7287    0.0000 C   0  0  0  0  0  0  0  0  0  0  0  0
   -3.0260    0.3116    0.0000 C   0  0  0  0  0  0  0  0  0  0  0  0
   -3.0249   -0.5179    0.0000 C   0  0  0  0  0  0  0  0  0  0  0  0
   -2.3099   -0.9295    0.0000 C   0  0  0  0  0  0  0  0  0  0  0  0
   -1.5914   -0.5161    0.0000 C   0  0  0  0  0  0  0  0  0  0  0  0
   -1.5925    0.3135    0.0000 C   0  0  0  0  0  0  0  0  0  0  0  0
   -2.3120    0.7296    0.0000 C   0  0  0  0  0  0  0  0  0  0  0  0
   -3.7462    1.5537    0.0000 O   0  0  0  0  0  0  0  0  0  0  0  0
   -3.0340    1.1366    0.0000 C   0  0  0  0  0  0  0  0  0  0  0  0
   -2.3237    1.5561    0.0000 O   0  0  0  0  0  0  0  0  0  0  0  0
   -2.3318    2.3811    0.0000 C   0  0  0  0  0  0  0  0  0  0  0  0
   -1.6215    2.8005    0.0000 C   0  0  0  0  0  0  0  0  0  0  0  0
   -3.0503    2.7865    0.0000 O   0  0  0  0  0  0  0  0  0  0  0  0
   -1.6041    1.1503    0.0000 O   0  0  0  0  0  0  0  0  0  0  0  0
   -1.6145    1.9753    0.0000 C   0  0  0  0  0  0  0  0  0  0  0  0
   -0.9054    2.3968    0.0000 C   0  0  0  0  0  0  0  0  0  0  0  0
   -0.1837    1.9868    0.0000 C   0  0  0  0  0  0  0  0  0  0  0  0
    0.5250    2.4076    0.0000 C   0  0  0  0  0  0  0  0  0  0  0  0
    0.5150    3.2289    0.0000 C   0  0  0  0  0  0  0  0  0  0  0  0
   -0.2095    3.6323    0.0000 C   0  0  0  0  0  0  0  0  0  0  0  0
   -0.9153    3.2122    0.0000 C   0  0  0  0  0  0  0  0  0  0  0  0
   -0.8781    0.7262    0.0000 O   0  0  0  0  0  0  0  0  0  0  0  0
   -3.0340   -1.3383    0.0000 O   0  0  0  0  0  0  0  0  0  0  0  0
   -2.3198   -1.7531    0.0000 O   0  0  0  0  0  0  0  0  0  0  0  0
   -2.7922   -2.4275    0.0000 C   0  0  0  0  0  0  0  0  0  0  0  0
   -3.6139   -2.3559    0.0000 O   0  0  0  0  0  0  0  0  0  0  0  0
   -2.4431   -3.1750    0.0000 C   0  0  0  0  0  0  0  0  0  0  0  0
   -1.5996   -1.3383    0.0000 C   0  0  0  0  0  0  0  0  0  0  0  0
   -1.3887   -2.1312    0.0000 C   0  0  0  0  0  0  0  0  0  0  0  0
   -0.8891   -0.9212    0.0000 C   0  0  0  0  0  0  0  0  0  0  0  0
   -3.7464   -1.7553    0.0000 O   0  0  0  0  0  0  0  0  0  0  0  0
   -3.7536   -0.1054    0.0000 C   0  0  0  0  0  0  0  0  0  0  0  0
   -4.4611    1.9652    0.0000 C   0  0  0  0  0  0  0  0  0  0  0  0
   -5.1750    1.5517    0.0000 C   0  0  0  0  0  0  0  0  0  0  0  0
   -0.1636    0.3138    0.0000 C   0  0  0  0  0  0  0  0  0  0  0  0
    0.5508    0.7265    0.0000 C   0  0  0  0  0  0  0  0  0  0  0  0
    1.2653    0.3143    0.0000 C   0  0  0  0  0  0  0  0  0  0  0  0
    1.9796    0.7270    0.0000 C   0  0  0  0  0  0  0  0  0  0  0  0
    2.6943    0.3146    0.0000 C   0  0  0  0  0  0  0  0  0  0  0  0
   -0.9075    1.5628    0.0000 O   0  0  0  0  0  0  0  0  0  0  0  0
   -4.4623    2.7902    0.0000 O   0  0  0  0  0  0  0  0  0  0  0  0
 21 22  2  0
  5  6  1  0
 22 23  1  0
  4 11  1  0
 23 24  2  0
 24 19  1  0
  9 25  1  0
  5 12  1  0
  6 26  1  0
  1  2  1  0
  7 27  1  0
 12 13  1  0
 27 28  1  0
  1  4  1  0
 28 29  2  0
 13 14  1  0
 28 30  1  0
  2  3  1  0
  8 31  1  0
 26 31  1  0
 14 15  1  0
 31 32  1  0
  3  6  1  0
 31 33  1  0
 14 16  2  0
  3 34  1  0
  5  4  1  0
  3 35  1  0
 10 17  1  0
 11 36  1  0
  5 10  1  0
 36 37  1  0
 17 18  1  0
 25 38  1  0
  6  7  1  0
 38 39  1  0
 18 19  1  0
 39 40  1  0
  7  8  1  0
 40 41  1  0
 19 20  2  0
 41 42  1  0
  8  9  1  0
 18 43  2  0
 20 21  1  0
 36 44  2  0
  9 10  1  0
M  END
>  <Classification>  (25) 
1

>  <pchembl>  (25) 
5.74

>  <InChI_steorem>  (25) 
InChI=1S/C33H46O11/c1-8-9-13-18-39-26-25-27(42-22(4)36)33(44-30(25,5)6)31(7,38)17-16-24(41-21(3)35)32(33,19-40-20(2)34)28(26)43-29(37)23-14-11-10-12-15-23/h10-12,14-15,24-28,38H,8-9,13,16-19H2,1-7H3

>  <source>  (25) 
ChEMBL25

>  <source_id>  (25) 
25

>  <optional_reference>  (25) 
10.1021/jm070290v

>  <optional_origin>  (25) 
None

>  <target>  (25) 
MDR1

$$$$

     RDKit          2D

 44 48  0  0  0  0  0  0  0  0999 V2000
   -1.6958   -5.1835    0.0000 C   0  0  0  0  0  0  0  0  0  0  0  0
   -1.6958   -6.0130    0.0000 C   0  0  0  0  0  0  0  0  0  0  0  0
   -0.9813   -6.4255    0.0000 C   0  0  0  0  0  0  0  0  0  0  0  0
   -0.9813   -4.7664    0.0000 C   0  0  0  0  0  0  0  0  0  0  0  0
   -0.2623   -5.1835    0.0000 C   0  0  0  0  0  0  0  0  0  0  0  0
   -0.2612   -6.0130    0.0000 C   0  0  0  0  0  0  0  0  0  0  0  0
    0.4537   -6.4245    0.0000 C   0  0  0  0  0  0  0  0  0  0  0  0
    1.1722   -6.0112    0.0000 C   0  0  0  0  0  0  0  0  0  0  0  0
    1.1711   -5.1816    0.0000 C   0  0  0  0  0  0  0  0  0  0  0  0
    0.4516   -4.7655    0.0000 C   0  0  0  0  0  0  0  0  0  0  0  0
   -0.9825   -3.9414    0.0000 O   0  0  0  0  0  0  0  0  0  0  0  0
   -1.6974   -3.5299    0.0000 C   0  0  0  0  0  0  0  0  0  0  0  0
   -1.6986   -2.7050    0.0000 O   0  0  0  0  0  0  0  0  0  0  0  0
   -2.4112   -4.7727    0.0000 O   0  0  0  0  0  0  0  0  0  0  0  0
   -0.9899   -5.6006    0.0000 C   0  0  0  0  0  0  0  0  0  0  0  0
   -0.2704   -6.8334    0.0000 O   0  0  0  0  0  0  0  0  0  0  0  0
    1.1641   -6.8334    0.0000 C   0  0  0  0  0  0  0  0  0  0  0  0
    1.3749   -7.6262    0.0000 C   0  0  0  0  0  0  0  0  0  0  0  0
    1.9570   -6.6180    0.0000 C   0  0  0  0  0  0  0  0  0  0  0  0
   -0.2704   -4.3585    0.0000 C   0  0  0  0  0  0  0  0  0  0  0  0
    0.4494   -3.9405    0.0000 O   0  0  0  0  0  0  0  0  0  0  0  0
    1.1627   -3.5262    0.0000 C   0  0  0  0  0  0  0  0  0  0  0  0
    1.1605   -2.7012    0.0000 O   0  0  0  0  0  0  0  0  0  0  0  0
    1.8781   -3.9376    0.0000 C   0  0  0  0  0  0  0  0  0  0  0  0
    1.9666   -4.7577    0.0000 C   0  0  0  0  0  0  0  0  0  0  0  0
    2.7740   -4.9271    0.0000 C   0  0  0  0  0  0  0  0  0  0  0  0
    3.1847   -4.2114    0.0000 C   0  0  0  0  0  0  0  0  0  0  0  0
    2.6309   -3.6000    0.0000 O   0  0  0  0  0  0  0  0  0  0  0  0
    0.4536   -7.2495    0.0000 O   0  0  0  0  0  0  0  0  0  0  0  0
   -2.4132   -3.9478    0.0000 C   0  0  0  0  0  0  0  0  0  0  0  0
   -3.1246   -5.1869    0.0000 C   0  0  0  0  0  0  0  0  0  0  0  0
   -3.8400   -4.7762    0.0000 C   0  0  0  0  0  0  0  0  0  0  0  0
   -3.1226   -6.0118    0.0000 O   0  0  0  0  0  0  0  0  0  0  0  0
   -0.9752   -7.2494    0.0000 O   0  0  0  0  0  0  0  0  0  0  0  0
   -3.8387   -3.9507    0.0000 C   0  0  0  0  0  0  0  0  0  0  0  0
   -4.5532   -3.5399    0.0000 C   0  0  0  0  0  0  0  0  0  0  0  0
   -5.2677   -3.9542    0.0000 C   0  0  0  0  0  0  0  0  0  0  0  0
   -5.2630   -4.7834    0.0000 C   0  0  0  0  0  0  0  0  0  0  0  0
   -4.5479   -5.1903    0.0000 C   0  0  0  0  0  0  0  0  0  0  0  0
   -0.2608   -7.6620    0.0000 C   0  0  0  0  0  0  0  0  0  0  0  0
   -0.2609   -8.4869    0.0000 C   0  0  0  0  0  0  0  0  0  0  0  0
   -0.9754   -8.8993    0.0000 C   0  0  0  0  0  0  0  0  0  0  0  0
   -0.9755   -9.7242    0.0000 C   0  0  0  0  0  0  0  0  0  0  0  0
   -1.6899  -10.1366    0.0000 C   0  0  0  0  0  0  0  0  0  0  0  0
  5 20  1  0
  9 10  1  0
 10 21  1  0
  5  6  1  0
 21 22  1  0
  4 11  1  0
 22 23  2  0
 24 25  2  0
 11 12  1  0
  1  2  1  0
 12 13  2  0
 12 30  1  0
 25 26  1  0
 26 27  2  0
 27 28  1  0
 28 24  1  0
 22 24  1  0
  1  4  1  0
  7 29  1  0
  1 14  1  0
  2  3  1  0
 14 31  1  0
  3 15  1  0
 31 32  1  0
  3  6  1  0
 31 33  2  0
  3 34  1  0
  6 16  1  0
  5  4  1  0
 32 35  2  0
  8 17  1  0
 35 36  1  0
 16 17  1  0
 36 37  2  0
  5 10  1  0
 37 38  1  0
 17 18  1  0
 38 39  2  0
 39 32  1  0
  6  7  1  0
 29 40  1  0
 17 19  1  0
 40 41  1  0
  7  8  1  0
 41 42  1  0
 42 43  1  0
  8  9  1  0
 43 44  1  0
M  END
>  <Classification>  (26) 
1

>  <pchembl>  (26) 
6.0

>  <InChI_steorem>  (26) 
InChI=1S/C34H44O10/c1-7-8-12-17-40-27-23-19-26(43-30(37)24-16-13-18-39-24)33(6)28(41-21(2)35)25(42-29(36)22-14-10-9-11-15-22)20-32(5,38)34(27,33)44-31(23,3)4/h9-11,13-16,18,23,25-28,38H,7-8,12,17,19-20H2,1-6H3

>  <source>  (26) 
ChEMBL25

>  <source_id>  (26) 
25

>  <optional_reference>  (26) 
10.1021/jm070290v

>  <optional_origin>  (26) 
None

>  <target>  (26) 
MDR1

$$$$

     RDKit          2D

 44 48  0  0  0  0  0  0  0  0999 V2000
   -3.1082   -9.6292    0.0000 C   0  0  0  0  0  0  0  0  0  0  0  0
   -3.1082  -10.4466    0.0000 C   0  0  0  0  0  0  0  0  0  0  0  0
   -2.4020  -10.8484    0.0000 C   0  0  0  0  0  0  0  0  0  0  0  0
   -2.4020   -9.2135    0.0000 C   0  0  0  0  0  0  0  0  0  0  0  0
   -1.6960   -9.6292    0.0000 C   0  0  0  0  0  0  0  0  0  0  0  0
   -1.6950  -10.4466    0.0000 C   0  0  0  0  0  0  0  0  0  0  0  0
   -0.9929  -10.8475    0.0000 C   0  0  0  0  0  0  0  0  0  0  0  0
   -0.2782  -10.4447    0.0000 C   0  0  0  0  0  0  0  0  0  0  0  0
   -0.2792   -9.6273    0.0000 C   0  0  0  0  0  0  0  0  0  0  0  0
   -0.9974   -9.2133    0.0000 C   0  0  0  0  0  0  0  0  0  0  0  0
   -1.7042  -11.2549    0.0000 O   0  0  0  0  0  0  0  0  0  0  0  0
   -0.2863  -11.2549    0.0000 C   0  0  0  0  0  0  0  0  0  0  0  0
    0.4941  -11.0377    0.0000 C   0  0  0  0  0  0  0  0  0  0  0  0
    0.1108  -11.9521    0.0000 C   0  0  0  0  0  0  0  0  0  0  0  0
   -0.9622   -8.4008    0.0000 O   0  0  0  0  0  0  0  0  0  0  0  0
   -1.7042   -8.8164    0.0000 C   0  0  0  0  0  0  0  0  0  0  0  0
   -2.4032   -8.4007    0.0000 O   0  0  0  0  0  0  0  0  0  0  0  0
   -3.8105   -9.2198    0.0000 O   0  0  0  0  0  0  0  0  0  0  0  0
   -4.5156   -9.6326    0.0000 C   0  0  0  0  0  0  0  0  0  0  0  0
   -5.2228   -9.2233    0.0000 C   0  0  0  0  0  0  0  0  0  0  0  0
   -4.5148  -10.4594    0.0000 O   0  0  0  0  0  0  0  0  0  0  0  0
   -3.1191   -7.9907    0.0000 C   0  0  0  0  0  0  0  0  0  0  0  0
   -3.1202   -7.1640    0.0000 C   0  0  0  0  0  0  0  0  0  0  0  0
   -0.2298   -8.0212    0.0000 C   0  0  0  0  0  0  0  0  0  0  0  0
   -0.1940   -7.1952    0.0000 C   0  0  0  0  0  0  0  0  0  0  0  0
    0.5454   -6.8130    0.0000 C   0  0  0  0  0  0  0  0  0  0  0  0
    0.4711   -8.4683    0.0000 O   0  0  0  0  0  0  0  0  0  0  0  0
    0.5840   -5.9826    0.0000 C   0  0  0  0  0  0  0  0  0  0  0  0
    1.3240   -5.6051    0.0000 C   0  0  0  0  0  0  0  0  0  0  0  0
    1.3629   -4.7755    0.0000 C   0  0  0  0  0  0  0  0  0  0  0  0
    0.6625   -4.3261    0.0000 C   0  0  0  0  0  0  0  0  0  0  0  0
   -0.0786   -4.7122    0.0000 C   0  0  0  0  0  0  0  0  0  0  0  0
   -0.1138   -5.5406    0.0000 C   0  0  0  0  0  0  0  0  0  0  0  0
   -2.4027   -6.7533    0.0000 C   0  0  0  0  0  0  0  0  0  0  0  0
   -2.4034   -5.9274    0.0000 C   0  0  0  0  0  0  0  0  0  0  0  0
   -3.1206   -5.5143    0.0000 C   0  0  0  0  0  0  0  0  0  0  0  0
   -3.8383   -5.9330    0.0000 C   0  0  0  0  0  0  0  0  0  0  0  0
   -3.8338   -6.7575    0.0000 C   0  0  0  0  0  0  0  0  0  0  0  0
   -2.4023  -11.6797    0.0000 C   0  0  0  0  0  0  0  0  0  0  0  0
   -3.8267  -10.8645    0.0000 O   0  0  0  0  0  0  0  0  0  0  0  0
   -3.8242  -11.6958    0.0000 C   0  0  0  0  0  0  0  0  0  0  0  0
   -3.1029  -12.1092    0.0000 O   0  0  0  0  0  0  0  0  0  0  0  0
   -4.5428  -12.1136    0.0000 C   0  0  0  0  0  0  0  0  0  0  0  0
   -3.8380   -8.4081    0.0000 O   0  0  0  0  0  0  0  0  0  0  0  0
  9 10  1  0
 17 22  1  0
  5  6  1  0
 22 23  1  0
  6 11  1  0
 15 24  1  0
  8 12  1  0
 24 25  1  0
 11 12  1  0
 25 26  2  3
  1  2  1  0
 24 27  2  0
 12 13  1  0
 26 28  1  0
  1  4  1  0
 28 29  2  0
 12 14  1  0
 29 30  1  0
  2  3  1  0
 30 31  2  0
 10 15  1  0
 31 32  1  0
  3  6  1  0
 32 33  2  0
 33 28  1  0
  5 16  1  0
 23 34  2  0
  5  4  1  0
 34 35  1  0
  4 17  1  0
 35 36  2  0
  5 10  1  0
 36 37  1  0
  1 18  1  0
 37 38  2  0
 38 23  1  0
  6  7  1  0
  3 39  1  0
 18 19  1  0
  2 40  1  0
  7  8  1  0
 40 41  1  0
 19 20  1  0
 41 42  2  0
  8  9  1  0
 41 43  1  0
 19 21  2  0
 22 44  2  0
M  END
>  <Classification>  (27) 
1

>  <pchembl>  (27) 
5.57

>  <InChI_steorem>  (27) 
InChI=1S/C35H40O9/c1-21-29(40-22(2)36)30(41-23(3)37)31(43-32(39)25-15-11-8-12-16-25)34(6)27(19-26-20-35(21,34)44-33(26,4)5)42-28(38)18-17-24-13-9-7-10-14-24/h7-18,21,26-27,29-31H,19-20H2,1-6H3

>  <source>  (27) 
ChEMBL25

>  <source_id>  (27) 
25

>  <optional_reference>  (27) 
10.1021/jm070290v

>  <optional_origin>  (27) 
None

>  <target>  (27) 
MDR1

$$$$

     RDKit          2D

 45 49  0  0  0  0  0  0  0  0999 V2000
   13.7584  -13.6484    0.0000 C   0  0  0  0  0  0  0  0  0  0  0  0
   13.7584  -14.4779    0.0000 C   0  0  0  0  0  0  0  0  0  0  0  0
   14.4729  -14.8904    0.0000 C   0  0  0  0  0  0  0  0  0  0  0  0
   14.4729  -13.2314    0.0000 C   0  0  0  0  0  0  0  0  0  0  0  0
   15.1918  -13.6484    0.0000 C   0  0  0  0  0  0  0  0  0  0  0  0
   15.1929  -14.4779    0.0000 C   0  0  0  0  0  0  0  0  0  0  0  0
   15.9079  -14.8895    0.0000 C   0  0  0  0  0  0  0  0  0  0  0  0
   16.6263  -14.4761    0.0000 C   0  0  0  0  0  0  0  0  0  0  0  0
   16.6252  -13.6466    0.0000 C   0  0  0  0  0  0  0  0  0  0  0  0
   15.9058  -13.2304    0.0000 C   0  0  0  0  0  0  0  0  0  0  0  0
   14.4717  -12.4064    0.0000 O   0  0  0  0  0  0  0  0  0  0  0  0
   13.7567  -11.9949    0.0000 C   0  0  0  0  0  0  0  0  0  0  0  0
   13.7555  -11.1700    0.0000 O   0  0  0  0  0  0  0  0  0  0  0  0
   13.0430  -13.2377    0.0000 O   0  0  0  0  0  0  0  0  0  0  0  0
   14.4642  -14.0655    0.0000 C   0  0  0  0  0  0  0  0  0  0  0  0
   15.1838  -15.2983    0.0000 O   0  0  0  0  0  0  0  0  0  0  0  0
   16.6182  -15.2983    0.0000 C   0  0  0  0  0  0  0  0  0  0  0  0
   16.8291  -16.0912    0.0000 C   0  0  0  0  0  0  0  0  0  0  0  0
   17.4112  -15.0829    0.0000 C   0  0  0  0  0  0  0  0  0  0  0  0
   15.1838  -12.8234    0.0000 C   0  0  0  0  0  0  0  0  0  0  0  0
   15.9036  -12.4054    0.0000 O   0  0  0  0  0  0  0  0  0  0  0  0
   16.6169  -11.9911    0.0000 C   0  0  0  0  0  0  0  0  0  0  0  0
   16.6147  -11.1661    0.0000 O   0  0  0  0  0  0  0  0  0  0  0  0
   17.3323  -12.4025    0.0000 C   0  0  0  0  0  0  0  0  0  0  0  0
   17.4207  -13.2226    0.0000 C   0  0  0  0  0  0  0  0  0  0  0  0
   18.2282  -13.3920    0.0000 C   0  0  0  0  0  0  0  0  0  0  0  0
   18.6388  -12.6765    0.0000 C   0  0  0  0  0  0  0  0  0  0  0  0
   18.0851  -12.0649    0.0000 O   0  0  0  0  0  0  0  0  0  0  0  0
   15.9089  -15.7127    0.0000 O   0  0  0  0  0  0  0  0  0  0  0  0
   13.0410  -12.4127    0.0000 C   0  0  0  0  0  0  0  0  0  0  0  0
   12.3295  -13.6519    0.0000 C   0  0  0  0  0  0  0  0  0  0  0  0
   11.6141  -13.2411    0.0000 C   0  0  0  0  0  0  0  0  0  0  0  0
   12.3315  -14.4767    0.0000 O   0  0  0  0  0  0  0  0  0  0  0  0
   14.4789  -15.7143    0.0000 O   0  0  0  0  0  0  0  0  0  0  0  0
   11.6155  -12.4156    0.0000 C   0  0  0  0  0  0  0  0  0  0  0  0
   10.9009  -12.0048    0.0000 C   0  0  0  0  0  0  0  0  0  0  0  0
   10.1864  -12.4191    0.0000 C   0  0  0  0  0  0  0  0  0  0  0  0
   10.1912  -13.2483    0.0000 C   0  0  0  0  0  0  0  0  0  0  0  0
   10.9062  -13.6553    0.0000 C   0  0  0  0  0  0  0  0  0  0  0  0
   15.8057  -16.5291    0.0000 C   0  0  0  0  0  0  0  0  0  0  0  0
   15.0452  -16.8488    0.0000 C   0  0  0  0  0  0  0  0  0  0  0  0
   16.4627  -17.0279    0.0000 O   0  0  0  0  0  0  0  0  0  0  0  0
   14.2866  -17.1731    0.0000 C   0  0  0  0  0  0  0  0  0  0  0  0
   15.3672  -17.6083    0.0000 C   0  0  0  0  0  0  0  0  0  0  0  0
   14.7231  -16.0892    0.0000 C   0  0  0  0  0  0  0  0  0  0  0  0
  9 10  1  0
 10 21  1  0
  5  6  1  0
 21 22  1  0
  4 11  1  0
 22 23  2  0
 24 25  2  0
 11 12  1  0
  1  2  1  0
 12 13  2  0
 12 30  1  0
 25 26  1  0
 26 27  2  0
 27 28  1  0
 28 24  1  0
 22 24  1  0
  1  4  1  0
  7 29  1  0
  1 14  1  0
  2  3  1  0
 14 31  1  0
  3 15  1  0
 31 32  1  0
  3  6  1  0
 31 33  2  0
  3 34  1  0
  6 16  1  0
  5  4  1  0
 32 35  2  0
  8 17  1  0
 35 36  1  0
 16 17  1  0
 36 37  2  0
  5 10  1  0
 37 38  1  0
 17 18  1  0
 38 39  2  0
 39 32  1  0
  6  7  1  0
 29 40  1  0
 17 19  1  0
 40 41  1  0
  7  8  1  0
 40 42  2  0
 41 43  1  0
  8  9  1  0
 41 44  1  0
  5 20  1  0
 41 45  1  0
M  END
>  <Classification>  (28) 
1

>  <pchembl>  (28) 
5.98

>  <InChI_steorem>  (28) 
InChI=1S/C34H42O11/c1-19(35)41-26-23(42-27(36)20-13-10-9-11-14-20)18-32(7,39)34-25(44-29(38)30(2,3)4)21(31(5,6)45-34)17-24(33(26,34)8)43-28(37)22-15-12-16-40-22/h9-16,21,23-26,39H,17-18H2,1-8H3

>  <source>  (28) 
ChEMBL25

>  <source_id>  (28) 
25

>  <optional_reference>  (28) 
10.1021/jm070290v

>  <optional_origin>  (28) 
None

>  <target>  (28) 
MDR1

$$$$

     RDKit          2D

 45 49  0  0  0  0  0  0  0  0999 V2000
   14.0125   -0.7607    0.0000 C   0  0  0  0  0  0  0  0  0  0  0  0
   14.0125   -1.5816    0.0000 C   0  0  0  0  0  0  0  0  0  0  0  0
   14.7216   -1.9852    0.0000 C   0  0  0  0  0  0  0  0  0  0  0  0
   14.7216   -0.3432    0.0000 C   0  0  0  0  0  0  0  0  0  0  0  0
   15.4308   -0.7607    0.0000 C   0  0  0  0  0  0  0  0  0  0  0  0
   15.4319   -1.5816    0.0000 C   0  0  0  0  0  0  0  0  0  0  0  0
   16.1369   -1.9843    0.0000 C   0  0  0  0  0  0  0  0  0  0  0  0
   16.8501   -1.5799    0.0000 C   0  0  0  0  0  0  0  0  0  0  0  0
   16.8491   -0.7589    0.0000 C   0  0  0  0  0  0  0  0  0  0  0  0
   16.1324   -0.3431    0.0000 C   0  0  0  0  0  0  0  0  0  0  0  0
   15.4226   -2.3934    0.0000 O   0  0  0  0  0  0  0  0  0  0  0  0
   16.8420   -2.3934    0.0000 C   0  0  0  0  0  0  0  0  0  0  0  0
   17.6258   -2.1754    0.0000 C   0  0  0  0  0  0  0  0  0  0  0  0
   17.2455   -3.0938    0.0000 C   0  0  0  0  0  0  0  0  0  0  0  0
   16.1368   -2.8006    0.0000 O   0  0  0  0  0  0  0  0  0  0  0  0
   16.5858    0.3365    0.0000 O   0  0  0  0  0  0  0  0  0  0  0  0
   15.4226    0.0557    0.0000 C   0  0  0  0  0  0  0  0  0  0  0  0
   14.7205    0.4731    0.0000 O   0  0  0  0  0  0  0  0  0  0  0  0
   13.3070   -0.3497    0.0000 O   0  0  0  0  0  0  0  0  0  0  0  0
   12.5943   -0.7642    0.0000 C   0  0  0  0  0  0  0  0  0  0  0  0
   11.8887   -0.3531    0.0000 C   0  0  0  0  0  0  0  0  0  0  0  0
   17.5671   -0.3406    0.0000 O   0  0  0  0  0  0  0  0  0  0  0  0
   16.1368    0.4803    0.0000 O   0  0  0  0  0  0  0  0  0  0  0  0
   16.1284    1.3106    0.0000 C   0  0  0  0  0  0  0  0  0  0  0  0
   16.8426    1.7306    0.0000 C   0  0  0  0  0  0  0  0  0  0  0  0
   15.4059    1.7161    0.0000 O   0  0  0  0  0  0  0  0  0  0  0  0
   14.7214   -2.8155    0.0000 O   0  0  0  0  0  0  0  0  0  0  0  0
   12.5951   -1.5945    0.0000 O   0  0  0  0  0  0  0  0  0  0  0  0
   14.0015    0.8849    0.0000 C   0  0  0  0  0  0  0  0  0  0  0  0
   14.0003    1.7151    0.0000 C   0  0  0  0  0  0  0  0  0  0  0  0
   14.7241    2.1320    0.0000 C   0  0  0  0  0  0  0  0  0  0  0  0
   14.7233    2.9570    0.0000 C   0  0  0  0  0  0  0  0  0  0  0  0
   14.0037    3.3700    0.0000 C   0  0  0  0  0  0  0  0  0  0  0  0
   13.2835    2.9535    0.0000 C   0  0  0  0  0  0  0  0  0  0  0  0
   13.2879    2.1278    0.0000 C   0  0  0  0  0  0  0  0  0  0  0  0
   17.4161    0.3409    0.0000 C   0  0  0  0  0  0  0  0  0  0  0  0
   17.8252    1.0614    0.0000 C   0  0  0  0  0  0  0  0  0  0  0  0
   18.6543    1.0637    0.0000 C   0  0  0  0  0  0  0  0  0  0  0  0
   19.0679    1.7834    0.0000 C   0  0  0  0  0  0  0  0  0  0  0  0
   18.6466    2.5006    0.0000 C   0  0  0  0  0  0  0  0  0  0  0  0
   17.8120    2.4936    0.0000 C   0  0  0  0  0  0  0  0  0  0  0  0
   17.4069    1.7733    0.0000 C   0  0  0  0  0  0  0  0  0  0  0  0
   14.7130   -1.1550    0.0000 C   0  0  0  0  0  0  0  0  0  0  0  0
   13.2795    0.4657    0.0000 O   0  0  0  0  0  0  0  0  0  0  0  0
   18.2474    0.3432    0.0000 O   0  0  0  0  0  0  0  0  0  0  0  0
  9 22  2  0
  5  6  1  0
 17 23  1  0
  6 11  1  0
 23 24  1  0
 24 25  1  0
  8 12  1  0
 24 26  2  0
 11 12  1  0
  3 27  1  0
  1  2  1  0
 20 28  2  0
 12 13  1  0
 18 29  1  0
  1  4  1  0
 29 30  1  0
 12 14  1  0
 30 31  2  0
  2  3  1  0
 31 32  1  0
  7 15  1  0
 32 33  2  0
  3  6  1  0
 33 34  1  0
 10 16  1  0
 34 35  2  0
 35 30  1  0
  5  4  1  0
 16 36  1  0
  5 17  1  0
 36 37  1  0
  5 10  1  0
 37 38  2  0
  4 18  1  0
 38 39  1  0
  6  7  1  0
 39 40  2  0
  1 19  1  0
 40 41  1  0
  7  8  1  0
 41 42  2  0
 42 37  1  0
 19 20  1  0
  3 43  1  0
  8  9  1  0
 20 21  1  0
 29 44  2  0
  9 10  1  0
 36 45  2  0
M  END
>  <Classification>  (29) 
1

>  <pchembl>  (29) 
5.4

>  <InChI_steorem>  (29) 
InChI=1S/C33H36O12/c1-18(34)41-17-32-26(43-28(38)20-12-8-6-9-13-20)22(42-19(2)35)16-31(5,40)33(32)25(37)23(30(3,4)45-33)24(36)27(32)44-29(39)21-14-10-7-11-15-21/h6-15,22-23,25-27,37,40H,16-17H2,1-5H3

>  <source>  (29) 
ChEMBL25

>  <source_id>  (29) 
25

>  <optional_reference>  (29) 
10.1021/jm070290v

>  <optional_origin>  (29) 
None

>  <target>  (29) 
MDR1

$$$$

     RDKit          2D

 45 49  0  0  0  0  0  0  0  0999 V2000
   -1.4574  -22.0305    0.0000 C   0  0  0  0  0  0  0  0  0  0  0  0
   -1.4574  -22.8600    0.0000 C   0  0  0  0  0  0  0  0  0  0  0  0
   -0.7430  -23.2724    0.0000 C   0  0  0  0  0  0  0  0  0  0  0  0
   -0.7430  -21.6134    0.0000 C   0  0  0  0  0  0  0  0  0  0  0  0
   -0.0240  -22.0305    0.0000 C   0  0  0  0  0  0  0  0  0  0  0  0
   -0.0229  -22.8600    0.0000 C   0  0  0  0  0  0  0  0  0  0  0  0
    0.6921  -23.2715    0.0000 C   0  0  0  0  0  0  0  0  0  0  0  0
    1.4105  -22.8582    0.0000 C   0  0  0  0  0  0  0  0  0  0  0  0
    1.4094  -22.0286    0.0000 C   0  0  0  0  0  0  0  0  0  0  0  0
    0.6899  -21.6125    0.0000 C   0  0  0  0  0  0  0  0  0  0  0  0
   -0.7441  -20.7885    0.0000 O   0  0  0  0  0  0  0  0  0  0  0  0
   -1.4592  -20.3770    0.0000 C   0  0  0  0  0  0  0  0  0  0  0  0
   -1.4603  -19.5521    0.0000 O   0  0  0  0  0  0  0  0  0  0  0  0
   -2.1728  -21.6197    0.0000 O   0  0  0  0  0  0  0  0  0  0  0  0
   -0.7516  -22.4475    0.0000 C   0  0  0  0  0  0  0  0  0  0  0  0
   -0.0321  -23.6804    0.0000 O   0  0  0  0  0  0  0  0  0  0  0  0
    1.4024  -23.6804    0.0000 C   0  0  0  0  0  0  0  0  0  0  0  0
    2.1952  -23.4649    0.0000 C   0  0  0  0  0  0  0  0  0  0  0  0
   -0.0321  -21.2056    0.0000 C   0  0  0  0  0  0  0  0  0  0  0  0
    0.6877  -20.7876    0.0000 O   0  0  0  0  0  0  0  0  0  0  0  0
    1.4011  -20.3732    0.0000 C   0  0  0  0  0  0  0  0  0  0  0  0
    1.3989  -19.5482    0.0000 O   0  0  0  0  0  0  0  0  0  0  0  0
    2.1165  -20.7845    0.0000 C   0  0  0  0  0  0  0  0  0  0  0  0
    2.2049  -21.6047    0.0000 C   0  0  0  0  0  0  0  0  0  0  0  0
    3.0122  -21.7741    0.0000 C   0  0  0  0  0  0  0  0  0  0  0  0
    3.4228  -21.0585    0.0000 C   0  0  0  0  0  0  0  0  0  0  0  0
    2.8691  -20.4471    0.0000 O   0  0  0  0  0  0  0  0  0  0  0  0
    0.6931  -24.0947    0.0000 O   0  0  0  0  0  0  0  0  0  0  0  0
   -2.1748  -20.7947    0.0000 C   0  0  0  0  0  0  0  0  0  0  0  0
   -2.8862  -22.0339    0.0000 C   0  0  0  0  0  0  0  0  0  0  0  0
   -3.6017  -21.6231    0.0000 C   0  0  0  0  0  0  0  0  0  0  0  0
   -2.8842  -22.8589    0.0000 O   0  0  0  0  0  0  0  0  0  0  0  0
   -0.7369  -24.0964    0.0000 O   0  0  0  0  0  0  0  0  0  0  0  0
   -3.6003  -20.7976    0.0000 C   0  0  0  0  0  0  0  0  0  0  0  0
   -4.3149  -20.3869    0.0000 C   0  0  0  0  0  0  0  0  0  0  0  0
   -5.0293  -20.8012    0.0000 C   0  0  0  0  0  0  0  0  0  0  0  0
   -5.0247  -21.6304    0.0000 C   0  0  0  0  0  0  0  0  0  0  0  0
   -4.3095  -22.0373    0.0000 C   0  0  0  0  0  0  0  0  0  0  0  0
    0.5899  -24.9111    0.0000 C   0  0  0  0  0  0  0  0  0  0  0  0
    1.2469  -25.4099    0.0000 C   0  0  0  0  0  0  0  0  0  0  0  0
    0.7901  -26.0969    0.0000 F   0  0  0  0  0  0  0  0  0  0  0  0
    1.7081  -24.7260    0.0000 F   0  0  0  0  0  0  0  0  0  0  0  0
   -0.1707  -25.2307    0.0000 O   0  0  0  0  0  0  0  0  0  0  0  0
    1.9037  -25.9090    0.0000 F   0  0  0  0  0  0  0  0  0  0  0  0
    1.9845  -24.2624    0.0000 C   0  0  0  0  0  0  0  0  0  0  0  0
  9 10  1  0
 20 21  1  0
  5  6  1  0
 21 22  2  0
 23 24  2  0
  4 11  1  0
 11 12  1  0
  1  2  1  0
 12 13  2  0
 24 25  1  0
 25 26  2  0
 26 27  1  0
 27 23  1  0
 21 23  1  0
 12 29  1  0
  7 28  1  0
  1  4  1  0
  1 14  1  0
 14 30  1  0
  2  3  1  0
 30 31  1  0
  3 15  1  0
 30 32  2  0
  3 33  1  0
  3  6  1  0
  6 16  1  0
 31 34  2  0
  5  4  1  0
 34 35  1  0
  8 17  1  0
 35 36  2  0
 16 17  1  0
 36 37  1  0
  5 10  1  0
 37 38  2  0
 38 31  1  0
 17 18  1  0
 28 39  1  0
  6  7  1  0
 39 40  1  0
 40 41  1  0
  7  8  1  0
 40 42  1  0
  5 19  1  0
 39 43  2  0
  8  9  1  0
 40 44  1  0
 10 20  1  0
 17 45  1  0
M  END
>  <Classification>  (30) 
1

>  <pchembl>  (30) 
5.81

>  <InChI_steorem>  (30) 
InChI=1S/C31H33F3O11/c1-16(35)41-23-20(42-24(36)17-10-7-6-8-11-17)15-28(4,39)30-22(44-26(38)31(32,33)34)18(27(2,3)45-30)14-21(29(23,30)5)43-25(37)19-12-9-13-40-19/h6-13,18,20-23,39H,14-15H2,1-5H3

>  <source>  (30) 
ChEMBL25

>  <source_id>  (30) 
25

>  <optional_reference>  (30) 
10.1021/jm070290v

>  <optional_origin>  (30) 
None

>  <target>  (30) 
MDR1

$$$$

     RDKit          2D

 45 49  0  0  0  0  0  0  0  0999 V2000
    3.8314   -3.0802    0.0000 C   0  0  0  0  0  0  0  0  0  0  0  0
    3.8314   -3.9098    0.0000 C   0  0  0  0  0  0  0  0  0  0  0  0
    4.5491   -4.3223    0.0000 C   0  0  0  0  0  0  0  0  0  0  0  0
    4.5491   -2.6631    0.0000 C   0  0  0  0  0  0  0  0  0  0  0  0
    5.2669   -3.0802    0.0000 C   0  0  0  0  0  0  0  0  0  0  0  0
    5.2679   -3.9098    0.0000 C   0  0  0  0  0  0  0  0  0  0  0  0
    5.9817   -4.3214    0.0000 C   0  0  0  0  0  0  0  0  0  0  0  0
    6.7035   -3.9080    0.0000 C   0  0  0  0  0  0  0  0  0  0  0  0
    6.7025   -3.0784    0.0000 C   0  0  0  0  0  0  0  0  0  0  0  0
    5.9772   -2.6630    0.0000 C   0  0  0  0  0  0  0  0  0  0  0  0
    5.2587   -4.7301    0.0000 O   0  0  0  0  0  0  0  0  0  0  0  0
    6.6954   -4.7301    0.0000 C   0  0  0  0  0  0  0  0  0  0  0  0
    7.4879   -4.5169    0.0000 C   0  0  0  0  0  0  0  0  0  0  0  0
    7.1031   -5.4392    0.0000 C   0  0  0  0  0  0  0  0  0  0  0  0
    5.9816   -5.1462    0.0000 O   0  0  0  0  0  0  0  0  0  0  0  0
    5.2684   -5.5586    0.0000 C   0  0  0  0  0  0  0  0  0  0  0  0
    5.2683   -6.3836    0.0000 C   0  0  0  0  0  0  0  0  0  0  0  0
    6.4125   -1.9635    0.0000 O   0  0  0  0  0  0  0  0  0  0  0  0
    7.2371   -1.9903    0.0000 C   0  0  0  0  0  0  0  0  0  0  0  0
    5.2587   -2.2554    0.0000 C   0  0  0  0  0  0  0  0  0  0  0  0
    5.9678   -1.8358    0.0000 O   0  0  0  0  0  0  0  0  0  0  0  0
    5.9595   -1.0109    0.0000 C   0  0  0  0  0  0  0  0  0  0  0  0
    6.6731   -0.5913    0.0000 C   0  0  0  0  0  0  0  0  0  0  0  0
    5.2424   -0.6056    0.0000 O   0  0  0  0  0  0  0  0  0  0  0  0
    4.5480   -1.8383    0.0000 O   0  0  0  0  0  0  0  0  0  0  0  0
    3.8296   -1.4267    0.0000 C   0  0  0  0  0  0  0  0  0  0  0  0
    3.8285   -0.6019    0.0000 C   0  0  0  0  0  0  0  0  0  0  0  0
    3.1170   -1.8403    0.0000 O   0  0  0  0  0  0  0  0  0  0  0  0
    3.1172   -2.6696    0.0000 O   0  0  0  0  0  0  0  0  0  0  0  0
    2.4050   -3.0838    0.0000 C   0  0  0  0  0  0  0  0  0  0  0  0
    1.6908   -2.6730    0.0000 C   0  0  0  0  0  0  0  0  0  0  0  0
    2.4070   -3.9086    0.0000 O   0  0  0  0  0  0  0  0  0  0  0  0
    4.5404   -3.4973    0.0000 C   0  0  0  0  0  0  0  0  0  0  0  0
    4.5404   -5.1472    0.0000 O   0  0  0  0  0  0  0  0  0  0  0  0
    7.6306   -2.7259    0.0000 C   0  0  0  0  0  0  0  0  0  0  0  0
    7.2705   -3.4743    0.0000 C   0  0  0  0  0  0  0  0  0  0  0  0
    7.8720   -4.0522    0.0000 C   0  0  0  0  0  0  0  0  0  0  0  0
    8.6077   -3.6588    0.0000 C   0  0  0  0  0  0  0  0  0  0  0  0
    8.4606   -2.8376    0.0000 O   0  0  0  0  0  0  0  0  0  0  0  0
    7.6774   -1.2818    0.0000 O   0  0  0  0  0  0  0  0  0  0  0  0
    4.6748   -6.1436    0.0000 O   0  0  0  0  0  0  0  0  0  0  0  0
    4.6033   -6.8711    0.0000 C   0  0  0  0  0  0  0  0  0  0  0  0
    4.8581   -7.6557    0.0000 C   0  0  0  0  0  0  0  0  0  0  0  0
    5.6830   -7.6557    0.0000 C   0  0  0  0  0  0  0  0  0  0  0  0
    5.9380   -6.8712    0.0000 O   0  0  0  0  0  0  0  0  0  0  0  0
  9 10  1  0
 21 22  1  0
  5  6  1  0
 22 23  1  0
  6 11  1  0
 22 24  2  0
  4 25  1  0
  8 12  1  0
 25 26  1  0
 11 12  1  0
 26 27  1  0
  1  2  1  0
 26 28  2  0
 12 13  1  0
  1 29  1  0
  1  4  1  0
 29 30  1  0
 12 14  1  0
 30 31  1  0
  2  3  1  0
 30 32  2  0
  7 15  1  0
  3 33  1  0
  3  6  1  0
  3 34  1  0
 15 16  1  0
 19 35  1  0
 35 36  2  0
  5  4  1  0
 16 17  1  0
  5 10  1  0
 10 18  1  0
 36 37  1  0
 37 38  2  0
 38 39  1  0
 39 35  1  0
  6  7  1  0
 19 40  2  0
 18 19  1  0
 16 41  2  0
 17 42  2  0
  7  8  1  0
  5 20  1  0
  8  9  1  0
 20 21  1  0
 42 43  1  0
 43 44  2  0
 44 45  1  0
 45 17  1  0
M  END
>  <Classification>  (31) 
1

>  <pchembl>  (31) 
5.61

>  <InChI_steorem>  (31) 
InChI=1S/C31H36O14/c1-16(32)40-15-30-23(43-26(35)20-9-7-11-38-20)13-19-24(44-27(36)21-10-8-12-39-21)31(30,45-28(19,4)5)29(6,37)14-22(41-17(2)33)25(30)42-18(3)34/h7-12,19,22-25,37H,13-15H2,1-6H3

>  <source>  (31) 
ChEMBL25

>  <source_id>  (31) 
25

>  <optional_reference>  (31) 
10.1021/jm070290v

>  <optional_origin>  (31) 
None

>  <target>  (31) 
MDR1

$$$$

     RDKit          2D

 45 50  0  0  0  0  0  0  0  0999 V2000
   -2.9652    1.0312    0.0000 C   0  0  0  0  0  0  0  0  0  0  0  0
   -2.9652    0.2016    0.0000 C   0  0  0  0  0  0  0  0  0  0  0  0
   -2.2508   -0.2109    0.0000 C   0  0  0  0  0  0  0  0  0  0  0  0
   -2.2508    1.4483    0.0000 C   0  0  0  0  0  0  0  0  0  0  0  0
   -1.5318    1.0312    0.0000 C   0  0  0  0  0  0  0  0  0  0  0  0
   -1.5308    0.2016    0.0000 C   0  0  0  0  0  0  0  0  0  0  0  0
   -0.8158   -0.2099    0.0000 C   0  0  0  0  0  0  0  0  0  0  0  0
   -0.0973    0.2035    0.0000 C   0  0  0  0  0  0  0  0  0  0  0  0
   -0.0983    1.0331    0.0000 C   0  0  0  0  0  0  0  0  0  0  0  0
   -0.8179    1.4492    0.0000 C   0  0  0  0  0  0  0  0  0  0  0  0
   -2.2520    2.2732    0.0000 O   0  0  0  0  0  0  0  0  0  0  0  0
   -2.9670    2.6847    0.0000 C   0  0  0  0  0  0  0  0  0  0  0  0
   -2.9681    3.5097    0.0000 O   0  0  0  0  0  0  0  0  0  0  0  0
   -3.6807    1.4419    0.0000 O   0  0  0  0  0  0  0  0  0  0  0  0
   -2.2595    0.6141    0.0000 C   0  0  0  0  0  0  0  0  0  0  0  0
   -1.5399   -0.6187    0.0000 O   0  0  0  0  0  0  0  0  0  0  0  0
   -0.1054   -0.6187    0.0000 C   0  0  0  0  0  0  0  0  0  0  0  0
    0.1054   -1.4116    0.0000 C   0  0  0  0  0  0  0  0  0  0  0  0
    0.6875   -0.4033    0.0000 C   0  0  0  0  0  0  0  0  0  0  0  0
   -1.5399    1.8562    0.0000 C   0  0  0  0  0  0  0  0  0  0  0  0
   -0.8201    2.2741    0.0000 O   0  0  0  0  0  0  0  0  0  0  0  0
   -0.1068    2.6885    0.0000 C   0  0  0  0  0  0  0  0  0  0  0  0
   -0.1090    3.5134    0.0000 O   0  0  0  0  0  0  0  0  0  0  0  0
    0.6087    2.2771    0.0000 C   0  0  0  0  0  0  0  0  0  0  0  0
    0.6971    1.4570    0.0000 C   0  0  0  0  0  0  0  0  0  0  0  0
    1.5045    1.2876    0.0000 C   0  0  0  0  0  0  0  0  0  0  0  0
    1.9151    2.0032    0.0000 C   0  0  0  0  0  0  0  0  0  0  0  0
    1.3614    2.6147    0.0000 O   0  0  0  0  0  0  0  0  0  0  0  0
   -0.8159   -1.0348    0.0000 O   0  0  0  0  0  0  0  0  0  0  0  0
   -1.5303   -1.4473    0.0000 C   0  0  0  0  0  0  0  0  0  0  0  0
   -1.5305   -2.2723    0.0000 C   0  0  0  0  0  0  0  0  0  0  0  0
   -2.9698   -0.6187    0.0000 O   0  0  0  0  0  0  0  0  0  0  0  0
   -2.2448   -1.0347    0.0000 O   0  0  0  0  0  0  0  0  0  0  0  0
   -2.1992   -2.7624    0.0000 C   0  0  0  0  0  0  0  0  0  0  0  0
   -1.9444   -3.5471    0.0000 C   0  0  0  0  0  0  0  0  0  0  0  0
   -1.1193   -3.5471    0.0000 C   0  0  0  0  0  0  0  0  0  0  0  0
   -0.8644   -2.7626    0.0000 O   0  0  0  0  0  0  0  0  0  0  0  0
   -3.6826    2.2669    0.0000 C   0  0  0  0  0  0  0  0  0  0  0  0
   -4.3942    1.0278    0.0000 C   0  0  0  0  0  0  0  0  0  0  0  0
   -5.1096    1.4385    0.0000 C   0  0  0  0  0  0  0  0  0  0  0  0
   -4.3922    0.2028    0.0000 O   0  0  0  0  0  0  0  0  0  0  0  0
   -5.1941    2.2631    0.0000 O   0  0  0  0  0  0  0  0  0  0  0  0
   -6.0015    2.4326    0.0000 C   0  0  0  0  0  0  0  0  0  0  0  0
   -6.4123    1.7172    0.0000 C   0  0  0  0  0  0  0  0  0  0  0  0
   -5.8587    1.1056    0.0000 C   0  0  0  0  0  0  0  0  0  0  0  0
  9 10  1  0
 10 21  1  0
  5  6  1  0
 21 22  1  0
  4 11  1  0
 22 23  2  0
 24 25  2  0
 11 12  1  0
  1  2  1  0
 12 13  2  0
 12 38  1  0
 25 26  1  0
 26 27  2  0
 27 28  1  0
 28 24  1  0
 22 24  1  0
  1  4  1  0
  7 29  1  0
  1 14  1  0
 29 30  1  0
  2  3  1  0
 30 31  1  0
  3 15  1  0
  3 32  1  0
  3  6  1  0
 30 33  2  0
 31 34  2  0
  6 16  1  0
  5  4  1  0
  8 17  1  0
 16 17  1  0
 34 35  1  0
 35 36  2  0
 36 37  1  0
 37 31  1  0
  5 10  1  0
 17 18  1  0
 14 39  1  0
  6  7  1  0
 39 40  1  0
 17 19  1  0
 39 41  2  0
 40 42  1  0
  7  8  1  0
  8  9  1  0
  5 20  1  0
 42 43  1  0
 43 44  2  0
 44 45  1  0
 45 40  2  0
M  END
>  <Classification>  (32) 
1

>  <pchembl>  (32) 
5.66

>  <InChI_steorem>  (32) 
InChI=1S/C32H34O13/c1-17(33)41-25-22(42-26(34)19-9-6-12-38-19)16-30(4,37)32-24(44-28(36)21-11-8-14-40-21)18(29(2,3)45-32)15-23(31(25,32)5)43-27(35)20-10-7-13-39-20/h6-14,18,22-25,37H,15-16H2,1-5H3

>  <source>  (32) 
ChEMBL25

>  <source_id>  (32) 
25

>  <optional_reference>  (32) 
10.1021/jm070290v

>  <optional_origin>  (32) 
None

>  <target>  (32) 
MDR1

$$$$

     RDKit          2D

 46 51  0  0  0  0  0  0  0  0999 V2000
   -1.8378  -15.3534    0.0000 C   0  0  0  0  0  0  0  0  0  0  0  0
   -1.8378  -16.1830    0.0000 C   0  0  0  0  0  0  0  0  0  0  0  0
   -1.1234  -16.5954    0.0000 C   0  0  0  0  0  0  0  0  0  0  0  0
   -1.1234  -14.9364    0.0000 C   0  0  0  0  0  0  0  0  0  0  0  0
   -0.4043  -15.3534    0.0000 C   0  0  0  0  0  0  0  0  0  0  0  0
   -0.4034  -16.1830    0.0000 C   0  0  0  0  0  0  0  0  0  0  0  0
    0.3116  -16.5946    0.0000 C   0  0  0  0  0  0  0  0  0  0  0  0
    1.0301  -16.1811    0.0000 C   0  0  0  0  0  0  0  0  0  0  0  0
    1.0291  -15.3516    0.0000 C   0  0  0  0  0  0  0  0  0  0  0  0
    0.3095  -14.9354    0.0000 C   0  0  0  0  0  0  0  0  0  0  0  0
   -1.1246  -14.1114    0.0000 O   0  0  0  0  0  0  0  0  0  0  0  0
   -1.8396  -13.6999    0.0000 C   0  0  0  0  0  0  0  0  0  0  0  0
   -1.8407  -12.8750    0.0000 O   0  0  0  0  0  0  0  0  0  0  0  0
   -2.5533  -14.9427    0.0000 O   0  0  0  0  0  0  0  0  0  0  0  0
   -1.1321  -15.7705    0.0000 C   0  0  0  0  0  0  0  0  0  0  0  0
   -0.4125  -17.0033    0.0000 O   0  0  0  0  0  0  0  0  0  0  0  0
    1.0221  -17.0033    0.0000 C   0  0  0  0  0  0  0  0  0  0  0  0
    1.2328  -17.7963    0.0000 C   0  0  0  0  0  0  0  0  0  0  0  0
    1.8149  -16.7879    0.0000 C   0  0  0  0  0  0  0  0  0  0  0  0
   -0.4125  -14.5284    0.0000 C   0  0  0  0  0  0  0  0  0  0  0  0
    0.3073  -14.1104    0.0000 O   0  0  0  0  0  0  0  0  0  0  0  0
    1.0206  -13.6961    0.0000 C   0  0  0  0  0  0  0  0  0  0  0  0
    1.0184  -12.8711    0.0000 O   0  0  0  0  0  0  0  0  0  0  0  0
    1.7362  -14.1075    0.0000 C   0  0  0  0  0  0  0  0  0  0  0  0
    1.8246  -14.9277    0.0000 C   0  0  0  0  0  0  0  0  0  0  0  0
    2.6320  -15.0970    0.0000 C   0  0  0  0  0  0  0  0  0  0  0  0
    3.0426  -14.3815    0.0000 C   0  0  0  0  0  0  0  0  0  0  0  0
    2.4888  -13.7699    0.0000 O   0  0  0  0  0  0  0  0  0  0  0  0
    0.3115  -17.4195    0.0000 O   0  0  0  0  0  0  0  0  0  0  0  0
   -0.4029  -17.8319    0.0000 C   0  0  0  0  0  0  0  0  0  0  0  0
   -0.4030  -18.6569    0.0000 C   0  0  0  0  0  0  0  0  0  0  0  0
   -1.8424  -17.0033    0.0000 O   0  0  0  0  0  0  0  0  0  0  0  0
   -1.1173  -17.4193    0.0000 O   0  0  0  0  0  0  0  0  0  0  0  0
   -1.0718  -19.1471    0.0000 C   0  0  0  0  0  0  0  0  0  0  0  0
   -0.8169  -19.9317    0.0000 C   0  0  0  0  0  0  0  0  0  0  0  0
    0.0081  -19.9318    0.0000 C   0  0  0  0  0  0  0  0  0  0  0  0
    0.2630  -19.1472    0.0000 O   0  0  0  0  0  0  0  0  0  0  0  0
   -2.5552  -14.1177    0.0000 C   0  0  0  0  0  0  0  0  0  0  0  0
   -3.2667  -15.3569    0.0000 C   0  0  0  0  0  0  0  0  0  0  0  0
   -3.9821  -14.9461    0.0000 C   0  0  0  0  0  0  0  0  0  0  0  0
   -3.2648  -16.1818    0.0000 O   0  0  0  0  0  0  0  0  0  0  0  0
   -3.9808  -14.1206    0.0000 C   0  0  0  0  0  0  0  0  0  0  0  0
   -4.6953  -13.7098    0.0000 N   0  0  0  0  0  0  0  0  0  0  0  0
   -5.4098  -14.1241    0.0000 C   0  0  0  0  0  0  0  0  0  0  0  0
   -5.4051  -14.9533    0.0000 C   0  0  0  0  0  0  0  0  0  0  0  0
   -4.6900  -15.3603    0.0000 C   0  0  0  0  0  0  0  0  0  0  0  0
 10 21  1  0
  5  6  1  0
 21 22  1  0
  4 11  1  0
 22 23  2  0
 24 25  2  0
 11 12  1  0
  1  2  1  0
 12 13  2  0
 12 38  1  0
 25 26  1  0
 26 27  2  0
 27 28  1  0
 28 24  1  0
 22 24  1  0
  1  4  1  0
  7 29  1  0
  1 14  1  0
 29 30  1  0
  2  3  1  0
 30 31  1  0
  3 15  1  0
  3 32  1  0
  3  6  1  0
 30 33  2  0
 31 34  2  0
  6 16  1  0
  5  4  1  0
  8 17  1  0
 16 17  1  0
 34 35  1  0
 35 36  2  0
 36 37  1  0
 37 31  1  0
  5 10  1  0
 17 18  1  0
 14 39  1  0
  6  7  1  0
 39 40  1  0
 17 19  1  0
 39 41  2  0
  7  8  1  0
 40 42  2  0
 42 43  1  0
  8  9  1  0
 43 44  2  0
  5 20  1  0
 44 45  1  0
  9 10  1  0
 45 46  2  0
 46 40  1  0
M  END
>  <Classification>  (33) 
1

>  <pchembl>  (33) 
5.13

>  <InChI_steorem>  (33) 
InChI=1S/C33H35NO12/c1-18(35)42-26-23(43-27(36)19-9-6-12-34-17-19)16-31(4,39)33-25(45-29(38)22-11-8-14-41-22)20(30(2,3)46-33)15-24(32(26,33)5)44-28(37)21-10-7-13-40-21/h6-14,17,20,23-26,39H,15-16H2,1-5H3

>  <source>  (33) 
ChEMBL25

>  <source_id>  (33) 
25

>  <optional_reference>  (33) 
10.1021/jm070290v

>  <optional_origin>  (33) 
None

>  <target>  (33) 
MDR1

$$$$

     RDKit          2D

 46 51  0  0  0  0  0  0  0  0999 V2000
   -2.5757  -24.5195    0.0000 C   0  0  0  0  0  0  0  0  0  0  0  0
   -2.5757  -25.3490    0.0000 C   0  0  0  0  0  0  0  0  0  0  0  0
   -1.8612  -25.7615    0.0000 C   0  0  0  0  0  0  0  0  0  0  0  0
   -1.8612  -24.1024    0.0000 C   0  0  0  0  0  0  0  0  0  0  0  0
   -1.1423  -24.5195    0.0000 C   0  0  0  0  0  0  0  0  0  0  0  0
   -1.1412  -25.3490    0.0000 C   0  0  0  0  0  0  0  0  0  0  0  0
   -0.4262  -25.7606    0.0000 C   0  0  0  0  0  0  0  0  0  0  0  0
    0.2923  -25.3472    0.0000 C   0  0  0  0  0  0  0  0  0  0  0  0
    0.2912  -24.5176    0.0000 C   0  0  0  0  0  0  0  0  0  0  0  0
   -0.4283  -24.1015    0.0000 C   0  0  0  0  0  0  0  0  0  0  0  0
   -1.8624  -23.2775    0.0000 O   0  0  0  0  0  0  0  0  0  0  0  0
   -3.2911  -24.1087    0.0000 O   0  0  0  0  0  0  0  0  0  0  0  0
   -1.8699  -24.9365    0.0000 C   0  0  0  0  0  0  0  0  0  0  0  0
   -1.1503  -26.1694    0.0000 O   0  0  0  0  0  0  0  0  0  0  0  0
    0.2841  -26.1694    0.0000 C   0  0  0  0  0  0  0  0  0  0  0  0
    0.4950  -26.9623    0.0000 C   0  0  0  0  0  0  0  0  0  0  0  0
    1.0771  -25.9539    0.0000 C   0  0  0  0  0  0  0  0  0  0  0  0
   -1.1503  -23.6946    0.0000 C   0  0  0  0  0  0  0  0  0  0  0  0
   -0.4305  -23.2766    0.0000 O   0  0  0  0  0  0  0  0  0  0  0  0
    0.2828  -22.8621    0.0000 C   0  0  0  0  0  0  0  0  0  0  0  0
    0.2806  -22.0372    0.0000 O   0  0  0  0  0  0  0  0  0  0  0  0
    0.9982  -23.2735    0.0000 C   0  0  0  0  0  0  0  0  0  0  0  0
    1.0866  -24.0937    0.0000 C   0  0  0  0  0  0  0  0  0  0  0  0
    1.8941  -24.2631    0.0000 C   0  0  0  0  0  0  0  0  0  0  0  0
    2.3047  -23.5475    0.0000 C   0  0  0  0  0  0  0  0  0  0  0  0
    1.7510  -22.9360    0.0000 O   0  0  0  0  0  0  0  0  0  0  0  0
   -0.4263  -26.5855    0.0000 O   0  0  0  0  0  0  0  0  0  0  0  0
   -1.1407  -26.9979    0.0000 C   0  0  0  0  0  0  0  0  0  0  0  0
   -1.1409  -27.8228    0.0000 C   0  0  0  0  0  0  0  0  0  0  0  0
   -2.5802  -26.1694    0.0000 O   0  0  0  0  0  0  0  0  0  0  0  0
   -1.8552  -26.5854    0.0000 O   0  0  0  0  0  0  0  0  0  0  0  0
   -1.8096  -28.3131    0.0000 C   0  0  0  0  0  0  0  0  0  0  0  0
   -1.5548  -29.0977    0.0000 C   0  0  0  0  0  0  0  0  0  0  0  0
   -0.7298  -29.0978    0.0000 C   0  0  0  0  0  0  0  0  0  0  0  0
   -0.4750  -28.3132    0.0000 O   0  0  0  0  0  0  0  0  0  0  0  0
   -4.0045  -24.5229    0.0000 C   0  0  0  0  0  0  0  0  0  0  0  0
   -4.7199  -24.1121    0.0000 C   0  0  0  0  0  0  0  0  0  0  0  0
   -4.0026  -25.3479    0.0000 O   0  0  0  0  0  0  0  0  0  0  0  0
   -2.5774  -22.8660    0.0000 C   0  0  0  0  0  0  0  0  0  0  0  0
   -2.5786  -22.0410    0.0000 C   0  0  0  0  0  0  0  0  0  0  0  0
   -1.8624  -21.6312    0.0000 C   0  0  0  0  0  0  0  0  0  0  0  0
   -1.8632  -20.8070    0.0000 C   0  0  0  0  0  0  0  0  0  0  0  0
   -2.5787  -20.3947    0.0000 C   0  0  0  0  0  0  0  0  0  0  0  0
   -3.2950  -20.8126    0.0000 C   0  0  0  0  0  0  0  0  0  0  0  0
   -3.2906  -21.6355    0.0000 C   0  0  0  0  0  0  0  0  0  0  0  0
   -3.2912  -23.2794    0.0000 O   0  0  0  0  0  0  0  0  0  0  0  0
 22 23  2  0
  5  6  1  0
  4 11  1  0
  1 12  1  0
  1  2  1  0
 23 24  1  0
 24 25  2  0
 25 26  1  0
 26 22  1  0
 20 22  1  0
  3 13  1  0
  7 27  1  0
  1  4  1  0
 27 28  1  0
  6 14  1  0
 28 29  1  0
  2  3  1  0
  3 30  1  0
  8 15  1  0
 28 31  2  0
 29 32  2  0
 14 15  1  0
  3  6  1  0
 15 16  1  0
  5  4  1  0
 32 33  1  0
 33 34  2  0
 34 35  1  0
 35 29  1  0
 15 17  1  0
 12 36  1  0
  5 10  1  0
 36 37  1  0
 36 38  2  0
  6  7  1  0
 11 39  1  0
  5 18  1  0
 39 40  1  0
  7  8  1  0
 40 41  2  0
 10 19  1  0
 41 42  1  0
  8  9  1  0
 42 43  2  0
 19 20  1  0
 43 44  1  0
  9 10  1  0
 44 45  2  0
 45 40  1  0
 20 21  2  0
 39 46  2  0
M  END
>  <Classification>  (34) 
1

>  <pchembl>  (34) 
5.46

>  <InChI_steorem>  (34) 
InChI=1S/C34H36O12/c1-19(35)42-24-18-32(4,39)34-26(44-30(38)23-14-10-16-41-23)21(31(2,3)46-34)17-25(43-29(37)22-13-9-15-40-22)33(34,5)27(24)45-28(36)20-11-7-6-8-12-20/h6-16,21,24-27,39H,17-18H2,1-5H3

>  <source>  (34) 
ChEMBL25

>  <source_id>  (34) 
25

>  <optional_reference>  (34) 
10.1021/jm070290v

>  <optional_origin>  (34) 
None

>  <target>  (34) 
MDR1

$$$$

     RDKit          2D

 46 51  0  0  0  0  0  0  0  0999 V2000
   -2.6949   -7.2687    0.0000 C   0  0  0  0  0  0  0  0  0  0  0  0
   -2.6949   -8.0983    0.0000 C   0  0  0  0  0  0  0  0  0  0  0  0
   -1.9804   -8.5108    0.0000 C   0  0  0  0  0  0  0  0  0  0  0  0
   -1.9804   -6.8517    0.0000 C   0  0  0  0  0  0  0  0  0  0  0  0
   -1.2614   -7.2687    0.0000 C   0  0  0  0  0  0  0  0  0  0  0  0
   -1.2603   -8.0983    0.0000 C   0  0  0  0  0  0  0  0  0  0  0  0
   -0.5454   -8.5099    0.0000 C   0  0  0  0  0  0  0  0  0  0  0  0
    0.1731   -8.0964    0.0000 C   0  0  0  0  0  0  0  0  0  0  0  0
    0.1720   -7.2670    0.0000 C   0  0  0  0  0  0  0  0  0  0  0  0
   -0.5476   -6.8508    0.0000 C   0  0  0  0  0  0  0  0  0  0  0  0
   -1.9815   -6.0268    0.0000 O   0  0  0  0  0  0  0  0  0  0  0  0
   -2.6966   -5.6153    0.0000 C   0  0  0  0  0  0  0  0  0  0  0  0
   -2.6977   -4.7904    0.0000 O   0  0  0  0  0  0  0  0  0  0  0  0
   -3.4103   -6.8580    0.0000 O   0  0  0  0  0  0  0  0  0  0  0  0
   -1.9890   -7.6858    0.0000 C   0  0  0  0  0  0  0  0  0  0  0  0
   -1.2696   -8.9186    0.0000 O   0  0  0  0  0  0  0  0  0  0  0  0
    0.1650   -8.9186    0.0000 C   0  0  0  0  0  0  0  0  0  0  0  0
    0.3758   -9.7116    0.0000 C   0  0  0  0  0  0  0  0  0  0  0  0
    0.9578   -8.7033    0.0000 C   0  0  0  0  0  0  0  0  0  0  0  0
   -1.2696   -6.4438    0.0000 C   0  0  0  0  0  0  0  0  0  0  0  0
   -0.5498   -6.0258    0.0000 O   0  0  0  0  0  0  0  0  0  0  0  0
    0.1637   -5.6115    0.0000 C   0  0  0  0  0  0  0  0  0  0  0  0
    0.1615   -4.7865    0.0000 O   0  0  0  0  0  0  0  0  0  0  0  0
    0.8791   -6.0228    0.0000 C   0  0  0  0  0  0  0  0  0  0  0  0
    0.9675   -6.8429    0.0000 C   0  0  0  0  0  0  0  0  0  0  0  0
    1.7749   -7.0123    0.0000 C   0  0  0  0  0  0  0  0  0  0  0  0
    2.1855   -6.2968    0.0000 C   0  0  0  0  0  0  0  0  0  0  0  0
    1.6318   -5.6853    0.0000 O   0  0  0  0  0  0  0  0  0  0  0  0
   -0.5455   -9.3349    0.0000 O   0  0  0  0  0  0  0  0  0  0  0  0
   -1.2600   -9.7472    0.0000 C   0  0  0  0  0  0  0  0  0  0  0  0
   -1.2601  -10.5722    0.0000 C   0  0  0  0  0  0  0  0  0  0  0  0
   -2.6995   -8.9186    0.0000 O   0  0  0  0  0  0  0  0  0  0  0  0
   -1.9744   -9.3346    0.0000 O   0  0  0  0  0  0  0  0  0  0  0  0
   -1.9289  -11.0624    0.0000 C   0  0  0  0  0  0  0  0  0  0  0  0
   -1.6740  -11.8470    0.0000 C   0  0  0  0  0  0  0  0  0  0  0  0
   -0.8489  -11.8471    0.0000 C   0  0  0  0  0  0  0  0  0  0  0  0
   -0.5941  -11.0625    0.0000 O   0  0  0  0  0  0  0  0  0  0  0  0
   -3.4122   -6.0331    0.0000 C   0  0  0  0  0  0  0  0  0  0  0  0
   -4.1237   -7.2723    0.0000 C   0  0  0  0  0  0  0  0  0  0  0  0
   -4.8392   -6.8614    0.0000 C   0  0  0  0  0  0  0  0  0  0  0  0
   -4.8419   -6.0359    0.0000 C   0  0  0  0  0  0  0  0  0  0  0  0
   -5.5566   -5.6252    0.0000 C   0  0  0  0  0  0  0  0  0  0  0  0
   -6.2710   -6.0394    0.0000 C   0  0  0  0  0  0  0  0  0  0  0  0
   -6.2664   -6.8687    0.0000 C   0  0  0  0  0  0  0  0  0  0  0  0
   -5.5512   -7.2757    0.0000 C   0  0  0  0  0  0  0  0  0  0  0  0
   -4.1217   -8.0971    0.0000 O   0  0  0  0  0  0  0  0  0  0  0  0
 10 21  1  0
  5  6  1  0
 21 22  1  0
  4 11  1  0
 22 23  2  0
 24 25  2  0
 11 12  1  0
  1  2  1  0
 12 13  2  0
 12 38  1  0
 25 26  1  0
 26 27  2  0
 27 28  1  0
 28 24  1  0
 22 24  1  0
  1  4  1  0
  7 29  1  0
  1 14  1  0
 29 30  1  0
  2  3  1  0
 30 31  1  0
  3 15  1  0
  3 32  1  0
  3  6  1  0
 30 33  2  0
 31 34  2  0
  6 16  1  0
  5  4  1  0
  8 17  1  0
 16 17  1  0
 34 35  1  0
 35 36  2  0
 36 37  1  0
 37 31  1  0
  5 10  1  0
 17 18  1  0
 14 39  1  0
  6  7  1  0
 39 40  1  0
 17 19  1  0
 40 41  2  0
  7  8  1  0
 41 42  1  0
 42 43  2  0
  8  9  1  0
 43 44  1  0
  5 20  1  0
 44 45  2  0
 45 40  1  0
  9 10  1  0
 39 46  2  0
M  END
>  <Classification>  (35) 
1

>  <pchembl>  (35) 
6.15

>  <InChI_steorem>  (35) 
InChI=1S/C34H36O12/c1-19(35)42-27-24(43-28(36)20-11-7-6-8-12-20)18-32(4,39)34-26(45-30(38)23-14-10-16-41-23)21(31(2,3)46-34)17-25(33(27,34)5)44-29(37)22-13-9-15-40-22/h6-16,21,24-27,39H,17-18H2,1-5H3

>  <source>  (35) 
ChEMBL25

>  <source_id>  (35) 
25

>  <optional_reference>  (35) 
10.1021/jm070290v

>  <optional_origin>  (35) 
None

>  <target>  (35) 
MDR1

$$$$

     RDKit          2D

 46 51  0  0  0  0  0  0  0  0999 V2000
    4.6764    0.3598    0.0000 C   0  0  0  0  0  0  0  0  0  0  0  0
    4.6764   -0.4699    0.0000 C   0  0  0  0  0  0  0  0  0  0  0  0
    5.3909   -0.8824    0.0000 C   0  0  0  0  0  0  0  0  0  0  0  0
    5.3909    0.7769    0.0000 C   0  0  0  0  0  0  0  0  0  0  0  0
    6.1100    0.3598    0.0000 C   0  0  0  0  0  0  0  0  0  0  0  0
    6.1110   -0.4699    0.0000 C   0  0  0  0  0  0  0  0  0  0  0  0
    6.8260   -0.8814    0.0000 C   0  0  0  0  0  0  0  0  0  0  0  0
    7.5445   -0.4680    0.0000 C   0  0  0  0  0  0  0  0  0  0  0  0
    7.5435    0.3616    0.0000 C   0  0  0  0  0  0  0  0  0  0  0  0
    6.8239    0.7778    0.0000 C   0  0  0  0  0  0  0  0  0  0  0  0
    5.3897    1.6019    0.0000 O   0  0  0  0  0  0  0  0  0  0  0  0
    4.6747    2.0134    0.0000 C   0  0  0  0  0  0  0  0  0  0  0  0
    4.6736    2.8384    0.0000 O   0  0  0  0  0  0  0  0  0  0  0  0
    3.9609    0.7705    0.0000 O   0  0  0  0  0  0  0  0  0  0  0  0
    5.3822   -0.0574    0.0000 C   0  0  0  0  0  0  0  0  0  0  0  0
    6.1018   -1.2903    0.0000 O   0  0  0  0  0  0  0  0  0  0  0  0
    7.5365   -1.2903    0.0000 C   0  0  0  0  0  0  0  0  0  0  0  0
    7.7473   -2.0832    0.0000 C   0  0  0  0  0  0  0  0  0  0  0  0
    8.3294   -1.0749    0.0000 C   0  0  0  0  0  0  0  0  0  0  0  0
    6.1018    1.1848    0.0000 C   0  0  0  0  0  0  0  0  0  0  0  0
    6.8217    1.6028    0.0000 O   0  0  0  0  0  0  0  0  0  0  0  0
    7.5351    2.0172    0.0000 C   0  0  0  0  0  0  0  0  0  0  0  0
    7.5329    2.8422    0.0000 O   0  0  0  0  0  0  0  0  0  0  0  0
    8.2506    1.6058    0.0000 C   0  0  0  0  0  0  0  0  0  0  0  0
    8.3391    0.7856    0.0000 C   0  0  0  0  0  0  0  0  0  0  0  0
    9.1465    0.6162    0.0000 C   0  0  0  0  0  0  0  0  0  0  0  0
    9.5571    1.3319    0.0000 C   0  0  0  0  0  0  0  0  0  0  0  0
    9.0034    1.9434    0.0000 O   0  0  0  0  0  0  0  0  0  0  0  0
    6.8259   -1.7064    0.0000 O   0  0  0  0  0  0  0  0  0  0  0  0
    3.9590    1.5955    0.0000 C   0  0  0  0  0  0  0  0  0  0  0  0
    3.2474    0.3564    0.0000 C   0  0  0  0  0  0  0  0  0  0  0  0
    2.5319    0.7671    0.0000 C   0  0  0  0  0  0  0  0  0  0  0  0
    3.2494   -0.4687    0.0000 O   0  0  0  0  0  0  0  0  0  0  0  0
    5.3969   -1.7063    0.0000 O   0  0  0  0  0  0  0  0  0  0  0  0
    6.4043   -2.4132    0.0000 C   0  0  0  0  0  0  0  0  0  0  0  0
    5.5814   -2.4015    0.0000 O   0  0  0  0  0  0  0  0  0  0  0  0
    6.8056   -3.1317    0.0000 C   0  0  0  0  0  0  0  0  0  0  0  0
    7.6055   -4.5653    0.0000 C   0  0  0  0  0  0  0  0  0  0  0  0
    8.0271   -3.8535    0.0000 C   0  0  0  0  0  0  0  0  0  0  0  0
    7.6240   -3.1384    0.0000 C   0  0  0  0  0  0  0  0  0  0  0  0
    6.7818   -4.5531    0.0000 C   0  0  0  0  0  0  0  0  0  0  0  0
    6.3832   -3.8381    0.0000 C   0  0  0  0  0  0  0  0  0  0  0  0
    5.5665   -3.8267    0.0000 C   0  0  0  0  0  0  0  0  0  0  0  0
    5.1474   -4.5296    0.0000 C   0  0  0  0  0  0  0  0  0  0  0  0
    5.5509   -5.2455    0.0000 C   0  0  0  0  0  0  0  0  0  0  0  0
    6.3663   -5.2534    0.0000 C   0  0  0  0  0  0  0  0  0  0  0  0
 12 13  2  0
 12 30  1  0
 25 26  1  0
 26 27  2  0
 27 28  1  0
 28 24  1  0
 22 24  1  0
  1  4  1  0
  7 29  1  0
  1 14  1  0
  2  3  1  0
 14 31  1  0
  3 15  1  0
 31 32  1  0
  3  6  1  0
 31 33  2  0
  3 34  1  0
  6 16  1  0
  5  4  1  0
 29 35  1  0
  8 17  1  0
 16 17  1  0
  5 10  1  0
 17 18  1  0
  6  7  1  0
 17 19  1  0
  7  8  1  0
  8  9  1  0
 35 36  2  0
  5 20  1  0
 35 37  1  0
 37 42  2  0
  9 10  1  0
 41 38  2  0
 10 21  1  0
 38 39  1  0
  5  6  1  0
 39 40  2  0
 40 37  1  0
 21 22  1  0
  4 11  1  0
 41 42  1  0
 22 23  2  0
 42 43  1  0
 24 25  2  0
 43 44  2  0
 11 12  1  0
 44 45  1  0
  1  2  1  0
 45 46  2  0
 46 41  1  0
M  END
>  <Classification>  (36) 
1

>  <pchembl>  (36) 
5.78

>  <InChI_steorem>  (36) 
InChI=1S/C35H38O11/c1-19(36)42-26-18-33(5,40)35-28(45-30(38)23-14-9-12-21-11-7-8-13-22(21)23)24(32(3,4)46-35)17-27(34(35,6)29(26)43-20(2)37)44-31(39)25-15-10-16-41-25/h7-16,24,26-29,40H,17-18H2,1-6H3

>  <source>  (36) 
ChEMBL25

>  <source_id>  (36) 
25

>  <optional_reference>  (36) 
10.1021/jm070290v

>  <optional_origin>  (36) 
None

>  <target>  (36) 
MDR1

$$$$

     RDKit          2D

 47 50  0  0  0  0  0  0  0  0999 V2000
   -2.5850  -10.7616    0.0000 C   0  0  0  0  0  0  0  0  0  0  0  0
   -2.5850  -11.5912    0.0000 C   0  0  0  0  0  0  0  0  0  0  0  0
   -1.8705  -12.0037    0.0000 C   0  0  0  0  0  0  0  0  0  0  0  0
   -1.8705  -10.3446    0.0000 C   0  0  0  0  0  0  0  0  0  0  0  0
   -1.1515  -10.7616    0.0000 C   0  0  0  0  0  0  0  0  0  0  0  0
   -1.1504  -11.5912    0.0000 C   0  0  0  0  0  0  0  0  0  0  0  0
   -0.4354  -12.0028    0.0000 C   0  0  0  0  0  0  0  0  0  0  0  0
    0.2831  -11.5893    0.0000 C   0  0  0  0  0  0  0  0  0  0  0  0
    0.2820  -10.7598    0.0000 C   0  0  0  0  0  0  0  0  0  0  0  0
   -0.4376  -10.3436    0.0000 C   0  0  0  0  0  0  0  0  0  0  0  0
   -1.8716   -9.5196    0.0000 O   0  0  0  0  0  0  0  0  0  0  0  0
   -2.5867   -9.1081    0.0000 C   0  0  0  0  0  0  0  0  0  0  0  0
   -2.5878   -8.2831    0.0000 O   0  0  0  0  0  0  0  0  0  0  0  0
   -3.3004  -10.3508    0.0000 O   0  0  0  0  0  0  0  0  0  0  0  0
   -1.8791  -11.1787    0.0000 C   0  0  0  0  0  0  0  0  0  0  0  0
   -1.1596  -12.4116    0.0000 O   0  0  0  0  0  0  0  0  0  0  0  0
    0.2750  -12.4116    0.0000 C   0  0  0  0  0  0  0  0  0  0  0  0
    0.4859  -13.2046    0.0000 C   0  0  0  0  0  0  0  0  0  0  0  0
    1.0679  -12.1962    0.0000 C   0  0  0  0  0  0  0  0  0  0  0  0
   -1.1596   -9.9366    0.0000 C   0  0  0  0  0  0  0  0  0  0  0  0
   -0.4398   -9.5186    0.0000 O   0  0  0  0  0  0  0  0  0  0  0  0
    0.2737   -9.1042    0.0000 C   0  0  0  0  0  0  0  0  0  0  0  0
    0.2715   -8.2792    0.0000 O   0  0  0  0  0  0  0  0  0  0  0  0
    0.9891   -9.5156    0.0000 C   0  0  0  0  0  0  0  0  0  0  0  0
    1.0776  -10.3358    0.0000 C   0  0  0  0  0  0  0  0  0  0  0  0
    1.8850  -10.5052    0.0000 C   0  0  0  0  0  0  0  0  0  0  0  0
    2.2956   -9.7896    0.0000 C   0  0  0  0  0  0  0  0  0  0  0  0
    1.7418   -9.1780    0.0000 O   0  0  0  0  0  0  0  0  0  0  0  0
   -0.4355  -12.8278    0.0000 O   0  0  0  0  0  0  0  0  0  0  0  0
   -3.3024   -9.5259    0.0000 C   0  0  0  0  0  0  0  0  0  0  0  0
   -4.0139  -10.7651    0.0000 C   0  0  0  0  0  0  0  0  0  0  0  0
   -4.7294  -10.3543    0.0000 C   0  0  0  0  0  0  0  0  0  0  0  0
   -4.0119  -11.5900    0.0000 O   0  0  0  0  0  0  0  0  0  0  0  0
   -1.8645  -12.8276    0.0000 O   0  0  0  0  0  0  0  0  0  0  0  0
   -0.8571  -13.5346    0.0000 C   0  0  0  0  0  0  0  0  0  0  0  0
   -0.4563  -14.2480    0.0000 O   0  0  0  0  0  0  0  0  0  0  0  0
   -1.6820  -13.5238    0.0000 C   0  0  0  0  0  0  0  0  0  0  0  0
   -2.1037  -14.2328    0.0000 C   0  0  0  0  0  0  0  0  0  0  0  0
   -2.9286  -14.2222    0.0000 C   0  0  0  0  0  0  0  0  0  0  0  0
   -3.3504  -14.9312    0.0000 C   0  0  0  0  0  0  0  0  0  0  0  0
   -4.1754  -14.9206    0.0000 C   0  0  0  0  0  0  0  0  0  0  0  0
   -4.5971  -15.6296    0.0000 C   0  0  0  0  0  0  0  0  0  0  0  0
   -5.4130  -15.6189    0.0000 C   0  0  0  0  0  0  0  0  0  0  0  0
   -5.8348  -16.3279    0.0000 C   0  0  0  0  0  0  0  0  0  0  0  0
   -6.6597  -16.3171    0.0000 C   0  0  0  0  0  0  0  0  0  0  0  0
   -7.0816  -17.0261    0.0000 C   0  0  0  0  0  0  0  0  0  0  0  0
   -7.9067  -17.0156    0.0000 C   0  0  0  0  0  0  0  0  0  0  0  0
  5  6  1  0
 21 22  1  0
  4 11  1  0
 22 23  2  0
 24 25  2  0
 11 12  1  0
  1  2  1  0
 12 13  2  0
 12 30  1  0
 25 26  1  0
 26 27  2  0
 27 28  1  0
 28 24  1  0
 22 24  1  0
  1  4  1  0
  7 29  1  0
  1 14  1  0
  2  3  1  0
 14 31  1  0
  3 15  1  0
 31 32  1  0
  3  6  1  0
 31 33  2  0
  3 34  1  0
  6 16  1  0
  5  4  1  0
 29 35  1  0
  8 17  1  0
 36 35  2  0
 16 17  1  0
 35 37  1  0
  5 10  1  0
 37 38  1  0
 17 18  1  0
 38 39  1  0
  6  7  1  0
 39 40  1  0
 17 19  1  0
 40 41  1  0
  7  8  1  0
 41 42  1  0
 42 43  1  0
  8  9  1  0
 43 44  1  0
  5 20  1  0
 44 45  1  0
  9 10  1  0
 45 46  1  0
 10 21  1  0
 46 47  1  0
M  END
>  <Classification>  (37) 
1

>  <pchembl>  (37) 
6.1

>  <InChI_steorem>  (37) 
InChI=1S/C36H54O11/c1-8-9-10-11-12-13-14-15-16-19-29(39)46-30-25-21-28(45-32(40)26-18-17-20-42-26)35(7)31(44-24(3)38)27(43-23(2)37)22-34(6,41)36(30,35)47-33(25,4)5/h17-18,20,25,27-28,30-31,41H,8-16,19,21-22H2,1-7H3

>  <source>  (37) 
ChEMBL25

>  <source_id>  (37) 
25

>  <optional_reference>  (37) 
10.1021/jm070290v

>  <optional_origin>  (37) 
None

>  <target>  (37) 
MDR1

$$$$

     RDKit          2D

 47 50  0  0  0  0  0  0  0  0999 V2000
   -2.6648  -17.1796    0.0000 C   0  0  0  0  0  0  0  0  0  0  0  0
   -2.6648  -18.0028    0.0000 C   0  0  0  0  0  0  0  0  0  0  0  0
   -1.9538  -18.4074    0.0000 C   0  0  0  0  0  0  0  0  0  0  0  0
   -1.9538  -16.7611    0.0000 C   0  0  0  0  0  0  0  0  0  0  0  0
   -1.2382  -17.1796    0.0000 C   0  0  0  0  0  0  0  0  0  0  0  0
   -1.2370  -18.0028    0.0000 C   0  0  0  0  0  0  0  0  0  0  0  0
   -0.5302  -18.4064    0.0000 C   0  0  0  0  0  0  0  0  0  0  0  0
    0.1849  -18.0009    0.0000 C   0  0  0  0  0  0  0  0  0  0  0  0
    0.1838  -17.1777    0.0000 C   0  0  0  0  0  0  0  0  0  0  0  0
   -0.5346  -16.7608    0.0000 C   0  0  0  0  0  0  0  0  0  0  0  0
   -1.2464  -18.8166    0.0000 O   0  0  0  0  0  0  0  0  0  0  0  0
    0.1767  -18.8166    0.0000 C   0  0  0  0  0  0  0  0  0  0  0  0
    0.9627  -18.5980    0.0000 C   0  0  0  0  0  0  0  0  0  0  0  0
    0.5767  -19.5189    0.0000 C   0  0  0  0  0  0  0  0  0  0  0  0
   -0.5303  -19.2250    0.0000 O   0  0  0  0  0  0  0  0  0  0  0  0
   -0.0848  -16.0796    0.0000 O   0  0  0  0  0  0  0  0  0  0  0  0
    0.7323  -16.1274    0.0000 C   0  0  0  0  0  0  0  0  0  0  0  0
    1.1546  -15.4185    0.0000 O   0  0  0  0  0  0  0  0  0  0  0  0
   -1.2464  -16.3610    0.0000 C   0  0  0  0  0  0  0  0  0  0  0  0
   -1.9550  -15.9425    0.0000 O   0  0  0  0  0  0  0  0  0  0  0  0
   -3.3723  -16.7674    0.0000 O   0  0  0  0  0  0  0  0  0  0  0  0
   -4.0822  -17.1831    0.0000 C   0  0  0  0  0  0  0  0  0  0  0  0
   -4.7896  -16.7709    0.0000 C   0  0  0  0  0  0  0  0  0  0  0  0
   -1.2367  -19.6388    0.0000 C   0  0  0  0  0  0  0  0  0  0  0  0
   -1.2368  -20.4573    0.0000 O   0  0  0  0  0  0  0  0  0  0  0  0
   -2.0323  -19.8398    0.0000 C   0  0  0  0  0  0  0  0  0  0  0  0
    0.9038  -16.7585    0.0000 O   0  0  0  0  0  0  0  0  0  0  0  0
   -0.5303  -15.9353    0.0000 O   0  0  0  0  0  0  0  0  0  0  0  0
   -0.5387  -15.1029    0.0000 C   0  0  0  0  0  0  0  0  0  0  0  0
    0.1775  -14.6818    0.0000 C   0  0  0  0  0  0  0  0  0  0  0  0
   -1.2632  -14.6962    0.0000 O   0  0  0  0  0  0  0  0  0  0  0  0
   -1.9541  -19.2398    0.0000 O   0  0  0  0  0  0  0  0  0  0  0  0
   -4.0814  -18.0155    0.0000 O   0  0  0  0  0  0  0  0  0  0  0  0
    1.5300  -16.3378    0.0000 C   0  0  0  0  0  0  0  0  0  0  0  0
   -2.6759  -15.5296    0.0000 C   0  0  0  0  0  0  0  0  0  0  0  0
   -2.6771  -14.6972    0.0000 C   0  0  0  0  0  0  0  0  0  0  0  0
   -1.9514  -14.2792    0.0000 C   0  0  0  0  0  0  0  0  0  0  0  0
   -1.9522  -13.4520    0.0000 C   0  0  0  0  0  0  0  0  0  0  0  0
   -2.6737  -13.0333    0.0000 C   0  0  0  0  0  0  0  0  0  0  0  0
   -3.3958  -13.4557    0.0000 C   0  0  0  0  0  0  0  0  0  0  0  0
   -3.3913  -14.2835    0.0000 C   0  0  0  0  0  0  0  0  0  0  0  0
   -3.3843  -18.4181    0.0000 O   0  0  0  0  0  0  0  0  0  0  0  0
   -3.3825  -19.2507    0.0000 C   0  0  0  0  0  0  0  0  0  0  0  0
   -4.1020  -19.6707    0.0000 C   0  0  0  0  0  0  0  0  0  0  0  0
   -2.6614  -19.6677    0.0000 O   0  0  0  0  0  0  0  0  0  0  0  0
   -1.9625  -17.5749    0.0000 C   0  0  0  0  0  0  0  0  0  0  0  0
   -3.3998  -15.9499    0.0000 O   0  0  0  0  0  0  0  0  0  0  0  0
 22 23  1  0
  6 11  1  0
 15 24  1  0
 24 25  2  0
  8 12  1  0
 24 26  1  0
 11 12  1  0
  9 27  2  0
  1  2  1  0
 19 28  1  0
 12 13  1  0
 28 29  1  0
  1  4  1  0
 29 30  1  0
 12 14  1  0
 29 31  2  0
  2  3  1  0
  3 32  1  0
  7 15  1  0
 22 33  2  0
  3  6  1  0
 17 34  1  0
 10 16  1  0
 20 35  1  0
  5  4  1  0
 35 36  1  0
 16 17  1  0
 36 37  2  0
  5 10  1  0
 37 38  1  0
 17 18  2  0
 38 39  2  0
  6  7  1  0
 39 40  1  0
  5 19  1  0
 40 41  2  0
 41 36  1  0
  7  8  1  0
  2 42  1  0
  4 20  1  0
 42 43  1  0
  8  9  1  0
 43 44  1  0
  1 21  1  0
 43 45  2  0
  9 10  1  0
  3 46  1  0
 21 22  1  0
  5  6  1  0
 35 47  2  0
M  END
>  <Classification>  (38) 
1

>  <pchembl>  (38) 
5.19

>  <InChI_steorem>  (38) 
InChI=1S/C32H38O15/c1-15(33)41-14-31-25(44-18(4)36)22(38)21-24(43-17(3)35)32(31,47-29(21,6)7)30(8,40)26(45-19(5)37)23(42-16(2)34)27(31)46-28(39)20-12-10-9-11-13-20/h9-13,21,23-27,40H,14H2,1-8H3

>  <source>  (38) 
ChEMBL25

>  <source_id>  (38) 
25

>  <optional_reference>  (38) 
10.1021/jm070290v

>  <optional_origin>  (38) 
None

>  <target>  (38) 
MDR1

$$$$

     RDKit          2D

 47 51  0  0  0  0  0  0  0  0999 V2000
   13.5452  -22.2321    0.0000 C   0  0  0  0  0  0  0  0  0  0  0  0
   13.5452  -23.0588    0.0000 C   0  0  0  0  0  0  0  0  0  0  0  0
   14.2605  -23.4698    0.0000 C   0  0  0  0  0  0  0  0  0  0  0  0
   14.2605  -21.8164    0.0000 C   0  0  0  0  0  0  0  0  0  0  0  0
   14.9758  -22.2321    0.0000 C   0  0  0  0  0  0  0  0  0  0  0  0
   14.9769  -23.0588    0.0000 C   0  0  0  0  0  0  0  0  0  0  0  0
   15.6881  -23.4689    0.0000 C   0  0  0  0  0  0  0  0  0  0  0  0
   16.4075  -23.0569    0.0000 C   0  0  0  0  0  0  0  0  0  0  0  0
   16.4064  -22.2303    0.0000 C   0  0  0  0  0  0  0  0  0  0  0  0
   15.6836  -21.8163    0.0000 C   0  0  0  0  0  0  0  0  0  0  0  0
   14.9677  -23.8762    0.0000 O   0  0  0  0  0  0  0  0  0  0  0  0
   16.3993  -23.8762    0.0000 C   0  0  0  0  0  0  0  0  0  0  0  0
   15.6880  -24.2909    0.0000 O   0  0  0  0  0  0  0  0  0  0  0  0
   14.9773  -24.7019    0.0000 C   0  0  0  0  0  0  0  0  0  0  0  0
   14.9772  -25.5239    0.0000 C   0  0  0  0  0  0  0  0  0  0  0  0
   14.2669  -25.9310    0.0000 C   0  0  0  0  0  0  0  0  0  0  0  0
   14.2664  -26.7523    0.0000 C   0  0  0  0  0  0  0  0  0  0  0  0
   14.9776  -27.1643    0.0000 C   0  0  0  0  0  0  0  0  0  0  0  0
   15.6907  -26.7489    0.0000 C   0  0  0  0  0  0  0  0  0  0  0  0
   15.6876  -25.9289    0.0000 C   0  0  0  0  0  0  0  0  0  0  0  0
   16.1175  -21.1193    0.0000 O   0  0  0  0  0  0  0  0  0  0  0  0
   16.9391  -21.1460    0.0000 C   0  0  0  0  0  0  0  0  0  0  0  0
   14.9677  -21.4101    0.0000 C   0  0  0  0  0  0  0  0  0  0  0  0
   15.6742  -20.9920    0.0000 O   0  0  0  0  0  0  0  0  0  0  0  0
   15.6661  -20.1699    0.0000 C   0  0  0  0  0  0  0  0  0  0  0  0
   16.3772  -19.7519    0.0000 C   0  0  0  0  0  0  0  0  0  0  0  0
   14.9513  -19.7661    0.0000 O   0  0  0  0  0  0  0  0  0  0  0  0
   14.2593  -20.9945    0.0000 O   0  0  0  0  0  0  0  0  0  0  0  0
   13.5435  -20.5844    0.0000 C   0  0  0  0  0  0  0  0  0  0  0  0
   13.5423  -19.7624    0.0000 C   0  0  0  0  0  0  0  0  0  0  0  0
   12.8334  -20.9965    0.0000 O   0  0  0  0  0  0  0  0  0  0  0  0
   12.8335  -21.8229    0.0000 O   0  0  0  0  0  0  0  0  0  0  0  0
   12.1239  -22.2356    0.0000 C   0  0  0  0  0  0  0  0  0  0  0  0
   11.4122  -21.8263    0.0000 C   0  0  0  0  0  0  0  0  0  0  0  0
   12.1259  -23.0576    0.0000 O   0  0  0  0  0  0  0  0  0  0  0  0
   14.2518  -22.6477    0.0000 C   0  0  0  0  0  0  0  0  0  0  0  0
   17.3778  -20.4399    0.0000 O   0  0  0  0  0  0  0  0  0  0  0  0
   14.2572  -24.2864    0.0000 O   0  0  0  0  0  0  0  0  0  0  0  0
   14.1733  -24.9107    0.0000 O   0  0  0  0  0  0  0  0  0  0  0  0
   17.3320  -21.8767    0.0000 C   0  0  0  0  0  0  0  0  0  0  0  0
   16.8914  -22.5831    0.0000 C   0  0  0  0  0  0  0  0  0  0  0  0
   17.2829  -23.3155    0.0000 C   0  0  0  0  0  0  0  0  0  0  0  0
   18.1146  -23.3430    0.0000 C   0  0  0  0  0  0  0  0  0  0  0  0
   18.5533  -22.6319    0.0000 C   0  0  0  0  0  0  0  0  0  0  0  0
   18.1595  -21.9022    0.0000 C   0  0  0  0  0  0  0  0  0  0  0  0
   15.9791  -24.5920    0.0000 C   0  0  0  0  0  0  0  0  0  0  0  0
   17.1152  -24.2919    0.0000 C   0  0  0  0  0  0  0  0  0  0  0  0
  5  6  1  0
  5 23  1  0
  6 11  1  0
 23 24  1  0
 24 25  1  0
  8 12  1  0
 25 26  1  0
 11 12  1  0
 25 27  2  0
  1  2  1  0
  4 28  1  0
  7 13  1  0
 28 29  1  0
  1  4  1  0
 29 30  1  0
 13 14  1  0
 29 31  2  0
  2  3  1  0
  1 32  1  0
 14 15  1  0
 32 33  1  0
  3  6  1  0
 33 34  1  0
 15 16  2  0
 33 35  2  0
  5  4  1  0
  3 36  1  0
  3 38  1  0
 16 17  1  0
 22 37  2  0
  5 10  1  0
 17 18  2  0
  6  7  1  0
 14 39  2  0
 18 19  1  0
  7  8  1  0
 40 41  2  0
 19 20  2  0
 41 42  1  0
 20 15  1  0
 42 43  2  0
  8  9  1  0
 43 44  1  0
 10 21  1  0
 44 45  2  0
 45 40  1  0
 22 40  1  0
  9 10  1  0
 12 46  1  0
 21 22  1  0
 12 47  1  0
M  END
>  <Classification>  (39) 
1

>  <pchembl>  (39) 
5.82

>  <InChI_steorem>  (39) 
InChI=1S/C35H40O12/c1-20(36)42-19-34-27(45-30(39)23-13-9-7-10-14-23)17-25-28(46-31(40)24-15-11-8-12-16-24)35(34,47-32(25,4)5)33(6,41)18-26(43-21(2)37)29(34)44-22(3)38/h7-16,25-29,41H,17-19H2,1-6H3

>  <source>  (39) 
ChEMBL25

>  <source_id>  (39) 
25

>  <optional_reference>  (39) 
10.1021/jm070290v

>  <optional_origin>  (39) 
None

>  <target>  (39) 
MDR1

$$$$

     RDKit          2D

 47 51  0  0  0  0  0  0  0  0999 V2000
    2.0534   -2.8088    0.0000 C   0  0  0  0  0  0  0  0  0  0  0  0
    2.0534   -3.6383    0.0000 C   0  0  0  0  0  0  0  0  0  0  0  0
    2.7679   -4.0508    0.0000 C   0  0  0  0  0  0  0  0  0  0  0  0
    2.7679   -2.3917    0.0000 C   0  0  0  0  0  0  0  0  0  0  0  0
    3.4868   -2.8088    0.0000 C   0  0  0  0  0  0  0  0  0  0  0  0
    3.4879   -3.6383    0.0000 C   0  0  0  0  0  0  0  0  0  0  0  0
    4.2029   -4.0499    0.0000 C   0  0  0  0  0  0  0  0  0  0  0  0
    4.9214   -3.6365    0.0000 C   0  0  0  0  0  0  0  0  0  0  0  0
    4.9203   -2.8069    0.0000 C   0  0  0  0  0  0  0  0  0  0  0  0
    4.2008   -2.3908    0.0000 C   0  0  0  0  0  0  0  0  0  0  0  0
    2.7667   -1.5667    0.0000 O   0  0  0  0  0  0  0  0  0  0  0  0
    2.0517   -1.1552    0.0000 C   0  0  0  0  0  0  0  0  0  0  0  0
    1.3379   -2.3980    0.0000 O   0  0  0  0  0  0  0  0  0  0  0  0
    2.7592   -3.2258    0.0000 C   0  0  0  0  0  0  0  0  0  0  0  0
    3.4788   -4.4588    0.0000 O   0  0  0  0  0  0  0  0  0  0  0  0
    4.9133   -4.4588    0.0000 C   0  0  0  0  0  0  0  0  0  0  0  0
    5.1241   -5.2516    0.0000 C   0  0  0  0  0  0  0  0  0  0  0  0
    5.7062   -4.2433    0.0000 C   0  0  0  0  0  0  0  0  0  0  0  0
    3.4788   -1.9838    0.0000 C   0  0  0  0  0  0  0  0  0  0  0  0
    4.1986   -1.5658    0.0000 O   0  0  0  0  0  0  0  0  0  0  0  0
    4.9120   -1.1514    0.0000 C   0  0  0  0  0  0  0  0  0  0  0  0
    4.9098   -0.3264    0.0000 O   0  0  0  0  0  0  0  0  0  0  0  0
    5.6274   -1.5628    0.0000 C   0  0  0  0  0  0  0  0  0  0  0  0
    5.7158   -2.3830    0.0000 C   0  0  0  0  0  0  0  0  0  0  0  0
    6.5233   -2.5524    0.0000 C   0  0  0  0  0  0  0  0  0  0  0  0
    6.9339   -1.8368    0.0000 C   0  0  0  0  0  0  0  0  0  0  0  0
    6.3802   -1.2253    0.0000 O   0  0  0  0  0  0  0  0  0  0  0  0
    4.2028   -4.8749    0.0000 O   0  0  0  0  0  0  0  0  0  0  0  0
    0.6245   -2.8122    0.0000 C   0  0  0  0  0  0  0  0  0  0  0  0
   -0.0909   -2.4014    0.0000 C   0  0  0  0  0  0  0  0  0  0  0  0
    0.6265   -3.6372    0.0000 O   0  0  0  0  0  0  0  0  0  0  0  0
    2.7740   -4.8748    0.0000 O   0  0  0  0  0  0  0  0  0  0  0  0
    3.7813   -5.5816    0.0000 C   0  0  0  0  0  0  0  0  0  0  0  0
   -0.1755   -1.5768    0.0000 O   0  0  0  0  0  0  0  0  0  0  0  0
   -0.9829   -1.4072    0.0000 C   0  0  0  0  0  0  0  0  0  0  0  0
   -1.3937   -2.1228    0.0000 C   0  0  0  0  0  0  0  0  0  0  0  0
   -0.8401   -2.7343    0.0000 C   0  0  0  0  0  0  0  0  0  0  0  0
    2.9563   -5.5698    0.0000 O   0  0  0  0  0  0  0  0  0  0  0  0
    4.1836   -6.3019    0.0000 C   0  0  0  0  0  0  0  0  0  0  0  0
    2.0505   -0.3302    0.0000 C   0  0  0  0  0  0  0  0  0  0  0  0
    1.3355    0.0813    0.0000 C   0  0  0  0  0  0  0  0  0  0  0  0
    1.3343    0.9062    0.0000 C   0  0  0  0  0  0  0  0  0  0  0  0
    0.6193    1.3145    0.0000 C   0  0  0  0  0  0  0  0  0  0  0  0
    3.6875   -1.1833    0.0000 O   0  0  0  0  0  0  0  0  0  0  0  0
    3.0987   -0.6023    0.0000 C   0  0  0  0  0  0  0  0  0  0  0  0
    3.3074    0.1981    0.0000 C   0  0  0  0  0  0  0  0  0  0  0  0
    2.3792   -1.0125    0.0000 O   0  0  0  0  0  0  0  0  0  0  0  0
  5  6  1  0
 21 22  2  0
 23 24  2  0
  4 11  1  0
 11 12  1  0
  1  2  1  0
  1 13  1  0
 24 25  1  0
 25 26  2  0
 26 27  1  0
 27 23  1  0
 21 23  1  0
  1  4  1  0
  7 28  1  0
  3 14  1  0
 13 29  1  0
  2  3  1  0
 29 30  1  0
  6 15  1  0
 29 31  2  0
  3 32  1  0
  3  6  1  0
  8 16  1  0
 28 33  1  0
 30 34  1  0
 15 16  1  0
  5  4  1  0
 16 17  1  0
  5 10  1  0
 34 35  1  0
 35 36  2  0
 36 37  1  0
 37 30  2  0
 16 18  1  0
 33 38  2  0
  6  7  1  0
 33 39  1  0
 12 40  1  0
  7  8  1  0
 40 41  1  0
  5 19  1  0
 41 42  1  0
  8  9  1  0
 42 43  1  0
 19 44  1  0
 10 20  1  0
 44 45  1  0
  9 10  1  0
 45 46  1  0
 20 21  1  0
 45 47  2  0
M  END
>  <Classification>  (40) 
1

>  <pchembl>  (40) 
5.71

>  <InChI_steorem>  (40) 
InChI=1S/C34H44O13/c1-7-8-9-14-42-28-25(45-29(37)23-12-10-15-40-23)18-32(6,39)34-27(44-21(3)36)22(31(4,5)47-34)17-26(33(28,34)19-43-20(2)35)46-30(38)24-13-11-16-41-24/h10-13,15-16,22,25-28,39H,7-9,14,17-19H2,1-6H3

>  <source>  (40) 
ChEMBL25

>  <source_id>  (40) 
25

>  <optional_reference>  (40) 
10.1021/jm070290v

>  <optional_origin>  (40) 
None

>  <target>  (40) 
MDR1

$$$$

     RDKit          2D

 47 51  0  0  0  0  0  0  0  0999 V2000
    7.1115  -27.9700    0.0000 C   0  0  0  0  0  0  0  0  0  0  0  0
    7.1115  -28.7879    0.0000 C   0  0  0  0  0  0  0  0  0  0  0  0
    7.8179  -29.1899    0.0000 C   0  0  0  0  0  0  0  0  0  0  0  0
    7.8179  -27.5541    0.0000 C   0  0  0  0  0  0  0  0  0  0  0  0
    8.5244  -27.9700    0.0000 C   0  0  0  0  0  0  0  0  0  0  0  0
    8.5255  -28.7879    0.0000 C   0  0  0  0  0  0  0  0  0  0  0  0
    9.2278  -29.1890    0.0000 C   0  0  0  0  0  0  0  0  0  0  0  0
    9.9430  -28.7861    0.0000 C   0  0  0  0  0  0  0  0  0  0  0  0
    9.9419  -27.9682    0.0000 C   0  0  0  0  0  0  0  0  0  0  0  0
    9.2234  -27.5540    0.0000 C   0  0  0  0  0  0  0  0  0  0  0  0
    8.5163  -29.5966    0.0000 O   0  0  0  0  0  0  0  0  0  0  0  0
    9.9348  -29.5966    0.0000 C   0  0  0  0  0  0  0  0  0  0  0  0
   10.7158  -29.3794    0.0000 C   0  0  0  0  0  0  0  0  0  0  0  0
   10.3323  -30.2944    0.0000 C   0  0  0  0  0  0  0  0  0  0  0  0
    9.2585  -26.7411    0.0000 O   0  0  0  0  0  0  0  0  0  0  0  0
    8.5163  -27.1568    0.0000 C   0  0  0  0  0  0  0  0  0  0  0  0
    7.8168  -26.7409    0.0000 O   0  0  0  0  0  0  0  0  0  0  0  0
    6.4086  -27.5605    0.0000 O   0  0  0  0  0  0  0  0  0  0  0  0
    5.7032  -27.9735    0.0000 C   0  0  0  0  0  0  0  0  0  0  0  0
    4.9957  -27.5640    0.0000 C   0  0  0  0  0  0  0  0  0  0  0  0
   10.6572  -27.5516    0.0000 O   0  0  0  0  0  0  0  0  0  0  0  0
    5.7041  -28.8006    0.0000 O   0  0  0  0  0  0  0  0  0  0  0  0
    7.1005  -26.3307    0.0000 C   0  0  0  0  0  0  0  0  0  0  0  0
    7.0993  -25.5036    0.0000 C   0  0  0  0  0  0  0  0  0  0  0  0
    9.9915  -26.3612    0.0000 C   0  0  0  0  0  0  0  0  0  0  0  0
   10.0273  -25.5348    0.0000 C   0  0  0  0  0  0  0  0  0  0  0  0
    7.8174  -25.0926    0.0000 C   0  0  0  0  0  0  0  0  0  0  0  0
    7.8165  -24.2662    0.0000 C   0  0  0  0  0  0  0  0  0  0  0  0
    7.0991  -23.8528    0.0000 C   0  0  0  0  0  0  0  0  0  0  0  0
    6.3810  -24.2719    0.0000 C   0  0  0  0  0  0  0  0  0  0  0  0
    6.3853  -25.0969    0.0000 C   0  0  0  0  0  0  0  0  0  0  0  0
    7.8177  -30.0216    0.0000 O   0  0  0  0  0  0  0  0  0  0  0  0
    6.3925  -29.2061    0.0000 O   0  0  0  0  0  0  0  0  0  0  0  0
    6.3951  -30.0378    0.0000 C   0  0  0  0  0  0  0  0  0  0  0  0
    7.1167  -30.4514    0.0000 O   0  0  0  0  0  0  0  0  0  0  0  0
    5.6760  -30.4559    0.0000 C   0  0  0  0  0  0  0  0  0  0  0  0
   10.7630  -25.1546    0.0000 C   0  0  0  0  0  0  0  0  0  0  0  0
   10.7992  -24.3290    0.0000 C   0  0  0  0  0  0  0  0  0  0  0  0
   10.1008  -23.8840    0.0000 C   0  0  0  0  0  0  0  0  0  0  0  0
    9.3648  -24.2705    0.0000 C   0  0  0  0  0  0  0  0  0  0  0  0
    9.3323  -25.0949    0.0000 C   0  0  0  0  0  0  0  0  0  0  0  0
    7.8093  -28.3581    0.0000 C   0  0  0  0  0  0  0  0  0  0  0  0
   11.3792  -27.9648    0.0000 C   0  0  0  0  0  0  0  0  0  0  0  0
   12.0978  -27.5461    0.0000 C   0  0  0  0  0  0  0  0  0  0  0  0
   11.3823  -28.7964    0.0000 O   0  0  0  0  0  0  0  0  0  0  0  0
    6.3812  -26.7483    0.0000 O   0  0  0  0  0  0  0  0  0  0  0  0
   10.6927  -26.8085    0.0000 O   0  0  0  0  0  0  0  0  0  0  0  0
 17 23  1  0
  6 11  1  0
 23 24  1  0
  8 12  1  0
 15 25  1  0
 11 12  1  0
 25 26  1  0
  1  2  1  0
 24 27  2  0
 12 13  1  0
 27 28  1  0
  1  4  1  0
 28 29  2  0
 12 14  1  0
 29 30  1  0
  2  3  1  0
 30 31  2  0
 31 24  1  0
 10 15  1  0
  3 32  1  0
  3  6  1  0
  2 33  1  0
  5 16  1  0
 33 34  1  0
  5  4  1  0
 34 35  2  0
  4 17  1  0
 34 36  1  0
  5 10  1  0
 26 37  2  0
  1 18  1  0
 37 38  1  0
  6  7  1  0
 38 39  2  0
 18 19  1  0
 39 40  1  0
  7  8  1  0
 40 41  2  0
 41 26  1  0
 19 20  1  0
  3 42  1  0
  8  9  1  0
 21 43  1  0
  9 21  1  0
 43 44  1  0
  9 10  1  0
 43 45  2  0
 19 22  2  0
 23 46  2  0
  5  6  1  0
 25 47  2  0
M  END
>  <Classification>  (41) 
1

>  <pchembl>  (41) 
5.9

>  <InChI_steorem>  (41) 
InChI=1S/C35H40O12/c1-19(36)42-25-24-18-35(47-32(24,4)5)33(6,27(25)45-30(39)22-14-10-8-11-15-22)28(46-31(40)23-16-12-9-13-17-23)26(43-20(2)37)29(34(35,7)41)44-21(3)38/h8-17,24-29,41H,18H2,1-7H3

>  <source>  (41) 
ChEMBL25

>  <source_id>  (41) 
25

>  <optional_reference>  (41) 
10.1021/jm070290v

>  <optional_origin>  (41) 
None

>  <target>  (41) 
MDR1

$$$$

     RDKit          2D

 48 52  0  0  0  0  0  0  0  0999 V2000
   -3.1227   -8.9921    0.0000 C   0  0  0  0  0  0  0  0  0  0  0  0
   -3.1227   -9.8133    0.0000 C   0  0  0  0  0  0  0  0  0  0  0  0
   -2.4132  -10.2170    0.0000 C   0  0  0  0  0  0  0  0  0  0  0  0
   -2.4132   -8.5745    0.0000 C   0  0  0  0  0  0  0  0  0  0  0  0
   -1.7039   -8.9921    0.0000 C   0  0  0  0  0  0  0  0  0  0  0  0
   -1.7029   -9.8133    0.0000 C   0  0  0  0  0  0  0  0  0  0  0  0
   -0.9975  -10.2161    0.0000 C   0  0  0  0  0  0  0  0  0  0  0  0
   -0.2841   -9.8114    0.0000 C   0  0  0  0  0  0  0  0  0  0  0  0
   -0.2852   -8.9902    0.0000 C   0  0  0  0  0  0  0  0  0  0  0  0
   -1.0021   -8.5743    0.0000 C   0  0  0  0  0  0  0  0  0  0  0  0
   -1.7121  -10.6254    0.0000 O   0  0  0  0  0  0  0  0  0  0  0  0
   -0.2923  -10.6254    0.0000 C   0  0  0  0  0  0  0  0  0  0  0  0
    0.4919  -10.4072    0.0000 C   0  0  0  0  0  0  0  0  0  0  0  0
    0.1114  -11.3259    0.0000 C   0  0  0  0  0  0  0  0  0  0  0  0
   -0.9976  -11.0327    0.0000 O   0  0  0  0  0  0  0  0  0  0  0  0
   -0.5485   -7.8944    0.0000 O   0  0  0  0  0  0  0  0  0  0  0  0
   -1.7121   -8.1755    0.0000 C   0  0  0  0  0  0  0  0  0  0  0  0
   -2.4144   -7.7579    0.0000 O   0  0  0  0  0  0  0  0  0  0  0  0
   -3.8283   -8.5808    0.0000 O   0  0  0  0  0  0  0  0  0  0  0  0
   -4.5414   -8.9955    0.0000 C   0  0  0  0  0  0  0  0  0  0  0  0
   -5.2471   -8.5843    0.0000 C   0  0  0  0  0  0  0  0  0  0  0  0
   -1.7024  -11.4456    0.0000 C   0  0  0  0  0  0  0  0  0  0  0  0
   -1.7025  -12.2622    0.0000 O   0  0  0  0  0  0  0  0  0  0  0  0
   -2.4916  -11.6461    0.0000 C   0  0  0  0  0  0  0  0  0  0  0  0
    0.4331   -8.5719    0.0000 O   0  0  0  0  0  0  0  0  0  0  0  0
   -0.9976   -7.7507    0.0000 O   0  0  0  0  0  0  0  0  0  0  0  0
   -1.0060   -6.9202    0.0000 C   0  0  0  0  0  0  0  0  0  0  0  0
   -0.2916   -6.5000    0.0000 C   0  0  0  0  0  0  0  0  0  0  0  0
   -1.7288   -6.5145    0.0000 O   0  0  0  0  0  0  0  0  0  0  0  0
   -2.4136  -11.0475    0.0000 O   0  0  0  0  0  0  0  0  0  0  0  0
   -4.5405   -9.8261    0.0000 O   0  0  0  0  0  0  0  0  0  0  0  0
   -3.1337   -7.3460    0.0000 C   0  0  0  0  0  0  0  0  0  0  0  0
   -3.1348   -6.5154    0.0000 C   0  0  0  0  0  0  0  0  0  0  0  0
   -2.4109   -6.0984    0.0000 C   0  0  0  0  0  0  0  0  0  0  0  0
   -2.4117   -5.2732    0.0000 C   0  0  0  0  0  0  0  0  0  0  0  0
   -3.1315   -4.8554    0.0000 C   0  0  0  0  0  0  0  0  0  0  0  0
   -3.8518   -5.2768    0.0000 C   0  0  0  0  0  0  0  0  0  0  0  0
   -3.8475   -6.1027    0.0000 C   0  0  0  0  0  0  0  0  0  0  0  0
    0.2820   -7.8901    0.0000 C   0  0  0  0  0  0  0  0  0  0  0  0
    0.6912   -7.1693    0.0000 C   0  0  0  0  0  0  0  0  0  0  0  0
    1.5206   -7.1671    0.0000 C   0  0  0  0  0  0  0  0  0  0  0  0
    1.9344   -6.4471    0.0000 C   0  0  0  0  0  0  0  0  0  0  0  0
    1.5130   -5.7251    0.0000 C   0  0  0  0  0  0  0  0  0  0  0  0
    0.6782   -5.7321    0.0000 C   0  0  0  0  0  0  0  0  0  0  0  0
    0.2728   -6.4573    0.0000 C   0  0  0  0  0  0  0  0  0  0  0  0
   -2.4220   -9.3865    0.0000 C   0  0  0  0  0  0  0  0  0  0  0  0
   -3.8560   -7.7653    0.0000 O   0  0  0  0  0  0  0  0  0  0  0  0
    1.0811   -8.1012    0.0000 O   0  0  0  0  0  0  0  0  0  0  0  0
  6 11  1  0
 22 24  1  0
  9 25  2  0
  8 12  1  0
 17 26  1  0
 11 12  1  0
 26 27  1  0
  1  2  1  0
 27 28  1  0
 12 13  1  0
 27 29  2  0
  1  4  1  0
  3 30  1  0
 12 14  1  0
 20 31  2  0
  2  3  1  0
 18 32  1  0
  7 15  1  0
 32 33  1  0
  3  6  1  0
 33 34  2  0
 10 16  1  0
 34 35  1  0
  5  4  1  0
 35 36  2  0
  5 17  1  0
 36 37  1  0
  5 10  1  0
 37 38  2  0
 38 33  1  0
  4 18  1  0
 16 39  1  0
  6  7  1  0
 39 40  1  0
  1 19  1  0
 40 41  2  0
  7  8  1  0
 41 42  1  0
 19 20  1  0
 42 43  2  0
  8  9  1  0
 43 44  1  0
 20 21  1  0
 44 45  2  0
 45 40  1  0
  9 10  1  0
  3 46  1  0
 15 22  1  0
  5  6  1  0
 32 47  2  0
 22 23  2  0
 39 48  2  0
M  END
>  <Classification>  (42) 
1

>  <pchembl>  (42) 
5.52

>  <InChI_steorem>  (42) 
InChI=1S/C35H38O13/c1-19(36)43-18-34-27(46-30(40)22-13-9-7-10-14-22)24(44-20(2)37)17-33(6,42)35(34)28(45-21(3)38)25(32(4,5)48-35)26(39)29(34)47-31(41)23-15-11-8-12-16-23/h7-16,24-25,27-29,42H,17-18H2,1-6H3

>  <source>  (42) 
ChEMBL25

>  <source_id>  (42) 
25

>  <optional_reference>  (42) 
10.1021/jm070290v

>  <optional_origin>  (42) 
None

>  <target>  (42) 
MDR1

$$$$

     RDKit          2D

 48 52  0  0  0  0  0  0  0  0999 V2000
   -4.1342  -15.3525    0.0000 C   0  0  0  0  0  0  0  0  0  0  0  0
   -4.1342  -16.1794    0.0000 C   0  0  0  0  0  0  0  0  0  0  0  0
   -3.4194  -16.5882    0.0000 C   0  0  0  0  0  0  0  0  0  0  0  0
   -3.4194  -14.9344    0.0000 C   0  0  0  0  0  0  0  0  0  0  0  0
   -2.7046  -15.3525    0.0000 C   0  0  0  0  0  0  0  0  0  0  0  0
   -2.7035  -16.1794    0.0000 C   0  0  0  0  0  0  0  0  0  0  0  0
   -1.9928  -16.5872    0.0000 C   0  0  0  0  0  0  0  0  0  0  0  0
   -1.2738  -16.1775    0.0000 C   0  0  0  0  0  0  0  0  0  0  0  0
   -1.2750  -15.3507    0.0000 C   0  0  0  0  0  0  0  0  0  0  0  0
   -1.9973  -14.9343    0.0000 C   0  0  0  0  0  0  0  0  0  0  0  0
   -2.7128  -16.9969    0.0000 O   0  0  0  0  0  0  0  0  0  0  0  0
   -1.2821  -16.9969    0.0000 C   0  0  0  0  0  0  0  0  0  0  0  0
   -0.4924  -16.7786    0.0000 C   0  0  0  0  0  0  0  0  0  0  0  0
   -0.8780  -17.7031    0.0000 C   0  0  0  0  0  0  0  0  0  0  0  0
   -1.9929  -17.4094    0.0000 O   0  0  0  0  0  0  0  0  0  0  0  0
   -1.5609  -14.2379    0.0000 O   0  0  0  0  0  0  0  0  0  0  0  0
   -0.7392  -14.2647    0.0000 C   0  0  0  0  0  0  0  0  0  0  0  0
   -0.3356  -13.5414    0.0000 C   0  0  0  0  0  0  0  0  0  0  0  0
    0.4875  -13.5445    0.0000 C   0  0  0  0  0  0  0  0  0  0  0  0
    0.8980  -12.8289    0.0000 C   0  0  0  0  0  0  0  0  0  0  0  0
    0.4852  -12.1168    0.0000 C   0  0  0  0  0  0  0  0  0  0  0  0
   -0.3425  -12.1249    0.0000 C   0  0  0  0  0  0  0  0  0  0  0  0
   -0.7477  -12.8347    0.0000 C   0  0  0  0  0  0  0  0  0  0  0  0
   -2.7128  -14.5303    0.0000 C   0  0  0  0  0  0  0  0  0  0  0  0
   -2.0067  -14.1098    0.0000 O   0  0  0  0  0  0  0  0  0  0  0  0
   -3.4206  -14.1122    0.0000 O   0  0  0  0  0  0  0  0  0  0  0  0
   -4.1360  -13.7045    0.0000 C   0  0  0  0  0  0  0  0  0  0  0  0
   -4.1371  -12.8776    0.0000 C   0  0  0  0  0  0  0  0  0  0  0  0
   -4.8456  -14.1142    0.0000 O   0  0  0  0  0  0  0  0  0  0  0  0
   -4.8455  -14.9409    0.0000 O   0  0  0  0  0  0  0  0  0  0  0  0
   -5.5592  -15.3561    0.0000 C   0  0  0  0  0  0  0  0  0  0  0  0
   -6.2705  -14.9443    0.0000 C   0  0  0  0  0  0  0  0  0  0  0  0
   -5.5572  -16.1781    0.0000 O   0  0  0  0  0  0  0  0  0  0  0  0
   -3.4282  -15.7660    0.0000 C   0  0  0  0  0  0  0  0  0  0  0  0
   -3.4282  -17.4104    0.0000 O   0  0  0  0  0  0  0  0  0  0  0  0
   -2.7031  -17.8228    0.0000 C   0  0  0  0  0  0  0  0  0  0  0  0
   -2.7032  -18.6450    0.0000 O   0  0  0  0  0  0  0  0  0  0  0  0
   -3.4979  -18.0281    0.0000 C   0  0  0  0  0  0  0  0  0  0  0  0
   -0.5512  -14.9318    0.0000 O   0  0  0  0  0  0  0  0  0  0  0  0
    0.1732  -15.3493    0.0000 C   0  0  0  0  0  0  0  0  0  0  0  0
    0.8970  -14.9304    0.0000 C   0  0  0  0  0  0  0  0  0  0  0  0
    1.6203  -15.3508    0.0000 C   0  0  0  0  0  0  0  0  0  0  0  0
    2.3435  -14.9327    0.0000 C   0  0  0  0  0  0  0  0  0  0  0  0
    2.3432  -14.0957    0.0000 C   0  0  0  0  0  0  0  0  0  0  0  0
    1.6135  -13.6785    0.0000 C   0  0  0  0  0  0  0  0  0  0  0  0
    0.8933  -14.0991    0.0000 C   0  0  0  0  0  0  0  0  0  0  0  0
    0.1741  -16.1854    0.0000 O   0  0  0  0  0  0  0  0  0  0  0  0
    0.0604  -14.4745    0.0000 O   0  0  0  0  0  0  0  0  0  0  0  0
 23 18  1  0
  6 11  1  0
  5 24  1  0
 24 25  1  0
  8 12  1  0
  4 26  1  0
 11 12  1  0
 26 27  1  0
  1  2  1  0
 27 28  1  0
 12 13  1  0
 27 29  2  0
  1  4  1  0
  1 30  1  0
 12 14  1  0
 30 31  1  0
  2  3  1  0
 31 32  1  0
  7 15  1  0
 31 33  2  0
  3  6  1  0
  3 34  1  0
 10 16  1  0
  3 35  1  0
  5  4  1  0
 15 36  1  0
 16 17  1  0
 36 37  2  0
  5 10  1  0
 36 38  1  0
 17 18  1  0
  9 39  1  0
  6  7  1  0
 39 40  1  0
 18 19  2  0
 40 41  1  0
  7  8  1  0
 41 42  2  0
 19 20  1  0
 42 43  1  0
  8  9  1  0
 43 44  2  0
 20 21  2  0
 44 45  1  0
  9 10  1  0
 45 46  2  0
 46 41  1  0
 21 22  1  0
 40 47  2  0
  5  6  1  0
 17 48  2  0
 22 23  2  0
M  END
>  <Classification>  (43) 
1

>  <pchembl>  (43) 
5.15

>  <InChI_steorem>  (43) 
InChI=1S/C35H40O13/c1-19(37)43-24-17-33(6,42)35-28(45-21(3)39)25(32(4,5)48-35)26(46-30(40)22-13-9-7-10-14-22)29(34(35,18-36)27(24)44-20(2)38)47-31(41)23-15-11-8-12-16-23/h7-16,24-29,36,42H,17-18H2,1-6H3

>  <source>  (43) 
ChEMBL25

>  <source_id>  (43) 
25

>  <optional_reference>  (43) 
10.1021/jm070290v

>  <optional_origin>  (43) 
None

>  <target>  (43) 
MDR1

$$$$

     RDKit          2D

 49 51  0  0  0  0  0  0  0  0999 V2000
    8.1382  -16.0113    0.0000 C   0  0  0  0  0  0  0  0  0  0  0  0
    8.1382  -16.8344    0.0000 C   0  0  0  0  0  0  0  0  0  0  0  0
    8.8492  -17.2390    0.0000 C   0  0  0  0  0  0  0  0  0  0  0  0
    8.8492  -15.5927    0.0000 C   0  0  0  0  0  0  0  0  0  0  0  0
    9.5601  -16.0113    0.0000 C   0  0  0  0  0  0  0  0  0  0  0  0
    9.5612  -16.8344    0.0000 C   0  0  0  0  0  0  0  0  0  0  0  0
   10.2728  -17.2381    0.0000 C   0  0  0  0  0  0  0  0  0  0  0  0
   10.9878  -16.8326    0.0000 C   0  0  0  0  0  0  0  0  0  0  0  0
   10.9867  -16.0095    0.0000 C   0  0  0  0  0  0  0  0  0  0  0  0
   10.2682  -15.5926    0.0000 C   0  0  0  0  0  0  0  0  0  0  0  0
    9.5519  -17.6482    0.0000 O   0  0  0  0  0  0  0  0  0  0  0  0
   10.9796  -17.6482    0.0000 C   0  0  0  0  0  0  0  0  0  0  0  0
   11.7655  -17.4297    0.0000 C   0  0  0  0  0  0  0  0  0  0  0  0
   11.3795  -18.3505    0.0000 C   0  0  0  0  0  0  0  0  0  0  0  0
   10.2726  -18.0565    0.0000 O   0  0  0  0  0  0  0  0  0  0  0  0
   10.7182  -14.9112    0.0000 O   0  0  0  0  0  0  0  0  0  0  0  0
    9.5519  -15.1928    0.0000 C   0  0  0  0  0  0  0  0  0  0  0  0
    8.8480  -14.7743    0.0000 O   0  0  0  0  0  0  0  0  0  0  0  0
    7.4308  -15.5992    0.0000 O   0  0  0  0  0  0  0  0  0  0  0  0
    6.7209  -16.0148    0.0000 C   0  0  0  0  0  0  0  0  0  0  0  0
    6.0135  -15.6027    0.0000 C   0  0  0  0  0  0  0  0  0  0  0  0
   11.7066  -15.5902    0.0000 O   0  0  0  0  0  0  0  0  0  0  0  0
   10.2726  -14.7670    0.0000 O   0  0  0  0  0  0  0  0  0  0  0  0
   10.2643  -13.9347    0.0000 C   0  0  0  0  0  0  0  0  0  0  0  0
   10.9802  -13.5136    0.0000 C   0  0  0  0  0  0  0  0  0  0  0  0
    9.5351  -13.5234    0.0000 O   0  0  0  0  0  0  0  0  0  0  0  0
    8.8488  -18.0715    0.0000 O   0  0  0  0  0  0  0  0  0  0  0  0
    6.7218  -16.8472    0.0000 O   0  0  0  0  0  0  0  0  0  0  0  0
    8.1272  -14.3615    0.0000 C   0  0  0  0  0  0  0  0  0  0  0  0
    8.1259  -13.5244    0.0000 C   0  0  0  0  0  0  0  0  0  0  0  0
   11.5123  -14.6583    0.0000 C   0  0  0  0  0  0  0  0  0  0  0  0
   11.6935  -13.8458    0.0000 C   0  0  0  0  0  0  0  0  0  0  0  0
    8.8404  -16.4066    0.0000 C   0  0  0  0  0  0  0  0  0  0  0  0
    7.4074  -14.7763    0.0000 O   0  0  0  0  0  0  0  0  0  0  0  0
   12.1250  -15.2190    0.0000 O   0  0  0  0  0  0  0  0  0  0  0  0
    7.4188  -17.2498    0.0000 O   0  0  0  0  0  0  0  0  0  0  0  0
    7.4205  -18.0822    0.0000 C   0  0  0  0  0  0  0  0  0  0  0  0
    6.7011  -18.5023    0.0000 C   0  0  0  0  0  0  0  0  0  0  0  0
    8.1417  -18.4993    0.0000 O   0  0  0  0  0  0  0  0  0  0  0  0
   12.4273  -16.0080    0.0000 C   0  0  0  0  0  0  0  0  0  0  0  0
   13.1471  -15.5887    0.0000 C   0  0  0  0  0  0  0  0  0  0  0  0
   12.4282  -16.8404    0.0000 O   0  0  0  0  0  0  0  0  0  0  0  0
   12.3574  -18.0122    0.0000 O   0  0  0  0  0  0  0  0  0  0  0  0
   13.1595  -17.7892    0.0000 C   0  0  0  0  0  0  0  0  0  0  0  0
   13.7515  -18.3764    0.0000 C   0  0  0  0  0  0  0  0  0  0  0  0
   13.3698  -16.9836    0.0000 O   0  0  0  0  0  0  0  0  0  0  0  0
    9.5476  -18.4750    0.0000 C   0  0  0  0  0  0  0  0  0  0  0  0
    9.5475  -19.3074    0.0000 O   0  0  0  0  0  0  0  0  0  0  0  0
    8.7427  -18.6806    0.0000 C   0  0  0  0  0  0  0  0  0  0  0  0
 23 24  1  0
 24 25  1  0
  8 12  1  0
 24 26  2  0
 11 12  1  0
  3 27  1  0
  1  2  1  0
 20 28  2  0
 12 13  1  0
 18 29  1  0
  1  4  1  0
 29 30  1  0
 12 14  1  0
 16 31  1  0
  2  3  1  0
 31 32  1  0
  7 15  1  0
  3 33  1  0
  3  6  1  0
 29 34  2  0
 10 16  1  0
 31 35  2  0
  5  4  1  0
  2 36  1  0
  5 17  1  0
 36 37  1  0
  5 10  1  0
 37 38  1  0
  4 18  1  0
 37 39  2  0
  6  7  1  0
 22 40  1  0
  1 19  1  0
 40 41  1  0
  7  8  1  0
 40 42  2  0
 19 20  1  0
 13 43  1  0
  8  9  1  0
 43 44  1  0
 20 21  1  0
 44 45  1  0
  9 10  1  0
 44 46  2  0
  9 22  1  0
 15 47  1  0
  5  6  1  0
 47 48  2  0
 17 23  1  0
 47 49  1  0
  6 11  1  0
M  END
>  <Classification>  (44) 
1

>  <pchembl>  (44) 
5.16

>  <InChI_steorem>  (44) 
InChI=1S/C31H42O18/c1-13(32)41-11-28(9)21-22(43-15(3)34)26(47-19(7)38)30(12-42-14(2)33)27(48-20(8)39)23(44-16(4)35)25(46-18(6)37)29(10,40)31(30,49-28)24(21)45-17(5)36/h21-27,40H,11-12H2,1-10H3

>  <source>  (44) 
ChEMBL25

>  <source_id>  (44) 
25

>  <optional_reference>  (44) 
10.1021/jm070290v

>  <optional_origin>  (44) 
None

>  <target>  (44) 
MDR1

$$$$

     RDKit          2D

 49 54  0  0  0  0  0  0  0  0999 V2000
    6.8065  -24.0880    0.0000 C   0  0  0  0  0  0  0  0  0  0  0  0
    6.8065  -24.9168    0.0000 C   0  0  0  0  0  0  0  0  0  0  0  0
    7.5230  -25.3265    0.0000 C   0  0  0  0  0  0  0  0  0  0  0  0
    7.5230  -23.6690    0.0000 C   0  0  0  0  0  0  0  0  0  0  0  0
    8.2393  -24.0880    0.0000 C   0  0  0  0  0  0  0  0  0  0  0  0
    8.2404  -24.9168    0.0000 C   0  0  0  0  0  0  0  0  0  0  0  0
    8.9527  -25.3255    0.0000 C   0  0  0  0  0  0  0  0  0  0  0  0
    9.6733  -24.9149    0.0000 C   0  0  0  0  0  0  0  0  0  0  0  0
    9.6722  -24.0862    0.0000 C   0  0  0  0  0  0  0  0  0  0  0  0
    8.9482  -23.6689    0.0000 C   0  0  0  0  0  0  0  0  0  0  0  0
    8.2311  -25.7361    0.0000 O   0  0  0  0  0  0  0  0  0  0  0  0
    9.6650  -25.7361    0.0000 C   0  0  0  0  0  0  0  0  0  0  0  0
   10.4564  -25.5173    0.0000 C   0  0  0  0  0  0  0  0  0  0  0  0
   10.0701  -26.4438    0.0000 C   0  0  0  0  0  0  0  0  0  0  0  0
    8.9526  -26.1495    0.0000 O   0  0  0  0  0  0  0  0  0  0  0  0
    8.9961  -22.8459    0.0000 O   0  0  0  0  0  0  0  0  0  0  0  0
    9.7302  -22.4715    0.0000 C   0  0  0  0  0  0  0  0  0  0  0  0
    9.7340  -21.6414    0.0000 C   0  0  0  0  0  0  0  0  0  0  0  0
   10.4578  -21.2455    0.0000 C   0  0  0  0  0  0  0  0  0  0  0  0
   10.4714  -20.4188    0.0000 C   0  0  0  0  0  0  0  0  0  0  0  0
    9.7644  -19.9939    0.0000 C   0  0  0  0  0  0  0  0  0  0  0  0
    9.0420  -20.4017    0.0000 C   0  0  0  0  0  0  0  0  0  0  0  0
    9.0301  -21.2208    0.0000 C   0  0  0  0  0  0  0  0  0  0  0  0
    8.2311  -23.2640    0.0000 C   0  0  0  0  0  0  0  0  0  0  0  0
    7.5217  -22.8450    0.0000 O   0  0  0  0  0  0  0  0  0  0  0  0
    6.8047  -22.4364    0.0000 C   0  0  0  0  0  0  0  0  0  0  0  0
    6.8036  -21.6076    0.0000 C   0  0  0  0  0  0  0  0  0  0  0  0
    6.0937  -23.6755    0.0000 O   0  0  0  0  0  0  0  0  0  0  0  0
    5.3783  -24.0916    0.0000 C   0  0  0  0  0  0  0  0  0  0  0  0
    4.6655  -23.6790    0.0000 C   0  0  0  0  0  0  0  0  0  0  0  0
    7.5141  -24.5024    0.0000 C   0  0  0  0  0  0  0  0  0  0  0  0
    7.5141  -26.1505    0.0000 O   0  0  0  0  0  0  0  0  0  0  0  0
    8.2409  -26.5638    0.0000 C   0  0  0  0  0  0  0  0  0  0  0  0
    8.2407  -27.3879    0.0000 O   0  0  0  0  0  0  0  0  0  0  0  0
    7.4443  -26.7696    0.0000 C   0  0  0  0  0  0  0  0  0  0  0  0
   10.3976  -23.6664    0.0000 O   0  0  0  0  0  0  0  0  0  0  0  0
    7.5230  -21.1960    0.0000 C   0  0  0  0  0  0  0  0  0  0  0  0
    7.5222  -20.3681    0.0000 C   0  0  0  0  0  0  0  0  0  0  0  0
    6.8034  -19.9539    0.0000 C   0  0  0  0  0  0  0  0  0  0  0  0
    6.0839  -20.3736    0.0000 C   0  0  0  0  0  0  0  0  0  0  0  0
    6.0883  -21.2002    0.0000 C   0  0  0  0  0  0  0  0  0  0  0  0
    4.6698  -22.8548    0.0000 C   0  0  0  0  0  0  0  0  0  0  0  0
    3.9579  -22.4423    0.0000 C   0  0  0  0  0  0  0  0  0  0  0  0
    3.2432  -22.8532    0.0000 C   0  0  0  0  0  0  0  0  0  0  0  0
    3.2449  -23.6811    0.0000 C   0  0  0  0  0  0  0  0  0  0  0  0
    3.9574  -24.0899    0.0000 C   0  0  0  0  0  0  0  0  0  0  0  0
    6.0805  -22.8578    0.0000 O   0  0  0  0  0  0  0  0  0  0  0  0
   10.4437  -22.9108    0.0000 O   0  0  0  0  0  0  0  0  0  0  0  0
    5.3791  -24.9296    0.0000 O   0  0  0  0  0  0  0  0  0  0  0  0
  6 11  1  0
  5 24  1  0
  4 25  1  0
  8 12  1  0
 25 26  1  0
 11 12  1  0
 26 27  1  0
  1  2  1  0
  1 28  1  0
 12 13  1  0
 28 29  1  0
  1  4  1  0
 29 30  1  0
 12 14  1  0
  3 31  1  0
  2  3  1  0
  3 32  1  0
  7 15  1  0
 15 33  1  0
  3  6  1  0
 33 34  2  0
 10 16  1  0
 33 35  1  0
  5  4  1  0
  9 36  1  0
 16 17  1  0
 27 37  2  0
  5 10  1  0
 37 38  1  0
 17 18  1  0
 38 39  2  0
  6  7  1  0
 39 40  1  0
 18 19  2  0
 40 41  2  0
 41 27  1  0
  7  8  1  0
 30 42  2  0
 19 20  1  0
 42 43  1  0
  8  9  1  0
 43 44  2  0
 20 21  2  0
 44 45  1  0
  9 10  1  0
 45 46  2  0
 46 30  1  0
 21 22  1  0
 26 47  2  0
  5  6  1  0
 17 48  2  0
 22 23  2  0
 29 49  2  0
 23 18  1  0
M  END
>  <Classification>  (45) 
1

>  <pchembl>  (45) 
5.92

>  <InChI_steorem>  (45) 
InChI=1S/C38H40O11/c1-22(39)45-30-27-28(40)31(48-34(43)25-19-13-8-14-20-25)37(5)29(47-33(42)24-17-11-7-12-18-24)26(46-32(41)23-15-9-6-10-16-23)21-36(4,44)38(30,37)49-35(27,2)3/h6-20,26-31,40,44H,21H2,1-5H3

>  <source>  (45) 
ChEMBL25

>  <source_id>  (45) 
25

>  <optional_reference>  (45) 
10.1021/jm070290v

>  <optional_origin>  (45) 
None

>  <target>  (45) 
MDR1

$$$$

     RDKit          2D

 49 54  0  0  0  0  0  0  0  0999 V2000
    9.2099   -8.5699    0.0000 C   0  0  0  0  0  0  0  0  0  0  0  0
    9.2099   -9.3995    0.0000 C   0  0  0  0  0  0  0  0  0  0  0  0
    9.9244   -9.8120    0.0000 C   0  0  0  0  0  0  0  0  0  0  0  0
    9.9244   -8.1529    0.0000 C   0  0  0  0  0  0  0  0  0  0  0  0
   10.6434   -8.5699    0.0000 C   0  0  0  0  0  0  0  0  0  0  0  0
   10.6445   -9.3995    0.0000 C   0  0  0  0  0  0  0  0  0  0  0  0
   11.3594   -9.8111    0.0000 C   0  0  0  0  0  0  0  0  0  0  0  0
   12.0779   -9.3976    0.0000 C   0  0  0  0  0  0  0  0  0  0  0  0
   12.0768   -8.5681    0.0000 C   0  0  0  0  0  0  0  0  0  0  0  0
   11.3573   -8.1519    0.0000 C   0  0  0  0  0  0  0  0  0  0  0  0
    9.9232   -7.3280    0.0000 O   0  0  0  0  0  0  0  0  0  0  0  0
    9.2083   -6.9165    0.0000 C   0  0  0  0  0  0  0  0  0  0  0  0
    8.4945   -8.1592    0.0000 O   0  0  0  0  0  0  0  0  0  0  0  0
    9.9157   -8.9870    0.0000 C   0  0  0  0  0  0  0  0  0  0  0  0
   10.6353  -10.2198    0.0000 O   0  0  0  0  0  0  0  0  0  0  0  0
   12.0698  -10.2198    0.0000 C   0  0  0  0  0  0  0  0  0  0  0  0
   12.2806  -11.0128    0.0000 C   0  0  0  0  0  0  0  0  0  0  0  0
   12.8627  -10.0045    0.0000 C   0  0  0  0  0  0  0  0  0  0  0  0
   10.6353   -7.7449    0.0000 C   0  0  0  0  0  0  0  0  0  0  0  0
   11.3551   -7.3270    0.0000 O   0  0  0  0  0  0  0  0  0  0  0  0
   12.0685   -6.9126    0.0000 C   0  0  0  0  0  0  0  0  0  0  0  0
   12.0663   -6.0877    0.0000 O   0  0  0  0  0  0  0  0  0  0  0  0
   12.7839   -7.3240    0.0000 C   0  0  0  0  0  0  0  0  0  0  0  0
   12.8723   -8.1441    0.0000 C   0  0  0  0  0  0  0  0  0  0  0  0
   13.6798   -8.3135    0.0000 C   0  0  0  0  0  0  0  0  0  0  0  0
   14.0904   -7.5980    0.0000 C   0  0  0  0  0  0  0  0  0  0  0  0
   13.5367   -6.9864    0.0000 O   0  0  0  0  0  0  0  0  0  0  0  0
   11.3593  -10.6361    0.0000 O   0  0  0  0  0  0  0  0  0  0  0  0
    8.4925   -7.3342    0.0000 O   0  0  0  0  0  0  0  0  0  0  0  0
    7.7811   -8.5734    0.0000 C   0  0  0  0  0  0  0  0  0  0  0  0
    7.0657   -8.1626    0.0000 C   0  0  0  0  0  0  0  0  0  0  0  0
    7.7831   -9.3983    0.0000 O   0  0  0  0  0  0  0  0  0  0  0  0
    9.9305  -10.6358    0.0000 O   0  0  0  0  0  0  0  0  0  0  0  0
   10.9378  -11.3428    0.0000 C   0  0  0  0  0  0  0  0  0  0  0  0
    6.9811   -7.3381    0.0000 O   0  0  0  0  0  0  0  0  0  0  0  0
    6.1737   -7.1685    0.0000 C   0  0  0  0  0  0  0  0  0  0  0  0
    5.7629   -7.8840    0.0000 C   0  0  0  0  0  0  0  0  0  0  0  0
    6.3165   -8.4956    0.0000 C   0  0  0  0  0  0  0  0  0  0  0  0
   10.1129  -11.3310    0.0000 O   0  0  0  0  0  0  0  0  0  0  0  0
   11.3401  -12.0630    0.0000 C   0  0  0  0  0  0  0  0  0  0  0  0
    9.2057   -6.0915    0.0000 C   0  0  0  0  0  0  0  0  0  0  0  0
    9.8734   -5.6076    0.0000 C   0  0  0  0  0  0  0  0  0  0  0  0
    9.6160   -4.8238    0.0000 C   0  0  0  0  0  0  0  0  0  0  0  0
    8.7910   -4.8263    0.0000 C   0  0  0  0  0  0  0  0  0  0  0  0
    8.5387   -5.6117    0.0000 O   0  0  0  0  0  0  0  0  0  0  0  0
   11.0458   -7.0250    0.0000 O   0  0  0  0  0  0  0  0  0  0  0  0
   10.6276   -6.3095    0.0000 C   0  0  0  0  0  0  0  0  0  0  0  0
   11.0382   -5.5896    0.0000 C   0  0  0  0  0  0  0  0  0  0  0  0
    9.7989   -6.3139    0.0000 O   0  0  0  0  0  0  0  0  0  0  0  0
 21 22  2  0
 23 24  2  0
  4 11  1  0
 11 12  1  0
 12 29  2  0
  1  2  1  0
 24 25  1  0
 25 26  2  0
 26 27  1  0
 27 23  1  0
 21 23  1  0
  1 13  1  0
  7 28  1  0
  1  4  1  0
  3 14  1  0
 13 30  1  0
  2  3  1  0
 30 31  1  0
  6 15  1  0
 30 32  2  0
  3 33  1  0
  3  6  1  0
  8 16  1  0
 28 34  1  0
 31 35  1  0
 15 16  1  0
  5  4  1  0
 16 17  1  0
  5 10  1  0
 35 36  1  0
 36 37  2  0
 37 38  1  0
 38 31  2  0
 16 18  1  0
 34 39  2  0
  6  7  1  0
 34 40  1  0
 12 41  1  0
 41 42  2  0
  7  8  1  0
  5 19  1  0
  8  9  1  0
 10 20  1  0
 42 43  1  0
 43 44  2  0
 44 45  1  0
 45 41  1  0
 19 46  1  0
  9 10  1  0
 46 47  1  0
 20 21  1  0
 47 48  1  0
  5  6  1  0
 47 49  2  0
M  END
>  <Classification>  (46) 
1

>  <pchembl>  (46) 
5.35

>  <InChI_steorem>  (46) 
InChI=1S/C34H36O15/c1-18(35)44-17-33-25(47-29(38)22-10-7-13-42-22)15-20-26(45-19(2)36)34(33,49-31(20,3)4)32(5,40)16-24(46-28(37)21-9-6-12-41-21)27(33)48-30(39)23-11-8-14-43-23/h6-14,20,24-27,40H,15-17H2,1-5H3

>  <source>  (46) 
ChEMBL25

>  <source_id>  (46) 
25

>  <optional_reference>  (46) 
10.1021/jm070290v

>  <optional_origin>  (46) 
None

>  <target>  (46) 
MDR1

$$$$

     RDKit          2D

 50 55  0  0  0  0  0  0  0  0999 V2000
   13.8344   -6.0668    0.0000 C   0  0  0  0  0  0  0  0  0  0  0  0
   13.8344   -6.8963    0.0000 C   0  0  0  0  0  0  0  0  0  0  0  0
   14.5522   -7.3088    0.0000 C   0  0  0  0  0  0  0  0  0  0  0  0
   14.5522   -5.6496    0.0000 C   0  0  0  0  0  0  0  0  0  0  0  0
   15.2700   -6.0668    0.0000 C   0  0  0  0  0  0  0  0  0  0  0  0
   15.2711   -6.8963    0.0000 C   0  0  0  0  0  0  0  0  0  0  0  0
   15.9848   -7.3079    0.0000 C   0  0  0  0  0  0  0  0  0  0  0  0
   16.7068   -6.8944    0.0000 C   0  0  0  0  0  0  0  0  0  0  0  0
   16.7057   -6.0649    0.0000 C   0  0  0  0  0  0  0  0  0  0  0  0
   15.9803   -5.6494    0.0000 C   0  0  0  0  0  0  0  0  0  0  0  0
   15.2618   -7.7166    0.0000 O   0  0  0  0  0  0  0  0  0  0  0  0
   16.6985   -7.7166    0.0000 C   0  0  0  0  0  0  0  0  0  0  0  0
   17.4911   -7.5034    0.0000 C   0  0  0  0  0  0  0  0  0  0  0  0
   15.9847   -8.1329    0.0000 O   0  0  0  0  0  0  0  0  0  0  0  0
   15.2715   -8.5452    0.0000 C   0  0  0  0  0  0  0  0  0  0  0  0
   15.2713   -9.3702    0.0000 C   0  0  0  0  0  0  0  0  0  0  0  0
   14.5585   -9.7789    0.0000 C   0  0  0  0  0  0  0  0  0  0  0  0
   14.5581  -10.6030    0.0000 C   0  0  0  0  0  0  0  0  0  0  0  0
   15.2718  -11.0164    0.0000 C   0  0  0  0  0  0  0  0  0  0  0  0
   15.9874  -10.5995    0.0000 C   0  0  0  0  0  0  0  0  0  0  0  0
   15.9843   -9.7768    0.0000 C   0  0  0  0  0  0  0  0  0  0  0  0
   16.4158   -4.9500    0.0000 O   0  0  0  0  0  0  0  0  0  0  0  0
   17.2402   -4.9767    0.0000 C   0  0  0  0  0  0  0  0  0  0  0  0
   17.6294   -5.7029    0.0000 C   0  0  0  0  0  0  0  0  0  0  0  0
   17.1915   -6.4023    0.0000 C   0  0  0  0  0  0  0  0  0  0  0  0
   17.5801   -7.1280    0.0000 C   0  0  0  0  0  0  0  0  0  0  0  0
   18.4054   -7.1552    0.0000 C   0  0  0  0  0  0  0  0  0  0  0  0
   18.8409   -6.4506    0.0000 C   0  0  0  0  0  0  0  0  0  0  0  0
   18.4499   -5.7278    0.0000 C   0  0  0  0  0  0  0  0  0  0  0  0
   15.2618   -5.2418    0.0000 C   0  0  0  0  0  0  0  0  0  0  0  0
   15.9709   -4.8222    0.0000 O   0  0  0  0  0  0  0  0  0  0  0  0
   15.9626   -3.9973    0.0000 C   0  0  0  0  0  0  0  0  0  0  0  0
   16.6764   -3.5777    0.0000 C   0  0  0  0  0  0  0  0  0  0  0  0
   15.2454   -3.5919    0.0000 O   0  0  0  0  0  0  0  0  0  0  0  0
   14.5510   -4.8246    0.0000 O   0  0  0  0  0  0  0  0  0  0  0  0
   13.8326   -4.4132    0.0000 C   0  0  0  0  0  0  0  0  0  0  0  0
   13.8315   -3.5882    0.0000 C   0  0  0  0  0  0  0  0  0  0  0  0
   13.1200   -4.8266    0.0000 O   0  0  0  0  0  0  0  0  0  0  0  0
   13.1201   -5.6560    0.0000 O   0  0  0  0  0  0  0  0  0  0  0  0
   12.4079   -6.0702    0.0000 C   0  0  0  0  0  0  0  0  0  0  0  0
   11.6937   -5.6594    0.0000 C   0  0  0  0  0  0  0  0  0  0  0  0
   12.4099   -6.8951    0.0000 O   0  0  0  0  0  0  0  0  0  0  0  0
   14.5434   -8.1338    0.0000 O   0  0  0  0  0  0  0  0  0  0  0  0
   17.1766   -8.4003    0.0000 C   0  0  0  0  0  0  0  0  0  0  0  0
   11.6957   -4.8350    0.0000 C   0  0  0  0  0  0  0  0  0  0  0  0
   10.9824   -4.4243    0.0000 N   0  0  0  0  0  0  0  0  0  0  0  0
   10.2685   -4.8375    0.0000 C   0  0  0  0  0  0  0  0  0  0  0  0
   10.2726   -5.6657    0.0000 C   0  0  0  0  0  0  0  0  0  0  0  0
   10.9865   -6.0725    0.0000 C   0  0  0  0  0  0  0  0  0  0  0  0
   14.5434   -6.4745    0.0000 C   0  0  0  0  0  0  0  0  0  0  0  0
 23 24  1  0
 24 25  2  0
  8 12  1  0
 25 26  1  0
 11 12  1  0
 26 27  2  0
  1  2  1  0
 27 28  1  0
 12 13  1  0
 28 29  2  0
 29 24  1  0
  1  4  1  0
  5 30  1  0
  7 14  1  0
 30 31  1  0
  2  3  1  0
 31 32  1  0
 14 15  1  0
 32 33  1  0
  3  6  1  0
 32 34  2  0
 15 16  1  0
  4 35  1  0
  5  4  1  0
 35 36  1  0
 16 17  2  0
 36 37  1  0
  5 10  1  0
 36 38  2  0
 17 18  1  0
  1 39  1  0
  6  7  1  0
 39 40  1  0
 18 19  2  0
 40 41  1  0
  7  8  1  0
 40 42  2  0
 19 20  1  0
  3 43  1  0
  8  9  1  0
 20 21  2  0
 12 44  1  0
 21 16  1  0
 41 45  2  0
  9 10  1  0
 45 46  1  0
 10 22  1  0
 46 47  2  0
  5  6  1  0
 47 48  1  0
 22 23  1  0
 48 49  2  0
 49 41  1  0
  6 11  1  0
  3 50  1  0
M  END
>  <Classification>  (47) 
1

>  <pchembl>  (47) 
6.24

>  <InChI_steorem>  (47) 
InChI=1S/C39H45NO10/c1-25(41)47-24-38-32(45-22-27-13-8-6-9-14-27)19-30-33(46-23-28-15-10-7-11-16-28)39(38,50-36(30,3)4)37(5,44)20-31(34(38)48-26(2)42)49-35(43)29-17-12-18-40-21-29/h6-18,21,30-34,44H,19-20,22-24H2,1-5H3

>  <source>  (47) 
ChEMBL25

>  <source_id>  (47) 
25

>  <optional_reference>  (47) 
10.1021/jm070290v

>  <optional_origin>  (47) 
None

>  <target>  (47) 
MDR1

$$$$

     RDKit          2D

 50 55  0  0  0  0  0  0  0  0999 V2000
    5.9773  -10.2310    0.0000 C   0  0  0  0  0  0  0  0  0  0  0  0
    5.9773  -11.0467    0.0000 C   0  0  0  0  0  0  0  0  0  0  0  0
    6.6819  -11.4477    0.0000 C   0  0  0  0  0  0  0  0  0  0  0  0
    6.6819   -9.8162    0.0000 C   0  0  0  0  0  0  0  0  0  0  0  0
    7.3864  -10.2310    0.0000 C   0  0  0  0  0  0  0  0  0  0  0  0
    7.3876  -11.0467    0.0000 C   0  0  0  0  0  0  0  0  0  0  0  0
    8.0880  -11.4468    0.0000 C   0  0  0  0  0  0  0  0  0  0  0  0
    8.8013  -11.0448    0.0000 C   0  0  0  0  0  0  0  0  0  0  0  0
    8.8002  -10.2291    0.0000 C   0  0  0  0  0  0  0  0  0  0  0  0
    8.0836   -9.8160    0.0000 C   0  0  0  0  0  0  0  0  0  0  0  0
    7.3783  -11.8532    0.0000 O   0  0  0  0  0  0  0  0  0  0  0  0
    8.7931  -11.8532    0.0000 C   0  0  0  0  0  0  0  0  0  0  0  0
    9.5720  -11.6366    0.0000 C   0  0  0  0  0  0  0  0  0  0  0  0
    9.1894  -12.5491    0.0000 C   0  0  0  0  0  0  0  0  0  0  0  0
    8.1187   -9.0053    0.0000 O   0  0  0  0  0  0  0  0  0  0  0  0
    7.3783   -9.4199    0.0000 C   0  0  0  0  0  0  0  0  0  0  0  0
    6.6807   -9.0052    0.0000 O   0  0  0  0  0  0  0  0  0  0  0  0
    5.2763   -9.8225    0.0000 O   0  0  0  0  0  0  0  0  0  0  0  0
    4.5728  -10.2344    0.0000 C   0  0  0  0  0  0  0  0  0  0  0  0
    3.8672   -9.8260    0.0000 C   0  0  0  0  0  0  0  0  0  0  0  0
    4.5736  -11.0594    0.0000 O   0  0  0  0  0  0  0  0  0  0  0  0
    5.9664   -8.5960    0.0000 C   0  0  0  0  0  0  0  0  0  0  0  0
    5.9652   -7.7710    0.0000 C   0  0  0  0  0  0  0  0  0  0  0  0
    8.8496   -8.6264    0.0000 C   0  0  0  0  0  0  0  0  0  0  0  0
    8.8853   -7.8022    0.0000 C   0  0  0  0  0  0  0  0  0  0  0  0
    5.2531   -7.3654    0.0000 C   0  0  0  0  0  0  0  0  0  0  0  0
    6.6816  -12.2772    0.0000 O   0  0  0  0  0  0  0  0  0  0  0  0
    5.2602  -11.4637    0.0000 O   0  0  0  0  0  0  0  0  0  0  0  0
    5.2490   -9.0125    0.0000 O   0  0  0  0  0  0  0  0  0  0  0  0
    5.2482   -6.5360    0.0000 C   0  0  0  0  0  0  0  0  0  0  0  0
    5.9653   -6.1186    0.0000 C   0  0  0  0  0  0  0  0  0  0  0  0
    5.9607   -5.2898    0.0000 C   0  0  0  0  0  0  0  0  0  0  0  0
    5.2394   -4.8785    0.0000 C   0  0  0  0  0  0  0  0  0  0  0  0
    4.5211   -5.3019    0.0000 C   0  0  0  0  0  0  0  0  0  0  0  0
    4.5291   -6.1293    0.0000 C   0  0  0  0  0  0  0  0  0  0  0  0
    9.6191   -7.4231    0.0000 C   0  0  0  0  0  0  0  0  0  0  0  0
    9.6551   -6.5996    0.0000 C   0  0  0  0  0  0  0  0  0  0  0  0
    8.9587   -6.1559    0.0000 C   0  0  0  0  0  0  0  0  0  0  0  0
    8.2246   -6.5413    0.0000 C   0  0  0  0  0  0  0  0  0  0  0  0
    8.1921   -7.3634    0.0000 C   0  0  0  0  0  0  0  0  0  0  0  0
    6.6732  -10.6181    0.0000 C   0  0  0  0  0  0  0  0  0  0  0  0
    9.5489   -9.0726    0.0000 O   0  0  0  0  0  0  0  0  0  0  0  0
    5.2628  -12.2932    0.0000 C   0  0  0  0  0  0  0  0  0  0  0  0
    4.5457  -12.7102    0.0000 C   0  0  0  0  0  0  0  0  0  0  0  0
    5.9824  -12.7058    0.0000 O   0  0  0  0  0  0  0  0  0  0  0  0
    3.8307  -12.2956    0.0000 C   0  0  0  0  0  0  0  0  0  0  0  0
    3.1141  -12.7119    0.0000 C   0  0  0  0  0  0  0  0  0  0  0  0
    3.1162  -13.5423    0.0000 C   0  0  0  0  0  0  0  0  0  0  0  0
    3.8410  -13.9546    0.0000 N   0  0  0  0  0  0  0  0  0  0  0  0
    4.5546  -13.5359    0.0000 C   0  0  0  0  0  0  0  0  0  0  0  0
 15 24  1  0
  8 12  1  0
 24 25  1  0
 11 12  1  0
 26 23  2  3
  1  2  1  0
  3 27  1  0
 12 13  1  0
  2 28  1  0
  1  4  1  0
 22 29  2  0
 12 14  1  0
 26 30  1  0
  2  3  1  0
 30 31  2  0
 10 15  1  0
 31 32  1  0
  3  6  1  0
 32 33  2  0
  5 16  1  0
 33 34  1  0
  5  4  1  0
 34 35  2  0
 35 30  1  0
  4 17  1  0
 25 36  2  0
  5 10  1  0
 36 37  1  0
  1 18  1  0
 37 38  2  0
  6  7  1  0
 38 39  1  0
 18 19  1  0
 39 40  2  0
 40 25  1  0
  7  8  1  0
  3 41  1  0
 19 20  1  0
 24 42  2  0
  8  9  1  0
 28 43  1  0
 19 21  2  0
 43 44  1  0
  9 10  1  0
 43 45  2  0
 17 22  1  0
 44 46  2  0
  5  6  1  0
 46 47  1  0
 22 23  1  0
 47 48  2  0
  6 11  1  0
 48 49  1  0
 49 50  2  0
 50 44  1  0
M  END
>  <Classification>  (48) 
1

>  <pchembl>  (48) 
5.68

>  <InChI_steorem>  (48) 
InChI=1S/C39H41NO10/c1-24(41)46-31-32(48-30(42)19-18-25-13-8-6-9-14-25)37(4)29(47-34(43)26-15-10-7-11-16-26)21-28-22-39(37,50-36(28,2)3)38(5,45)33(31)49-35(44)27-17-12-20-40-23-27/h6-20,23,28-29,31-33,45H,21-22H2,1-5H3

>  <source>  (48) 
ChEMBL25

>  <source_id>  (48) 
25

>  <optional_reference>  (48) 
10.1021/jm070290v

>  <optional_origin>  (48) 
None

>  <target>  (48) 
MDR1

$$$$

     RDKit          2D

 51 55  0  0  0  0  0  0  0  0999 V2000
    4.9797  -15.6498    0.0000 C   0  0  0  0  0  0  0  0  0  0  0  0
    4.9797  -16.4767    0.0000 C   0  0  0  0  0  0  0  0  0  0  0  0
    5.6946  -16.8854    0.0000 C   0  0  0  0  0  0  0  0  0  0  0  0
    5.6946  -15.2317    0.0000 C   0  0  0  0  0  0  0  0  0  0  0  0
    6.4093  -15.6498    0.0000 C   0  0  0  0  0  0  0  0  0  0  0  0
    6.4104  -16.4767    0.0000 C   0  0  0  0  0  0  0  0  0  0  0  0
    7.1212  -16.8845    0.0000 C   0  0  0  0  0  0  0  0  0  0  0  0
    7.8401  -16.4748    0.0000 C   0  0  0  0  0  0  0  0  0  0  0  0
    7.8390  -15.6479    0.0000 C   0  0  0  0  0  0  0  0  0  0  0  0
    7.1167  -15.2315    0.0000 C   0  0  0  0  0  0  0  0  0  0  0  0
    6.4012  -17.2942    0.0000 O   0  0  0  0  0  0  0  0  0  0  0  0
    7.8319  -17.2942    0.0000 C   0  0  0  0  0  0  0  0  0  0  0  0
    8.6215  -17.0759    0.0000 C   0  0  0  0  0  0  0  0  0  0  0  0
    8.2360  -18.0003    0.0000 C   0  0  0  0  0  0  0  0  0  0  0  0
    7.1210  -17.7067    0.0000 O   0  0  0  0  0  0  0  0  0  0  0  0
    7.5531  -14.5352    0.0000 O   0  0  0  0  0  0  0  0  0  0  0  0
    8.3748  -14.5619    0.0000 C   0  0  0  0  0  0  0  0  0  0  0  0
    8.7784  -13.8387    0.0000 C   0  0  0  0  0  0  0  0  0  0  0  0
    9.6015  -13.8419    0.0000 C   0  0  0  0  0  0  0  0  0  0  0  0
   10.0120  -13.1262    0.0000 C   0  0  0  0  0  0  0  0  0  0  0  0
    9.5991  -12.4142    0.0000 C   0  0  0  0  0  0  0  0  0  0  0  0
    8.7715  -12.4222    0.0000 C   0  0  0  0  0  0  0  0  0  0  0  0
    8.3662  -13.1319    0.0000 C   0  0  0  0  0  0  0  0  0  0  0  0
    6.4012  -14.8276    0.0000 C   0  0  0  0  0  0  0  0  0  0  0  0
    7.1072  -14.4071    0.0000 O   0  0  0  0  0  0  0  0  0  0  0  0
    7.1037  -13.5849    0.0000 C   0  0  0  0  0  0  0  0  0  0  0  0
    7.8097  -13.1690    0.0000 C   0  0  0  0  0  0  0  0  0  0  0  0
    6.3847  -13.1786    0.0000 O   0  0  0  0  0  0  0  0  0  0  0  0
    5.6934  -14.4095    0.0000 O   0  0  0  0  0  0  0  0  0  0  0  0
    4.9780  -14.0017    0.0000 C   0  0  0  0  0  0  0  0  0  0  0  0
    4.9768  -13.1749    0.0000 C   0  0  0  0  0  0  0  0  0  0  0  0
    4.2683  -14.4115    0.0000 O   0  0  0  0  0  0  0  0  0  0  0  0
    4.2685  -15.2381    0.0000 O   0  0  0  0  0  0  0  0  0  0  0  0
    3.5547  -15.6533    0.0000 C   0  0  0  0  0  0  0  0  0  0  0  0
    2.8434  -15.2416    0.0000 C   0  0  0  0  0  0  0  0  0  0  0  0
    3.5567  -16.4755    0.0000 O   0  0  0  0  0  0  0  0  0  0  0  0
    5.6858  -16.0632    0.0000 C   0  0  0  0  0  0  0  0  0  0  0  0
    5.6858  -17.7076    0.0000 O   0  0  0  0  0  0  0  0  0  0  0  0
    6.4109  -18.1201    0.0000 C   0  0  0  0  0  0  0  0  0  0  0  0
    6.4108  -18.9423    0.0000 O   0  0  0  0  0  0  0  0  0  0  0  0
    5.6161  -18.3255    0.0000 C   0  0  0  0  0  0  0  0  0  0  0  0
    8.5628  -15.2292    0.0000 O   0  0  0  0  0  0  0  0  0  0  0  0
    9.2872  -15.6465    0.0000 C   0  0  0  0  0  0  0  0  0  0  0  0
   10.0110  -15.2277    0.0000 C   0  0  0  0  0  0  0  0  0  0  0  0
   10.7343  -15.6481    0.0000 C   0  0  0  0  0  0  0  0  0  0  0  0
   11.4575  -15.2301    0.0000 C   0  0  0  0  0  0  0  0  0  0  0  0
   11.4572  -14.3930    0.0000 C   0  0  0  0  0  0  0  0  0  0  0  0
   10.7275  -13.9759    0.0000 C   0  0  0  0  0  0  0  0  0  0  0  0
   10.0073  -14.3964    0.0000 C   0  0  0  0  0  0  0  0  0  0  0  0
    9.1744  -14.7719    0.0000 O   0  0  0  0  0  0  0  0  0  0  0  0
    9.2881  -16.4826    0.0000 O   0  0  0  0  0  0  0  0  0  0  0  0
 24 25  1  0
  8 12  1  0
 25 26  1  0
 11 12  1  0
 26 27  1  0
  1  2  1  0
 26 28  2  0
 12 13  1  0
  4 29  1  0
  1  4  1  0
 29 30  1  0
 12 14  1  0
 30 31  1  0
  2  3  1  0
 30 32  2  0
  7 15  1  0
  1 33  1  0
  3  6  1  0
 33 34  1  0
 10 16  1  0
 34 35  1  0
  5  4  1  0
 34 36  2  0
 16 17  1  0
  3 37  1  0
  5 10  1  0
  3 38  1  0
 17 18  1  0
 15 39  1  0
  6  7  1  0
 39 40  2  0
 18 19  2  0
 39 41  1  0
  7  8  1  0
  9 42  1  0
 19 20  1  0
 42 43  1  0
  8  9  1  0
 43 44  1  0
 20 21  2  0
 44 45  2  0
  9 10  1  0
 45 46  1  0
 21 22  1  0
 46 47  2  0
  5  6  1  0
 47 48  1  0
 22 23  2  0
 48 49  2  0
 49 44  1  0
 23 18  1  0
 17 50  2  0
  6 11  1  0
 43 51  2  0
  5 24  1  0
M  END
>  <Classification>  (49) 
1

>  <pchembl>  (49) 
5.76

>  <InChI_steorem>  (49) 
InChI=1S/C37H42O14/c1-20(38)45-19-36-29(47-22(3)40)26(46-21(2)39)18-35(7,44)37(36)30(48-23(4)41)27(34(5,6)51-37)28(49-32(42)24-14-10-8-11-15-24)31(36)50-33(43)25-16-12-9-13-17-25/h8-17,26-31,44H,18-19H2,1-7H3

>  <source>  (49) 
ChEMBL25

>  <source_id>  (49) 
25

>  <optional_reference>  (49) 
10.1021/jm070290v

>  <optional_origin>  (49) 
None

>  <target>  (49) 
MDR1

$$$$

     RDKit          2D

 51 56  0  0  0  0  0  0  0  0999 V2000
    2.2781  -30.5565    0.0000 C   0  0  0  0  0  0  0  0  0  0  0  0
    2.2781  -31.3837    0.0000 C   0  0  0  0  0  0  0  0  0  0  0  0
    2.9932  -31.7926    0.0000 C   0  0  0  0  0  0  0  0  0  0  0  0
    2.9932  -30.1383    0.0000 C   0  0  0  0  0  0  0  0  0  0  0  0
    3.7084  -30.5565    0.0000 C   0  0  0  0  0  0  0  0  0  0  0  0
    3.7095  -31.3837    0.0000 C   0  0  0  0  0  0  0  0  0  0  0  0
    4.4205  -31.7917    0.0000 C   0  0  0  0  0  0  0  0  0  0  0  0
    5.1396  -31.3818    0.0000 C   0  0  0  0  0  0  0  0  0  0  0  0
    5.1386  -30.5546    0.0000 C   0  0  0  0  0  0  0  0  0  0  0  0
    4.4159  -30.1380    0.0000 C   0  0  0  0  0  0  0  0  0  0  0  0
    3.7001  -32.2016    0.0000 O   0  0  0  0  0  0  0  0  0  0  0  0
    5.1315  -32.2016    0.0000 C   0  0  0  0  0  0  0  0  0  0  0  0
    5.9215  -31.9832    0.0000 C   0  0  0  0  0  0  0  0  0  0  0  0
    5.5358  -32.9079    0.0000 C   0  0  0  0  0  0  0  0  0  0  0  0
    4.4204  -32.6142    0.0000 O   0  0  0  0  0  0  0  0  0  0  0  0
    4.4638  -29.3165    0.0000 O   0  0  0  0  0  0  0  0  0  0  0  0
    5.1964  -28.9428    0.0000 C   0  0  0  0  0  0  0  0  0  0  0  0
    5.2003  -28.1142    0.0000 C   0  0  0  0  0  0  0  0  0  0  0  0
    5.9227  -27.7192    0.0000 C   0  0  0  0  0  0  0  0  0  0  0  0
    5.9364  -26.8940    0.0000 C   0  0  0  0  0  0  0  0  0  0  0  0
    5.2307  -26.4698    0.0000 C   0  0  0  0  0  0  0  0  0  0  0  0
    4.5096  -26.8769    0.0000 C   0  0  0  0  0  0  0  0  0  0  0  0
    4.4977  -27.6944    0.0000 C   0  0  0  0  0  0  0  0  0  0  0  0
    3.7001  -29.7340    0.0000 C   0  0  0  0  0  0  0  0  0  0  0  0
    2.9921  -29.3157    0.0000 O   0  0  0  0  0  0  0  0  0  0  0  0
    2.2764  -28.9077    0.0000 C   0  0  0  0  0  0  0  0  0  0  0  0
    2.2752  -28.0806    0.0000 C   0  0  0  0  0  0  0  0  0  0  0  0
    1.5667  -30.1446    0.0000 O   0  0  0  0  0  0  0  0  0  0  0  0
    0.8525  -30.5600    0.0000 C   0  0  0  0  0  0  0  0  0  0  0  0
    0.1411  -30.1481    0.0000 C   0  0  0  0  0  0  0  0  0  0  0  0
    3.7098  -33.0278    0.0000 C   0  0  0  0  0  0  0  0  0  0  0  0
    3.7097  -33.8503    0.0000 O   0  0  0  0  0  0  0  0  0  0  0  0
    2.9148  -33.2332    0.0000 C   0  0  0  0  0  0  0  0  0  0  0  0
    5.8626  -30.1357    0.0000 O   0  0  0  0  0  0  0  0  0  0  0  0
    2.9934  -27.6696    0.0000 C   0  0  0  0  0  0  0  0  0  0  0  0
    2.9926  -26.8433    0.0000 C   0  0  0  0  0  0  0  0  0  0  0  0
    2.2751  -26.4299    0.0000 C   0  0  0  0  0  0  0  0  0  0  0  0
    1.5570  -26.8489    0.0000 C   0  0  0  0  0  0  0  0  0  0  0  0
    1.5612  -27.6739    0.0000 C   0  0  0  0  0  0  0  0  0  0  0  0
    0.1453  -29.3254    0.0000 C   0  0  0  0  0  0  0  0  0  0  0  0
   -0.5652  -28.9137    0.0000 N   0  0  0  0  0  0  0  0  0  0  0  0
   -1.2787  -29.3240    0.0000 C   0  0  0  0  0  0  0  0  0  0  0  0
   -1.2770  -30.1503    0.0000 C   0  0  0  0  0  0  0  0  0  0  0  0
   -0.5658  -30.5584    0.0000 C   0  0  0  0  0  0  0  0  0  0  0  0
    6.5874  -30.5531    0.0000 C   0  0  0  0  0  0  0  0  0  0  0  0
    7.3115  -30.1342    0.0000 C   0  0  0  0  0  0  0  0  0  0  0  0
    6.5883  -31.3896    0.0000 O   0  0  0  0  0  0  0  0  0  0  0  0
    0.8534  -31.3964    0.0000 O   0  0  0  0  0  0  0  0  0  0  0  0
    1.5535  -29.3285    0.0000 O   0  0  0  0  0  0  0  0  0  0  0  0
    5.9088  -29.3813    0.0000 O   0  0  0  0  0  0  0  0  0  0  0  0
    2.9930  -32.6291    0.0000 C   0  0  0  0  0  0  0  0  0  0  0  0
  4 25  1  0
  8 12  1  0
 25 26  1  0
 11 12  1  0
 26 27  1  0
  1  2  1  0
  1 28  1  0
 12 13  1  0
 28 29  1  0
  1  4  1  0
 29 30  1  0
 12 14  1  0
 15 31  1  0
  2  3  1  0
 31 32  2  0
  7 15  1  0
 31 33  1  0
  3  6  1  0
  9 34  1  0
 10 16  1  0
 27 35  2  0
  5  4  1  0
 35 36  1  0
 16 17  1  0
 36 37  2  0
  5 10  1  0
 37 38  1  0
 17 18  1  0
 38 39  2  0
 39 27  1  0
  6  7  1  0
 30 40  2  0
 18 19  2  0
 40 41  1  0
  7  8  1  0
 41 42  2  0
 19 20  1  0
 42 43  1  0
  8  9  1  0
 43 44  2  0
 44 30  1  0
 20 21  2  0
 34 45  1  0
  9 10  1  0
 45 46  1  0
 21 22  1  0
 45 47  2  0
  5  6  1  0
 29 48  2  0
 22 23  2  0
 26 49  2  0
 23 18  1  0
 17 50  2  0
  6 11  1  0
  3 51  1  0
  5 24  1  0
M  END
>  <Classification>  (50) 
1

>  <pchembl>  (50) 
5.11

>  <InChI_steorem>  (50) 
InChI=1S/C39H41NO11/c1-22-20-28(48-36(45)27-18-13-19-40-21-27)31(49-34(43)25-14-9-7-10-15-25)38(6)33(50-35(44)26-16-11-8-12-17-26)30(46-23(2)41)29-32(47-24(3)42)39(22,38)51-37(29,4)5/h7-19,21-22,28-33H,20H2,1-6H3

>  <source>  (50) 
ChEMBL25

>  <source_id>  (50) 
25

>  <optional_reference>  (50) 
10.1021/jm070290v

>  <optional_origin>  (50) 
None

>  <target>  (50) 
MDR1

$$$$

     RDKit          2D

 51 56  0  0  0  0  0  0  0  0999 V2000
    5.6506   -6.1975    0.0000 C   0  0  0  0  0  0  0  0  0  0  0  0
    5.6506   -7.0273    0.0000 C   0  0  0  0  0  0  0  0  0  0  0  0
    6.3685   -7.4398    0.0000 C   0  0  0  0  0  0  0  0  0  0  0  0
    6.3685   -5.7803    0.0000 C   0  0  0  0  0  0  0  0  0  0  0  0
    7.0865   -6.1975    0.0000 C   0  0  0  0  0  0  0  0  0  0  0  0
    7.0875   -7.0273    0.0000 C   0  0  0  0  0  0  0  0  0  0  0  0
    7.8013   -7.4389    0.0000 C   0  0  0  0  0  0  0  0  0  0  0  0
    8.5233   -7.0254    0.0000 C   0  0  0  0  0  0  0  0  0  0  0  0
    8.5223   -6.1957    0.0000 C   0  0  0  0  0  0  0  0  0  0  0  0
    7.7969   -5.7802    0.0000 C   0  0  0  0  0  0  0  0  0  0  0  0
    7.0782   -7.8477    0.0000 O   0  0  0  0  0  0  0  0  0  0  0  0
    8.5152   -7.8477    0.0000 C   0  0  0  0  0  0  0  0  0  0  0  0
    9.3079   -7.6345    0.0000 C   0  0  0  0  0  0  0  0  0  0  0  0
    8.9231   -8.5569    0.0000 C   0  0  0  0  0  0  0  0  0  0  0  0
    7.8012   -8.2639    0.0000 O   0  0  0  0  0  0  0  0  0  0  0  0
    7.0879   -8.6764    0.0000 C   0  0  0  0  0  0  0  0  0  0  0  0
    7.0878   -9.5016    0.0000 C   0  0  0  0  0  0  0  0  0  0  0  0
    6.3748   -9.9102    0.0000 C   0  0  0  0  0  0  0  0  0  0  0  0
    6.3743  -10.7345    0.0000 C   0  0  0  0  0  0  0  0  0  0  0  0
    7.0882  -11.1480    0.0000 C   0  0  0  0  0  0  0  0  0  0  0  0
    7.8039  -10.7311    0.0000 C   0  0  0  0  0  0  0  0  0  0  0  0
    7.8008   -9.9081    0.0000 C   0  0  0  0  0  0  0  0  0  0  0  0
    8.2323   -5.0805    0.0000 O   0  0  0  0  0  0  0  0  0  0  0  0
    9.0570   -5.1073    0.0000 C   0  0  0  0  0  0  0  0  0  0  0  0
    9.4462   -5.8337    0.0000 C   0  0  0  0  0  0  0  0  0  0  0  0
    9.0083   -6.5331    0.0000 C   0  0  0  0  0  0  0  0  0  0  0  0
    9.3968   -7.2589    0.0000 C   0  0  0  0  0  0  0  0  0  0  0  0
   10.2223   -7.2861    0.0000 C   0  0  0  0  0  0  0  0  0  0  0  0
   10.6578   -6.5815    0.0000 C   0  0  0  0  0  0  0  0  0  0  0  0
   10.2668   -5.8586    0.0000 C   0  0  0  0  0  0  0  0  0  0  0  0
    7.0782   -5.3724    0.0000 C   0  0  0  0  0  0  0  0  0  0  0  0
    7.7874   -4.9528    0.0000 O   0  0  0  0  0  0  0  0  0  0  0  0
    7.7792   -4.1277    0.0000 C   0  0  0  0  0  0  0  0  0  0  0  0
    8.4930   -3.7080    0.0000 C   0  0  0  0  0  0  0  0  0  0  0  0
    7.0619   -3.7223    0.0000 O   0  0  0  0  0  0  0  0  0  0  0  0
    6.3673   -4.9553    0.0000 O   0  0  0  0  0  0  0  0  0  0  0  0
    5.6488   -4.5436    0.0000 C   0  0  0  0  0  0  0  0  0  0  0  0
    5.6477   -3.7186    0.0000 C   0  0  0  0  0  0  0  0  0  0  0  0
    4.9360   -4.9573    0.0000 O   0  0  0  0  0  0  0  0  0  0  0  0
    4.9362   -5.7867    0.0000 O   0  0  0  0  0  0  0  0  0  0  0  0
    4.2239   -6.2010    0.0000 C   0  0  0  0  0  0  0  0  0  0  0  0
    3.5096   -5.7902    0.0000 C   0  0  0  0  0  0  0  0  0  0  0  0
    4.2259   -7.0260    0.0000 O   0  0  0  0  0  0  0  0  0  0  0  0
    3.5116   -4.9656    0.0000 C   0  0  0  0  0  0  0  0  0  0  0  0
    2.7980   -4.5549    0.0000 N   0  0  0  0  0  0  0  0  0  0  0  0
    2.0841   -4.9680    0.0000 C   0  0  0  0  0  0  0  0  0  0  0  0
    2.0881   -5.7964    0.0000 C   0  0  0  0  0  0  0  0  0  0  0  0
    2.8023   -6.2034    0.0000 C   0  0  0  0  0  0  0  0  0  0  0  0
    9.4971   -4.3985    0.0000 O   0  0  0  0  0  0  0  0  0  0  0  0
    6.3652   -8.2595    0.0000 C   0  0  0  0  0  0  0  0  0  0  0  0
    6.3643   -9.0854    0.0000 O   0  0  0  0  0  0  0  0  0  0  0  0
 24 25  1  0
  8 12  1  0
 25 26  2  0
 11 12  1  0
 26 27  1  0
  1  2  1  0
 27 28  2  0
 12 13  1  0
 28 29  1  0
  1  4  1  0
 29 30  2  0
 30 25  1  0
 12 14  1  0
  5 31  1  0
  2  3  1  0
 31 32  1  0
  7 15  1  0
 32 33  1  0
  3  6  1  0
 33 34  1  0
 15 16  1  0
 33 35  2  0
  5  4  1  0
  4 36  1  0
 16 17  1  0
 36 37  1  0
  5 10  1  0
 37 38  1  0
 17 18  2  0
 37 39  2  0
  6  7  1  0
  1 40  1  0
 18 19  1  0
 40 41  1  0
  7  8  1  0
 41 42  1  0
 19 20  2  0
 41 43  2  0
  3 50  1  0
  8  9  1  0
 42 44  2  0
 20 21  1  0
 44 45  1  0
  9 10  1  0
 45 46  2  0
 21 22  2  0
 46 47  1  0
 22 17  1  0
 47 48  2  0
 48 42  1  0
  5  6  1  0
 24 49  2  0
 10 23  1  0
  6 11  1  0
 16 51  2  0
 23 24  1  0
M  END
>  <Classification>  (51) 
1

>  <pchembl>  (51) 
6.15

>  <InChI_steorem>  (51) 
InChI=1S/C39H41NO11/c1-23-19-30(48-36(45)28-17-12-18-40-21-28)33(47-25(3)42)38(22-46-24(2)41)31(49-34(43)26-13-8-6-9-14-26)20-29-32(39(23,38)51-37(29,4)5)50-35(44)27-15-10-7-11-16-27/h6-18,21,23,29-33H,19-20,22H2,1-5H3

>  <source>  (51) 
ChEMBL25

>  <source_id>  (51) 
25

>  <optional_reference>  (51) 
10.1021/jm070290v

>  <optional_origin>  (51) 
None

>  <target>  (51) 
MDR1

$$$$

     RDKit          2D

 51 57  0  0  0  0  0  0  0  0999 V2000
    3.1808   -1.2442    0.0000 C   0  0  0  0  0  0  0  0  0  0  0  0
    3.1808   -2.0738    0.0000 C   0  0  0  0  0  0  0  0  0  0  0  0
    3.8953   -2.4863    0.0000 C   0  0  0  0  0  0  0  0  0  0  0  0
    3.8953   -0.8271    0.0000 C   0  0  0  0  0  0  0  0  0  0  0  0
    4.6143   -1.2442    0.0000 C   0  0  0  0  0  0  0  0  0  0  0  0
    4.6154   -2.0738    0.0000 C   0  0  0  0  0  0  0  0  0  0  0  0
    5.3304   -2.4853    0.0000 C   0  0  0  0  0  0  0  0  0  0  0  0
    6.0489   -2.0719    0.0000 C   0  0  0  0  0  0  0  0  0  0  0  0
    6.0478   -1.2423    0.0000 C   0  0  0  0  0  0  0  0  0  0  0  0
    5.3282   -0.8262    0.0000 C   0  0  0  0  0  0  0  0  0  0  0  0
    3.8942   -0.0021    0.0000 O   0  0  0  0  0  0  0  0  0  0  0  0
    3.1790    0.4094    0.0000 C   0  0  0  0  0  0  0  0  0  0  0  0
    3.1779    1.2344    0.0000 O   0  0  0  0  0  0  0  0  0  0  0  0
    2.4654   -0.8334    0.0000 O   0  0  0  0  0  0  0  0  0  0  0  0
    3.8867   -1.6613    0.0000 C   0  0  0  0  0  0  0  0  0  0  0  0
    4.6062   -2.8942    0.0000 O   0  0  0  0  0  0  0  0  0  0  0  0
    6.0408   -2.8942    0.0000 C   0  0  0  0  0  0  0  0  0  0  0  0
    6.2517   -3.6871    0.0000 C   0  0  0  0  0  0  0  0  0  0  0  0
    6.8337   -2.6788    0.0000 C   0  0  0  0  0  0  0  0  0  0  0  0
    4.6062   -0.4192    0.0000 C   0  0  0  0  0  0  0  0  0  0  0  0
    5.3260   -0.0012    0.0000 O   0  0  0  0  0  0  0  0  0  0  0  0
    6.0395    0.4132    0.0000 C   0  0  0  0  0  0  0  0  0  0  0  0
    6.0373    1.2382    0.0000 O   0  0  0  0  0  0  0  0  0  0  0  0
    6.7549    0.0018    0.0000 C   0  0  0  0  0  0  0  0  0  0  0  0
    6.8434   -0.8184    0.0000 C   0  0  0  0  0  0  0  0  0  0  0  0
    7.6508   -0.9878    0.0000 C   0  0  0  0  0  0  0  0  0  0  0  0
    8.0614   -0.2721    0.0000 C   0  0  0  0  0  0  0  0  0  0  0  0
    7.5076    0.3394    0.0000 O   0  0  0  0  0  0  0  0  0  0  0  0
    5.3303   -3.3103    0.0000 O   0  0  0  0  0  0  0  0  0  0  0  0
    2.4634   -0.0084    0.0000 C   0  0  0  0  0  0  0  0  0  0  0  0
    1.7519   -1.2476    0.0000 C   0  0  0  0  0  0  0  0  0  0  0  0
    1.0364   -0.8369    0.0000 C   0  0  0  0  0  0  0  0  0  0  0  0
    1.7539   -2.0726    0.0000 O   0  0  0  0  0  0  0  0  0  0  0  0
    3.9013   -3.3102    0.0000 O   0  0  0  0  0  0  0  0  0  0  0  0
    4.9087   -4.0171    0.0000 C   0  0  0  0  0  0  0  0  0  0  0  0
    5.3095   -4.7305    0.0000 C   0  0  0  0  0  0  0  0  0  0  0  0
    1.0336   -0.0113    0.0000 C   0  0  0  0  0  0  0  0  0  0  0  0
    0.3189    0.3994    0.0000 C   0  0  0  0  0  0  0  0  0  0  0  0
   -0.3879   -0.0148    0.0000 C   0  0  0  0  0  0  0  0  0  0  0  0
   -0.3841   -0.8441    0.0000 C   0  0  0  0  0  0  0  0  0  0  0  0
    0.3243   -1.2510    0.0000 C   0  0  0  0  0  0  0  0  0  0  0  0
    4.0858   -4.0064    0.0000 O   0  0  0  0  0  0  0  0  0  0  0  0
    6.1080   -6.1550    0.0000 C   0  0  0  0  0  0  0  0  0  0  0  0
    6.5254   -5.4462    0.0000 C   0  0  0  0  0  0  0  0  0  0  0  0
    6.1229   -4.7362    0.0000 C   0  0  0  0  0  0  0  0  0  0  0  0
    5.2890   -6.1450    0.0000 C   0  0  0  0  0  0  0  0  0  0  0  0
    4.8925   -5.4307    0.0000 C   0  0  0  0  0  0  0  0  0  0  0  0
    4.0775   -5.4179    0.0000 C   0  0  0  0  0  0  0  0  0  0  0  0
    3.6580   -6.1187    0.0000 C   0  0  0  0  0  0  0  0  0  0  0  0
    4.0595   -6.8338    0.0000 C   0  0  0  0  0  0  0  0  0  0  0  0
    4.8732   -6.8430    0.0000 C   0  0  0  0  0  0  0  0  0  0  0  0
 27 28  1  0
 28 24  1  0
 22 24  1  0
  1  4  1  0
  7 29  1  0
  1 14  1  0
  2  3  1  0
 14 31  1  0
  3 15  1  0
 31 32  1  0
  3  6  1  0
 31 33  2  0
  3 34  1  0
  6 16  1  0
  5  4  1  0
 29 35  1  0
  8 17  1  0
 16 17  1  0
  5 10  1  0
 36 35  1  0
 17 18  1  0
  6  7  1  0
 17 19  1  0
  7  8  1  0
  8  9  1  0
  5 20  1  0
 32 37  2  0
  9 10  1  0
 37 38  1  0
 10 21  1  0
 38 39  2  0
  5  6  1  0
 39 40  1  0
 21 22  1  0
 40 41  2  0
 41 32  1  0
 35 42  2  0
 36 47  2  0
  4 11  1  0
 46 43  2  0
 22 23  2  0
 43 44  1  0
 24 25  2  0
 44 45  2  0
 45 36  1  0
 11 12  1  0
  1  2  1  0
 46 47  1  0
 12 13  2  0
 47 48  1  0
 12 30  1  0
 48 49  2  0
 25 26  1  0
 49 50  1  0
 26 27  2  0
 50 51  2  0
 51 46  1  0
M  END
>  <Classification>  (52) 
1

>  <pchembl>  (52) 
5.34

>  <InChI_steorem>  (52) 
InChI=1S/C40H40O11/c1-23(41)47-33-30(48-34(42)25-14-7-6-8-15-25)22-38(4,45)40-32(50-35(43)27-18-11-16-24-13-9-10-17-26(24)27)28(37(2,3)51-40)21-31(39(33,40)5)49-36(44)29-19-12-20-46-29/h6-20,28,30-33,45H,21-22H2,1-5H3

>  <source>  (52) 
ChEMBL25

>  <source_id>  (52) 
25

>  <optional_reference>  (52) 
10.1021/jm070290v

>  <optional_origin>  (52) 
None

>  <target>  (52) 
MDR1

$$$$

     RDKit          2D

 52 56  0  0  0  0  0  0  0  0999 V2000
   12.0948   -4.9406    0.0000 C   0  0  0  0  0  0  0  0  0  0  0  0
   12.0948   -5.7701    0.0000 C   0  0  0  0  0  0  0  0  0  0  0  0
   12.8093   -6.1826    0.0000 C   0  0  0  0  0  0  0  0  0  0  0  0
   12.8093   -4.5235    0.0000 C   0  0  0  0  0  0  0  0  0  0  0  0
   13.5283   -4.9406    0.0000 C   0  0  0  0  0  0  0  0  0  0  0  0
   13.5294   -5.7701    0.0000 C   0  0  0  0  0  0  0  0  0  0  0  0
   14.2443   -6.1817    0.0000 C   0  0  0  0  0  0  0  0  0  0  0  0
   14.9628   -5.7683    0.0000 C   0  0  0  0  0  0  0  0  0  0  0  0
   14.9617   -4.9388    0.0000 C   0  0  0  0  0  0  0  0  0  0  0  0
   14.2422   -4.5227    0.0000 C   0  0  0  0  0  0  0  0  0  0  0  0
   12.8081   -3.6986    0.0000 O   0  0  0  0  0  0  0  0  0  0  0  0
   12.0932   -3.2871    0.0000 C   0  0  0  0  0  0  0  0  0  0  0  0
   12.0919   -2.4621    0.0000 O   0  0  0  0  0  0  0  0  0  0  0  0
   11.3794   -4.5298    0.0000 O   0  0  0  0  0  0  0  0  0  0  0  0
   12.8006   -5.3576    0.0000 C   0  0  0  0  0  0  0  0  0  0  0  0
   13.5202   -6.5906    0.0000 O   0  0  0  0  0  0  0  0  0  0  0  0
   14.9547   -6.5906    0.0000 C   0  0  0  0  0  0  0  0  0  0  0  0
   15.1655   -7.3834    0.0000 C   0  0  0  0  0  0  0  0  0  0  0  0
   15.7476   -6.3751    0.0000 C   0  0  0  0  0  0  0  0  0  0  0  0
   13.5202   -4.1157    0.0000 C   0  0  0  0  0  0  0  0  0  0  0  0
   14.2400   -3.6977    0.0000 O   0  0  0  0  0  0  0  0  0  0  0  0
   14.9534   -3.2832    0.0000 C   0  0  0  0  0  0  0  0  0  0  0  0
   14.9512   -2.4583    0.0000 O   0  0  0  0  0  0  0  0  0  0  0  0
   15.6688   -3.6946    0.0000 C   0  0  0  0  0  0  0  0  0  0  0  0
   15.7572   -4.5148    0.0000 C   0  0  0  0  0  0  0  0  0  0  0  0
   16.5647   -4.6842    0.0000 C   0  0  0  0  0  0  0  0  0  0  0  0
   16.9753   -3.9686    0.0000 C   0  0  0  0  0  0  0  0  0  0  0  0
   16.4216   -3.3572    0.0000 O   0  0  0  0  0  0  0  0  0  0  0  0
   14.2442   -7.0067    0.0000 O   0  0  0  0  0  0  0  0  0  0  0  0
   11.3774   -3.7048    0.0000 C   0  0  0  0  0  0  0  0  0  0  0  0
   10.6660   -4.9440    0.0000 C   0  0  0  0  0  0  0  0  0  0  0  0
    9.9506   -4.5332    0.0000 C   0  0  0  0  0  0  0  0  0  0  0  0
   10.6680   -5.7690    0.0000 O   0  0  0  0  0  0  0  0  0  0  0  0
   12.8154   -7.0066    0.0000 O   0  0  0  0  0  0  0  0  0  0  0  0
    9.9519   -3.7077    0.0000 C   0  0  0  0  0  0  0  0  0  0  0  0
    9.2374   -3.2970    0.0000 C   0  0  0  0  0  0  0  0  0  0  0  0
    8.5228   -3.7113    0.0000 C   0  0  0  0  0  0  0  0  0  0  0  0
    8.5276   -4.5405    0.0000 C   0  0  0  0  0  0  0  0  0  0  0  0
    9.2426   -4.9475    0.0000 C   0  0  0  0  0  0  0  0  0  0  0  0
   13.8227   -7.7134    0.0000 C   0  0  0  0  0  0  0  0  0  0  0  0
   12.9978   -7.7016    0.0000 C   0  0  0  0  0  0  0  0  0  0  0  0
   14.2250   -8.4336    0.0000 O   0  0  0  0  0  0  0  0  0  0  0  0
   12.5752   -8.4101    0.0000 C   0  0  0  0  0  0  0  0  0  0  0  0
   11.7503   -8.3983    0.0000 C   0  0  0  0  0  0  0  0  0  0  0  0
   11.3277   -9.1069    0.0000 C   0  0  0  0  0  0  0  0  0  0  0  0
   10.5029   -9.0951    0.0000 C   0  0  0  0  0  0  0  0  0  0  0  0
   10.0803   -9.8036    0.0000 C   0  0  0  0  0  0  0  0  0  0  0  0
    9.2553   -9.7918    0.0000 C   0  0  0  0  0  0  0  0  0  0  0  0
    8.8327  -10.5003    0.0000 C   0  0  0  0  0  0  0  0  0  0  0  0
    8.0078  -10.4886    0.0000 C   0  0  0  0  0  0  0  0  0  0  0  0
    7.5852  -11.1970    0.0000 C   0  0  0  0  0  0  0  0  0  0  0  0
    6.7604  -11.1854    0.0000 C   0  0  0  0  0  0  0  0  0  0  0  0
 11 12  1  0
  1  2  1  0
 12 13  2  0
 12 30  1  0
 25 26  1  0
 26 27  2  0
 27 28  1  0
 28 24  1  0
 22 24  1  0
  1  4  1  0
  7 29  1  0
  1 14  1  0
  2  3  1  0
 14 31  1  0
  3 15  1  0
 31 32  1  0
  3  6  1  0
 31 33  2  0
  3 34  1  0
  6 16  1  0
  5  4  1  0
 32 35  2  0
  8 17  1  0
 35 36  1  0
 16 17  1  0
 36 37  2  0
  5 10  1  0
 37 38  1  0
 17 18  1  0
 38 39  2  0
 39 32  1  0
  6  7  1  0
 29 40  1  0
 17 19  1  0
 40 41  1  0
  7  8  1  0
 40 42  2  0
 41 43  1  0
  8  9  1  0
 43 44  1  0
  5 20  1  0
 44 45  1  0
  9 10  1  0
 45 46  1  0
 10 21  1  0
 46 47  1  0
  5  6  1  0
 47 48  1  0
 21 22  1  0
 48 49  1  0
  4 11  1  0
 49 50  1  0
 22 23  2  0
 50 51  1  0
 24 25  2  0
 51 52  1  0
M  END
>  <Classification>  (53) 
1

>  <pchembl>  (53) 
5.29

>  <InChI_steorem>  (53) 
InChI=1S/C41H56O11/c1-7-8-9-10-11-12-13-14-18-23-33(43)51-34-29-25-32(50-37(45)30-22-19-24-47-30)40(6)35(48-27(2)42)31(49-36(44)28-20-16-15-17-21-28)26-39(5,46)41(34,40)52-38(29,3)4/h15-17,19-22,24,29,31-32,34-35,46H,7-14,18,23,25-26H2,1-6H3

>  <source>  (53) 
ChEMBL25

>  <source_id>  (53) 
25

>  <optional_reference>  (53) 
10.1021/jm070290v

>  <optional_origin>  (53) 
None

>  <target>  (53) 
MDR1

$$$$

     RDKit          2D

 52 57  0  0  0  0  0  0  0  0999 V2000
   15.1769  -24.3640    0.0000 C   0  0  0  0  0  0  0  0  0  0  0  0
   15.1769  -25.1925    0.0000 C   0  0  0  0  0  0  0  0  0  0  0  0
   15.8931  -25.6020    0.0000 C   0  0  0  0  0  0  0  0  0  0  0  0
   15.8931  -23.9452    0.0000 C   0  0  0  0  0  0  0  0  0  0  0  0
   16.6093  -24.3640    0.0000 C   0  0  0  0  0  0  0  0  0  0  0  0
   16.6103  -25.1925    0.0000 C   0  0  0  0  0  0  0  0  0  0  0  0
   17.3224  -25.6011    0.0000 C   0  0  0  0  0  0  0  0  0  0  0  0
   18.0427  -25.1906    0.0000 C   0  0  0  0  0  0  0  0  0  0  0  0
   18.0416  -24.3621    0.0000 C   0  0  0  0  0  0  0  0  0  0  0  0
   17.3179  -23.9449    0.0000 C   0  0  0  0  0  0  0  0  0  0  0  0
   16.6010  -26.0116    0.0000 O   0  0  0  0  0  0  0  0  0  0  0  0
   18.0345  -26.0116    0.0000 C   0  0  0  0  0  0  0  0  0  0  0  0
   18.8257  -25.7929    0.0000 C   0  0  0  0  0  0  0  0  0  0  0  0
   18.4394  -26.7189    0.0000 C   0  0  0  0  0  0  0  0  0  0  0  0
   17.3223  -26.4248    0.0000 O   0  0  0  0  0  0  0  0  0  0  0  0
   17.3657  -23.1222    0.0000 O   0  0  0  0  0  0  0  0  0  0  0  0
   18.0996  -22.7479    0.0000 C   0  0  0  0  0  0  0  0  0  0  0  0
   18.1035  -21.9181    0.0000 C   0  0  0  0  0  0  0  0  0  0  0  0
   18.8269  -21.5224    0.0000 C   0  0  0  0  0  0  0  0  0  0  0  0
   18.8406  -20.6960    0.0000 C   0  0  0  0  0  0  0  0  0  0  0  0
   18.1338  -20.2712    0.0000 C   0  0  0  0  0  0  0  0  0  0  0  0
   17.4116  -20.6789    0.0000 C   0  0  0  0  0  0  0  0  0  0  0  0
   17.3998  -21.4976    0.0000 C   0  0  0  0  0  0  0  0  0  0  0  0
   16.6010  -23.5402    0.0000 C   0  0  0  0  0  0  0  0  0  0  0  0
   15.8919  -23.1214    0.0000 O   0  0  0  0  0  0  0  0  0  0  0  0
   15.1751  -22.7128    0.0000 C   0  0  0  0  0  0  0  0  0  0  0  0
   15.1740  -21.8844    0.0000 C   0  0  0  0  0  0  0  0  0  0  0  0
   14.4644  -23.9515    0.0000 O   0  0  0  0  0  0  0  0  0  0  0  0
   13.7492  -24.3675    0.0000 C   0  0  0  0  0  0  0  0  0  0  0  0
   13.0367  -23.9550    0.0000 C   0  0  0  0  0  0  0  0  0  0  0  0
   15.8843  -24.7782    0.0000 C   0  0  0  0  0  0  0  0  0  0  0  0
   15.8843  -26.4257    0.0000 O   0  0  0  0  0  0  0  0  0  0  0  0
   16.6108  -26.8390    0.0000 C   0  0  0  0  0  0  0  0  0  0  0  0
   16.6106  -27.6628    0.0000 O   0  0  0  0  0  0  0  0  0  0  0  0
   15.8145  -27.0448    0.0000 C   0  0  0  0  0  0  0  0  0  0  0  0
   18.7667  -23.9426    0.0000 O   0  0  0  0  0  0  0  0  0  0  0  0
   15.8932  -21.4728    0.0000 C   0  0  0  0  0  0  0  0  0  0  0  0
   15.8923  -20.6453    0.0000 C   0  0  0  0  0  0  0  0  0  0  0  0
   15.1738  -20.2312    0.0000 C   0  0  0  0  0  0  0  0  0  0  0  0
   14.4545  -20.6509    0.0000 C   0  0  0  0  0  0  0  0  0  0  0  0
   14.4589  -21.4772    0.0000 C   0  0  0  0  0  0  0  0  0  0  0  0
   13.0409  -23.1311    0.0000 C   0  0  0  0  0  0  0  0  0  0  0  0
   12.3292  -22.7187    0.0000 C   0  0  0  0  0  0  0  0  0  0  0  0
   11.6148  -23.1296    0.0000 C   0  0  0  0  0  0  0  0  0  0  0  0
   11.6164  -23.9572    0.0000 C   0  0  0  0  0  0  0  0  0  0  0  0
   12.3287  -24.3659    0.0000 C   0  0  0  0  0  0  0  0  0  0  0  0
   19.4927  -24.3607    0.0000 C   0  0  0  0  0  0  0  0  0  0  0  0
   20.2177  -23.9411    0.0000 C   0  0  0  0  0  0  0  0  0  0  0  0
   19.4934  -25.1984    0.0000 O   0  0  0  0  0  0  0  0  0  0  0  0
   13.7501  -25.2052    0.0000 O   0  0  0  0  0  0  0  0  0  0  0  0
   14.4511  -23.1342    0.0000 O   0  0  0  0  0  0  0  0  0  0  0  0
   18.8130  -23.1871    0.0000 O   0  0  0  0  0  0  0  0  0  0  0  0
  4 25  1  0
  8 12  1  0
 25 26  1  0
 11 12  1  0
 26 27  1  0
  1  2  1  0
  1 28  1  0
 12 13  1  0
 28 29  1  0
  1  4  1  0
 29 30  1  0
 12 14  1  0
  3 31  1  0
  2  3  1  0
  3 32  1  0
  7 15  1  0
 15 33  1  0
  3  6  1  0
 33 34  2  0
 10 16  1  0
 33 35  1  0
  5  4  1  0
  9 36  1  0
 16 17  1  0
 27 37  2  0
  5 10  1  0
 37 38  1  0
 17 18  1  0
 38 39  2  0
  6  7  1  0
 39 40  1  0
 18 19  2  0
 40 41  2  0
 41 27  1  0
  7  8  1  0
 30 42  2  0
 19 20  1  0
 42 43  1  0
  8  9  1  0
 43 44  2  0
 20 21  2  0
 44 45  1  0
  9 10  1  0
 45 46  2  0
 46 30  1  0
 21 22  1  0
 36 47  1  0
  5  6  1  0
 47 48  1  0
 22 23  2  0
 47 49  2  0
 23 18  1  0
 29 50  2  0
  6 11  1  0
 26 51  2  0
  5 24  1  0
 17 52  2  0
M  END
>  <Classification>  (54) 
0

>  <pchembl>  (54) 
4.95

>  <InChI_steorem>  (54) 
InChI=1S/C40H42O12/c1-23(41)47-30-29-32(48-24(2)42)40(52-37(29,3)4)38(5,46)22-28(49-34(43)25-16-10-7-11-17-25)31(50-35(44)26-18-12-8-13-19-26)39(40,6)33(30)51-36(45)27-20-14-9-15-21-27/h7-21,28-33,46H,22H2,1-6H3

>  <source>  (54) 
ChEMBL25

>  <source_id>  (54) 
25

>  <optional_reference>  (54) 
10.1021/jm070290v

>  <optional_origin>  (54) 
None

>  <target>  (54) 
MDR1

$$$$

     RDKit          2D

 52 57  0  0  0  0  0  0  0  0999 V2000
   22.2986   -9.9499    0.0000 C   0  0  0  0  0  0  0  0  0  0  0  0
   22.2986  -10.7664    0.0000 C   0  0  0  0  0  0  0  0  0  0  0  0
   23.0038  -11.1677    0.0000 C   0  0  0  0  0  0  0  0  0  0  0  0
   23.0038   -9.5348    0.0000 C   0  0  0  0  0  0  0  0  0  0  0  0
   23.7090   -9.9499    0.0000 C   0  0  0  0  0  0  0  0  0  0  0  0
   23.7101  -10.7664    0.0000 C   0  0  0  0  0  0  0  0  0  0  0  0
   24.4112  -11.1668    0.0000 C   0  0  0  0  0  0  0  0  0  0  0  0
   25.1252  -10.7645    0.0000 C   0  0  0  0  0  0  0  0  0  0  0  0
   25.1241   -9.9480    0.0000 C   0  0  0  0  0  0  0  0  0  0  0  0
   24.4068   -9.5345    0.0000 C   0  0  0  0  0  0  0  0  0  0  0  0
   23.7008  -11.5737    0.0000 O   0  0  0  0  0  0  0  0  0  0  0  0
   25.1170  -11.5737    0.0000 C   0  0  0  0  0  0  0  0  0  0  0  0
   25.8966  -11.3568    0.0000 C   0  0  0  0  0  0  0  0  0  0  0  0
   25.5137  -12.2702    0.0000 C   0  0  0  0  0  0  0  0  0  0  0  0
   24.4419   -8.7231    0.0000 O   0  0  0  0  0  0  0  0  0  0  0  0
   23.7008   -9.1381    0.0000 C   0  0  0  0  0  0  0  0  0  0  0  0
   23.0026   -8.7229    0.0000 O   0  0  0  0  0  0  0  0  0  0  0  0
   21.5969   -9.5411    0.0000 O   0  0  0  0  0  0  0  0  0  0  0  0
   20.8927   -9.9534    0.0000 C   0  0  0  0  0  0  0  0  0  0  0  0
   20.1865   -9.5445    0.0000 C   0  0  0  0  0  0  0  0  0  0  0  0
   20.8936  -10.7791    0.0000 O   0  0  0  0  0  0  0  0  0  0  0  0
   22.2876   -8.3134    0.0000 C   0  0  0  0  0  0  0  0  0  0  0  0
   22.2864   -7.4877    0.0000 C   0  0  0  0  0  0  0  0  0  0  0  0
   25.1736   -8.3439    0.0000 C   0  0  0  0  0  0  0  0  0  0  0  0
   25.2092   -7.5189    0.0000 C   0  0  0  0  0  0  0  0  0  0  0  0
   25.8735   -8.7905    0.0000 O   0  0  0  0  0  0  0  0  0  0  0  0
   23.0032   -7.0775    0.0000 C   0  0  0  0  0  0  0  0  0  0  0  0
   23.0023   -6.2525    0.0000 C   0  0  0  0  0  0  0  0  0  0  0  0
   22.2862   -5.8399    0.0000 C   0  0  0  0  0  0  0  0  0  0  0  0
   21.5693   -6.2581    0.0000 C   0  0  0  0  0  0  0  0  0  0  0  0
   21.5736   -7.0817    0.0000 C   0  0  0  0  0  0  0  0  0  0  0  0
   21.5807  -11.1838    0.0000 O   0  0  0  0  0  0  0  0  0  0  0  0
   21.5834  -12.0141    0.0000 C   0  0  0  0  0  0  0  0  0  0  0  0
   22.3037  -12.4270    0.0000 O   0  0  0  0  0  0  0  0  0  0  0  0
   20.8656  -12.4315    0.0000 C   0  0  0  0  0  0  0  0  0  0  0  0
   21.5696   -8.7302    0.0000 O   0  0  0  0  0  0  0  0  0  0  0  0
   20.1499  -12.0164    0.0000 C   0  0  0  0  0  0  0  0  0  0  0  0
   19.4327  -12.4331    0.0000 C   0  0  0  0  0  0  0  0  0  0  0  0
   19.4348  -13.2643    0.0000 C   0  0  0  0  0  0  0  0  0  0  0  0
   20.1602  -13.6770    0.0000 N   0  0  0  0  0  0  0  0  0  0  0  0
   20.8745  -13.2579    0.0000 C   0  0  0  0  0  0  0  0  0  0  0  0
   23.0034  -11.9980    0.0000 O   0  0  0  0  0  0  0  0  0  0  0  0
   22.9950  -10.3374    0.0000 C   0  0  0  0  0  0  0  0  0  0  0  0
   24.4088  -11.9971    0.0000 O   0  0  0  0  0  0  0  0  0  0  0  0
   23.6885  -12.4102    0.0000 C   0  0  0  0  0  0  0  0  0  0  0  0
   23.6862  -13.2405    0.0000 O   0  0  0  0  0  0  0  0  0  0  0  0
   22.8843  -12.6208    0.0000 C   0  0  0  0  0  0  0  0  0  0  0  0
   25.9438   -7.1394    0.0000 C   0  0  0  0  0  0  0  0  0  0  0  0
   25.9797   -6.3151    0.0000 C   0  0  0  0  0  0  0  0  0  0  0  0
   25.2827   -5.8710    0.0000 C   0  0  0  0  0  0  0  0  0  0  0  0
   24.5479   -6.2568    0.0000 C   0  0  0  0  0  0  0  0  0  0  0  0
   24.5154   -7.0797    0.0000 C   0  0  0  0  0  0  0  0  0  0  0  0
  8 12  1  0
 24 25  1  0
 11 12  1  0
 24 26  2  0
  1  2  1  0
 23 27  2  0
 12 13  1  0
 27 28  1  0
  1  4  1  0
 28 29  2  0
 12 14  1  0
 29 30  1  0
  2  3  1  0
 30 31  2  0
 31 23  1  0
 10 15  1  0
  2 32  1  0
  3  6  1  0
 32 33  1  0
  5 16  1  0
 33 34  2  0
  5  4  1  0
 33 35  1  0
  4 17  1  0
 22 36  2  0
  5 10  1  0
 35 37  2  0
  1 18  1  0
 37 38  1  0
  6  7  1  0
 38 39  2  0
 18 19  1  0
 39 40  1  0
  7  8  1  0
 40 41  2  0
 41 35  1  0
 19 20  1  0
  3 42  1  0
  8  9  1  0
  3 43  1  0
 19 21  2  0
  7 44  1  0
  9 10  1  0
 44 45  1  0
 17 22  1  0
 45 46  2  0
  5  6  1  0
 45 47  1  0
 22 23  1  0
 25 48  2  0
  6 11  1  0
 48 49  1  0
 49 50  2  0
 50 51  1  0
 15 24  1  0
 51 52  2  0
 52 25  1  0
M  END
>  <Classification>  (55) 
1

>  <pchembl>  (55) 
5.43

>  <InChI_steorem>  (55) 
InChI=1S/C39H41NO12/c1-22(41)47-29-31(50-34(44)25-16-11-8-12-17-25)37(5)28(49-33(43)24-14-9-7-10-15-24)20-27-30(48-23(2)42)39(37,52-36(27,3)4)38(6,46)32(29)51-35(45)26-18-13-19-40-21-26/h7-19,21,27-32,46H,20H2,1-6H3

>  <source>  (55) 
ChEMBL25

>  <source_id>  (55) 
25

>  <optional_reference>  (55) 
10.1021/jm070290v

>  <optional_origin>  (55) 
None

>  <target>  (55) 
MDR1

$$$$

     RDKit          2D

 52 57  0  0  0  0  0  0  0  0999 V2000
   -3.3996  -25.8781    0.0000 C   0  0  0  0  0  0  0  0  0  0  0  0
   -3.3996  -26.6946    0.0000 C   0  0  0  0  0  0  0  0  0  0  0  0
   -2.6944  -27.0959    0.0000 C   0  0  0  0  0  0  0  0  0  0  0  0
   -2.6944  -25.4629    0.0000 C   0  0  0  0  0  0  0  0  0  0  0  0
   -1.9892  -25.8781    0.0000 C   0  0  0  0  0  0  0  0  0  0  0  0
   -1.9881  -26.6946    0.0000 C   0  0  0  0  0  0  0  0  0  0  0  0
   -1.2870  -27.0950    0.0000 C   0  0  0  0  0  0  0  0  0  0  0  0
   -0.5730  -26.6927    0.0000 C   0  0  0  0  0  0  0  0  0  0  0  0
   -0.5741  -25.8762    0.0000 C   0  0  0  0  0  0  0  0  0  0  0  0
   -1.2914  -25.4627    0.0000 C   0  0  0  0  0  0  0  0  0  0  0  0
   -1.9974  -27.5019    0.0000 O   0  0  0  0  0  0  0  0  0  0  0  0
   -0.5812  -27.5019    0.0000 C   0  0  0  0  0  0  0  0  0  0  0  0
    0.1984  -27.2850    0.0000 C   0  0  0  0  0  0  0  0  0  0  0  0
   -0.1846  -28.1983    0.0000 C   0  0  0  0  0  0  0  0  0  0  0  0
   -1.2563  -24.6512    0.0000 O   0  0  0  0  0  0  0  0  0  0  0  0
   -1.9974  -25.0663    0.0000 C   0  0  0  0  0  0  0  0  0  0  0  0
   -2.6956  -24.6511    0.0000 O   0  0  0  0  0  0  0  0  0  0  0  0
   -4.1013  -25.4693    0.0000 O   0  0  0  0  0  0  0  0  0  0  0  0
   -4.8055  -25.8815    0.0000 C   0  0  0  0  0  0  0  0  0  0  0  0
   -5.5117  -25.4727    0.0000 C   0  0  0  0  0  0  0  0  0  0  0  0
    0.1399  -25.4604    0.0000 O   0  0  0  0  0  0  0  0  0  0  0  0
   -4.8046  -26.7073    0.0000 O   0  0  0  0  0  0  0  0  0  0  0  0
   -3.4106  -24.2416    0.0000 C   0  0  0  0  0  0  0  0  0  0  0  0
   -3.4118  -23.4158    0.0000 C   0  0  0  0  0  0  0  0  0  0  0  0
   -0.5246  -24.2721    0.0000 C   0  0  0  0  0  0  0  0  0  0  0  0
   -0.4890  -23.4471    0.0000 C   0  0  0  0  0  0  0  0  0  0  0  0
   -2.6950  -23.0057    0.0000 C   0  0  0  0  0  0  0  0  0  0  0  0
   -2.6959  -22.1807    0.0000 C   0  0  0  0  0  0  0  0  0  0  0  0
   -3.4120  -21.7681    0.0000 C   0  0  0  0  0  0  0  0  0  0  0  0
   -4.1289  -22.1863    0.0000 C   0  0  0  0  0  0  0  0  0  0  0  0
   -4.1246  -23.0099    0.0000 C   0  0  0  0  0  0  0  0  0  0  0  0
   -2.6948  -27.9262    0.0000 O   0  0  0  0  0  0  0  0  0  0  0  0
   -4.1175  -27.1120    0.0000 O   0  0  0  0  0  0  0  0  0  0  0  0
   -4.1148  -27.9423    0.0000 C   0  0  0  0  0  0  0  0  0  0  0  0
   -3.3945  -28.3552    0.0000 O   0  0  0  0  0  0  0  0  0  0  0  0
   -4.8326  -28.3596    0.0000 C   0  0  0  0  0  0  0  0  0  0  0  0
    0.2456  -23.0675    0.0000 C   0  0  0  0  0  0  0  0  0  0  0  0
    0.2815  -22.2433    0.0000 C   0  0  0  0  0  0  0  0  0  0  0  0
   -0.4155  -21.7992    0.0000 C   0  0  0  0  0  0  0  0  0  0  0  0
   -1.1503  -22.1850    0.0000 C   0  0  0  0  0  0  0  0  0  0  0  0
   -1.1828  -23.0079    0.0000 C   0  0  0  0  0  0  0  0  0  0  0  0
   -2.7032  -26.2656    0.0000 C   0  0  0  0  0  0  0  0  0  0  0  0
    0.8605  -25.8728    0.0000 C   0  0  0  0  0  0  0  0  0  0  0  0
    1.5780  -25.4550    0.0000 C   0  0  0  0  0  0  0  0  0  0  0  0
    2.2971  -25.8701    0.0000 C   0  0  0  0  0  0  0  0  0  0  0  0
    3.0140  -25.4530    0.0000 C   0  0  0  0  0  0  0  0  0  0  0  0
    3.0114  -24.6218    0.0000 C   0  0  0  0  0  0  0  0  0  0  0  0
    2.2857  -24.2095    0.0000 C   0  0  0  0  0  0  0  0  0  0  0  0
    1.5716  -24.6291    0.0000 C   0  0  0  0  0  0  0  0  0  0  0  0
   -4.1287  -24.6584    0.0000 O   0  0  0  0  0  0  0  0  0  0  0  0
    0.1753  -24.7187    0.0000 O   0  0  0  0  0  0  0  0  0  0  0  0
    0.8637  -26.7031    0.0000 O   0  0  0  0  0  0  0  0  0  0  0  0
  8 12  1  0
 15 25  1  0
 11 12  1  0
 25 26  1  0
  1  2  1  0
 24 27  2  0
 12 13  1  0
 27 28  1  0
  1  4  1  0
 28 29  2  0
 12 14  1  0
 29 30  1  0
  2  3  1  0
 30 31  2  0
 31 24  1  0
 10 15  1  0
  3 32  1  0
  3  6  1  0
  2 33  1  0
  5 16  1  0
 33 34  1  0
  5  4  1  0
 34 35  2  0
  4 17  1  0
 34 36  1  0
  5 10  1  0
 26 37  2  0
  1 18  1  0
 37 38  1  0
  6  7  1  0
 38 39  2  0
 18 19  1  0
 39 40  1  0
  7  8  1  0
 40 41  2  0
 41 26  1  0
 19 20  1  0
  3 42  1  0
  8  9  1  0
 21 43  1  0
  9 21  1  0
 43 44  1  0
  9 10  1  0
 44 45  2  0
 19 22  2  0
 45 46  1  0
  5  6  1  0
 46 47  2  0
 17 23  1  0
 47 48  1  0
  6 11  1  0
 48 49  2  0
 49 44  1  0
 23 24  1  0
 23 50  2  0
 25 51  2  0
 43 52  2  0
M  END
>  <Classification>  (56) 
1

>  <pchembl>  (56) 
6.14

>  <InChI_steorem>  (56) 
InChI=1S/C40H42O12/c1-23(41)47-30-32(51-36(45)27-20-14-9-15-21-27)38(5)31(50-35(44)26-18-12-8-13-19-26)29(49-34(43)25-16-10-7-11-17-25)28-22-40(38,52-37(28,3)4)39(6,46)33(30)48-24(2)42/h7-21,28-33,46H,22H2,1-6H3

>  <source>  (56) 
ChEMBL25

>  <source_id>  (56) 
25

>  <optional_reference>  (56) 
10.1021/jm070290v

>  <optional_origin>  (56) 
None

>  <target>  (56) 
MDR1

$$$$

     RDKit          2D

 52 57  0  0  0  0  0  0  0  0999 V2000
   -3.5427  -18.5160    0.0000 C   0  0  0  0  0  0  0  0  0  0  0  0
   -3.5427  -19.3325    0.0000 C   0  0  0  0  0  0  0  0  0  0  0  0
   -2.8375  -19.7338    0.0000 C   0  0  0  0  0  0  0  0  0  0  0  0
   -2.8375  -18.1008    0.0000 C   0  0  0  0  0  0  0  0  0  0  0  0
   -2.1322  -18.5160    0.0000 C   0  0  0  0  0  0  0  0  0  0  0  0
   -2.1311  -19.3325    0.0000 C   0  0  0  0  0  0  0  0  0  0  0  0
   -1.4300  -19.7329    0.0000 C   0  0  0  0  0  0  0  0  0  0  0  0
   -0.7161  -19.3306    0.0000 C   0  0  0  0  0  0  0  0  0  0  0  0
   -0.7172  -18.5141    0.0000 C   0  0  0  0  0  0  0  0  0  0  0  0
   -1.4344  -18.1006    0.0000 C   0  0  0  0  0  0  0  0  0  0  0  0
   -2.1403  -20.1398    0.0000 O   0  0  0  0  0  0  0  0  0  0  0  0
   -0.7243  -20.1398    0.0000 C   0  0  0  0  0  0  0  0  0  0  0  0
    0.0554  -19.9229    0.0000 C   0  0  0  0  0  0  0  0  0  0  0  0
   -0.3275  -20.8362    0.0000 C   0  0  0  0  0  0  0  0  0  0  0  0
   -1.3994  -17.2891    0.0000 O   0  0  0  0  0  0  0  0  0  0  0  0
   -2.1403  -17.7042    0.0000 C   0  0  0  0  0  0  0  0  0  0  0  0
   -2.8386  -17.2890    0.0000 O   0  0  0  0  0  0  0  0  0  0  0  0
   -4.2443  -18.1071    0.0000 O   0  0  0  0  0  0  0  0  0  0  0  0
   -4.9486  -18.5194    0.0000 C   0  0  0  0  0  0  0  0  0  0  0  0
   -5.6548  -18.1106    0.0000 C   0  0  0  0  0  0  0  0  0  0  0  0
   -0.0031  -18.0983    0.0000 O   0  0  0  0  0  0  0  0  0  0  0  0
   -4.9477  -19.3452    0.0000 O   0  0  0  0  0  0  0  0  0  0  0  0
   -3.5536  -16.8795    0.0000 C   0  0  0  0  0  0  0  0  0  0  0  0
   -3.5548  -16.0537    0.0000 C   0  0  0  0  0  0  0  0  0  0  0  0
   -0.6677  -16.9099    0.0000 C   0  0  0  0  0  0  0  0  0  0  0  0
   -0.6319  -16.0849    0.0000 C   0  0  0  0  0  0  0  0  0  0  0  0
   -2.8380  -15.6435    0.0000 C   0  0  0  0  0  0  0  0  0  0  0  0
   -2.8389  -14.8186    0.0000 N   0  0  0  0  0  0  0  0  0  0  0  0
   -3.5551  -14.4059    0.0000 C   0  0  0  0  0  0  0  0  0  0  0  0
   -4.2719  -14.8242    0.0000 C   0  0  0  0  0  0  0  0  0  0  0  0
   -4.2676  -15.6478    0.0000 C   0  0  0  0  0  0  0  0  0  0  0  0
   -2.8377  -20.5641    0.0000 O   0  0  0  0  0  0  0  0  0  0  0  0
   -4.2604  -19.7498    0.0000 O   0  0  0  0  0  0  0  0  0  0  0  0
   -4.2578  -20.5802    0.0000 C   0  0  0  0  0  0  0  0  0  0  0  0
   -3.5375  -20.9931    0.0000 O   0  0  0  0  0  0  0  0  0  0  0  0
   -4.9757  -20.9975    0.0000 C   0  0  0  0  0  0  0  0  0  0  0  0
    0.1025  -15.7054    0.0000 C   0  0  0  0  0  0  0  0  0  0  0  0
    0.1386  -14.8812    0.0000 C   0  0  0  0  0  0  0  0  0  0  0  0
   -0.5585  -14.4370    0.0000 C   0  0  0  0  0  0  0  0  0  0  0  0
   -1.2933  -14.8229    0.0000 C   0  0  0  0  0  0  0  0  0  0  0  0
   -1.3257  -15.6458    0.0000 C   0  0  0  0  0  0  0  0  0  0  0  0
   -2.8461  -18.9035    0.0000 C   0  0  0  0  0  0  0  0  0  0  0  0
    0.7176  -18.5107    0.0000 C   0  0  0  0  0  0  0  0  0  0  0  0
    1.4350  -18.0929    0.0000 C   0  0  0  0  0  0  0  0  0  0  0  0
    0.7207  -19.3410    0.0000 O   0  0  0  0  0  0  0  0  0  0  0  0
   -4.2717  -17.2963    0.0000 O   0  0  0  0  0  0  0  0  0  0  0  0
    0.0323  -17.3565    0.0000 O   0  0  0  0  0  0  0  0  0  0  0  0
    2.1541  -18.5080    0.0000 C   0  0  0  0  0  0  0  0  0  0  0  0
    2.8711  -18.0909    0.0000 C   0  0  0  0  0  0  0  0  0  0  0  0
    2.8683  -17.2597    0.0000 C   0  0  0  0  0  0  0  0  0  0  0  0
    2.1427  -16.8474    0.0000 C   0  0  0  0  0  0  0  0  0  0  0  0
    1.4287  -17.2670    0.0000 C   0  0  0  0  0  0  0  0  0  0  0  0
  8 12  1  0
 15 25  1  0
 11 12  1  0
 25 26  1  0
  1  2  1  0
 24 27  2  0
 12 13  1  0
 27 28  1  0
  1  4  1  0
 28 29  2  0
 12 14  1  0
 29 30  1  0
  2  3  1  0
 30 31  2  0
 31 24  1  0
 10 15  1  0
  3 32  1  0
  3  6  1  0
  2 33  1  0
  5 16  1  0
 33 34  1  0
  5  4  1  0
 34 35  2  0
  4 17  1  0
 34 36  1  0
  5 10  1  0
 26 37  2  0
  1 18  1  0
 37 38  1  0
  6  7  1  0
 38 39  2  0
 18 19  1  0
 39 40  1  0
  7  8  1  0
 40 41  2  0
 41 26  1  0
 19 20  1  0
  3 42  1  0
  8  9  1  0
 21 43  1  0
  9 21  1  0
 43 44  1  0
  9 10  1  0
 43 45  2  0
 19 22  2  0
 23 46  2  0
  5  6  1  0
 25 47  2  0
 17 23  1  0
 44 48  2  0
  6 11  1  0
 48 49  1  0
 23 24  1  0
 49 50  2  0
 50 51  1  0
 51 52  2  0
 52 44  1  0
M  END
>  <Classification>  (57) 
1

>  <pchembl>  (57) 
5.84

>  <InChI_steorem>  (57) 
InChI=1S/C39H41NO12/c1-22(41)47-29-31(51-35(45)26-18-13-19-40-21-26)37(5)30(50-34(44)25-16-11-8-12-17-25)28(49-33(43)24-14-9-7-10-15-24)27-20-39(37,52-36(27,3)4)38(6,46)32(29)48-23(2)42/h7-19,21,27-32,46H,20H2,1-6H3

>  <source>  (57) 
ChEMBL25

>  <source_id>  (57) 
25

>  <optional_reference>  (57) 
10.1021/jm070290v

>  <optional_origin>  (57) 
None

>  <target>  (57) 
MDR1

$$$$

     RDKit          2D

 52 57  0  0  0  0  0  0  0  0999 V2000
   -4.0963  -22.8610    0.0000 C   0  0  0  0  0  0  0  0  0  0  0  0
   -4.0963  -23.6867    0.0000 C   0  0  0  0  0  0  0  0  0  0  0  0
   -3.3824  -24.0950    0.0000 C   0  0  0  0  0  0  0  0  0  0  0  0
   -3.3824  -22.4434    0.0000 C   0  0  0  0  0  0  0  0  0  0  0  0
   -2.6685  -22.8610    0.0000 C   0  0  0  0  0  0  0  0  0  0  0  0
   -2.6674  -23.6867    0.0000 C   0  0  0  0  0  0  0  0  0  0  0  0
   -1.9576  -24.0940    0.0000 C   0  0  0  0  0  0  0  0  0  0  0  0
   -1.2397  -23.6848    0.0000 C   0  0  0  0  0  0  0  0  0  0  0  0
   -1.2407  -22.8592    0.0000 C   0  0  0  0  0  0  0  0  0  0  0  0
   -1.9622  -22.4433    0.0000 C   0  0  0  0  0  0  0  0  0  0  0  0
   -2.6767  -24.5032    0.0000 O   0  0  0  0  0  0  0  0  0  0  0  0
   -1.2479  -24.5032    0.0000 C   0  0  0  0  0  0  0  0  0  0  0  0
   -0.4593  -24.2852    0.0000 C   0  0  0  0  0  0  0  0  0  0  0  0
   -0.8443  -25.2084    0.0000 C   0  0  0  0  0  0  0  0  0  0  0  0
   -1.9577  -24.9151    0.0000 O   0  0  0  0  0  0  0  0  0  0  0  0
   -1.9144  -21.6232    0.0000 O   0  0  0  0  0  0  0  0  0  0  0  0
   -1.1831  -21.2501    0.0000 C   0  0  0  0  0  0  0  0  0  0  0  0
   -1.1792  -20.4230    0.0000 C   0  0  0  0  0  0  0  0  0  0  0  0
   -0.4580  -20.0286    0.0000 C   0  0  0  0  0  0  0  0  0  0  0  0
   -0.4443  -19.2048    0.0000 C   0  0  0  0  0  0  0  0  0  0  0  0
   -1.1489  -18.7814    0.0000 C   0  0  0  0  0  0  0  0  0  0  0  0
   -1.8687  -19.1878    0.0000 C   0  0  0  0  0  0  0  0  0  0  0  0
   -1.8806  -20.0040    0.0000 C   0  0  0  0  0  0  0  0  0  0  0  0
   -2.6767  -22.0398    0.0000 C   0  0  0  0  0  0  0  0  0  0  0  0
   -3.3835  -21.6223    0.0000 O   0  0  0  0  0  0  0  0  0  0  0  0
   -4.0979  -21.2152    0.0000 C   0  0  0  0  0  0  0  0  0  0  0  0
   -4.0992  -20.3894    0.0000 C   0  0  0  0  0  0  0  0  0  0  0  0
   -4.8065  -22.4499    0.0000 O   0  0  0  0  0  0  0  0  0  0  0  0
   -5.5194  -22.8645    0.0000 C   0  0  0  0  0  0  0  0  0  0  0  0
   -6.2296  -22.4534    0.0000 C   0  0  0  0  0  0  0  0  0  0  0  0
   -5.5174  -23.6855    0.0000 O   0  0  0  0  0  0  0  0  0  0  0  0
   -3.3911  -23.2739    0.0000 C   0  0  0  0  0  0  0  0  0  0  0  0
   -3.3911  -24.9161    0.0000 O   0  0  0  0  0  0  0  0  0  0  0  0
   -2.6671  -25.3279    0.0000 C   0  0  0  0  0  0  0  0  0  0  0  0
   -2.6672  -26.1490    0.0000 O   0  0  0  0  0  0  0  0  0  0  0  0
   -3.4607  -25.5330    0.0000 C   0  0  0  0  0  0  0  0  0  0  0  0
   -0.5180  -22.4409    0.0000 O   0  0  0  0  0  0  0  0  0  0  0  0
    0.2055  -22.8577    0.0000 C   0  0  0  0  0  0  0  0  0  0  0  0
    0.9283  -22.4394    0.0000 C   0  0  0  0  0  0  0  0  0  0  0  0
    1.6507  -22.8593    0.0000 C   0  0  0  0  0  0  0  0  0  0  0  0
    2.3729  -22.4418    0.0000 C   0  0  0  0  0  0  0  0  0  0  0  0
    2.3726  -21.6059    0.0000 C   0  0  0  0  0  0  0  0  0  0  0  0
    1.6439  -21.1892    0.0000 C   0  0  0  0  0  0  0  0  0  0  0  0
    0.9246  -21.6092    0.0000 C   0  0  0  0  0  0  0  0  0  0  0  0
   -3.3823  -19.9792    0.0000 C   0  0  0  0  0  0  0  0  0  0  0  0
   -3.3831  -19.1542    0.0000 C   0  0  0  0  0  0  0  0  0  0  0  0
   -4.0993  -18.7415    0.0000 C   0  0  0  0  0  0  0  0  0  0  0  0
   -4.8162  -19.1598    0.0000 C   0  0  0  0  0  0  0  0  0  0  0  0
   -4.8119  -19.9835    0.0000 C   0  0  0  0  0  0  0  0  0  0  0  0
   -0.4720  -21.6879    0.0000 O   0  0  0  0  0  0  0  0  0  0  0  0
   -4.8196  -21.6351    0.0000 O   0  0  0  0  0  0  0  0  0  0  0  0
    0.2064  -23.6927    0.0000 O   0  0  0  0  0  0  0  0  0  0  0  0
  4 25  1  0
  8 12  1  0
 25 26  1  0
 11 12  1  0
 26 27  1  0
  1  2  1  0
  1 28  1  0
 12 13  1  0
 28 29  1  0
  1  4  1  0
 29 30  1  0
 12 14  1  0
 29 31  2  0
  2  3  1  0
  3 32  1  0
  7 15  1  0
  3 33  1  0
  3  6  1  0
 15 34  1  0
 10 16  1  0
 34 35  2  0
  5  4  1  0
 34 36  1  0
 16 17  1  0
  9 37  1  0
  5 10  1  0
 37 38  1  0
 17 18  1  0
 38 39  1  0
  6  7  1  0
 39 40  2  0
 18 19  2  0
 40 41  1  0
  7  8  1  0
 41 42  2  0
 19 20  1  0
 42 43  1  0
  8  9  1  0
 43 44  2  0
 44 39  1  0
 20 21  2  0
 27 45  2  0
  9 10  1  0
 45 46  1  0
 21 22  1  0
 46 47  2  0
  5  6  1  0
 47 48  1  0
 22 23  2  0
 48 49  2  0
 49 27  1  0
 23 18  1  0
 17 50  2  0
  6 11  1  0
 26 51  2  0
  5 24  1  0
 38 52  2  0
M  END
>  <Classification>  (58) 
1

>  <pchembl>  (58) 
6.04

>  <InChI_steorem>  (58) 
InChI=1S/C40H42O12/c1-23(41)47-28-22-38(5,46)40-32(48-24(2)42)29(37(3,4)52-40)30(49-34(43)25-16-10-7-11-17-25)33(51-36(45)27-20-14-9-15-21-27)39(40,6)31(28)50-35(44)26-18-12-8-13-19-26/h7-21,28-33,46H,22H2,1-6H3

>  <source>  (58) 
ChEMBL25

>  <source_id>  (58) 
25

>  <optional_reference>  (58) 
10.1021/jm070290v

>  <optional_origin>  (58) 
None

>  <target>  (58) 
MDR1

$$$$

     RDKit          2D

 52 57  0  0  0  0  0  0  0  0999 V2000
    5.0187  -18.9588    0.0000 C   0  0  0  0  0  0  0  0  0  0  0  0
    5.0187  -19.7753    0.0000 C   0  0  0  0  0  0  0  0  0  0  0  0
    5.7241  -20.1766    0.0000 C   0  0  0  0  0  0  0  0  0  0  0  0
    5.7241  -18.5437    0.0000 C   0  0  0  0  0  0  0  0  0  0  0  0
    6.4293  -18.9588    0.0000 C   0  0  0  0  0  0  0  0  0  0  0  0
    6.4303  -19.7753    0.0000 C   0  0  0  0  0  0  0  0  0  0  0  0
    7.1315  -20.1757    0.0000 C   0  0  0  0  0  0  0  0  0  0  0  0
    7.8454  -19.7734    0.0000 C   0  0  0  0  0  0  0  0  0  0  0  0
    7.8444  -18.9569    0.0000 C   0  0  0  0  0  0  0  0  0  0  0  0
    7.1270  -18.5434    0.0000 C   0  0  0  0  0  0  0  0  0  0  0  0
    6.4211  -20.5826    0.0000 O   0  0  0  0  0  0  0  0  0  0  0  0
    7.8373  -20.5826    0.0000 C   0  0  0  0  0  0  0  0  0  0  0  0
    8.6168  -20.3657    0.0000 C   0  0  0  0  0  0  0  0  0  0  0  0
    8.2339  -21.2791    0.0000 C   0  0  0  0  0  0  0  0  0  0  0  0
    7.1622  -17.7320    0.0000 O   0  0  0  0  0  0  0  0  0  0  0  0
    6.4211  -18.1470    0.0000 C   0  0  0  0  0  0  0  0  0  0  0  0
    5.7229  -17.7318    0.0000 O   0  0  0  0  0  0  0  0  0  0  0  0
    4.3172  -18.5500    0.0000 O   0  0  0  0  0  0  0  0  0  0  0  0
    3.6130  -18.9623    0.0000 C   0  0  0  0  0  0  0  0  0  0  0  0
    2.9067  -18.5534    0.0000 C   0  0  0  0  0  0  0  0  0  0  0  0
    8.5584  -18.5411    0.0000 O   0  0  0  0  0  0  0  0  0  0  0  0
    3.6137  -19.7880    0.0000 O   0  0  0  0  0  0  0  0  0  0  0  0
    5.0078  -17.3223    0.0000 C   0  0  0  0  0  0  0  0  0  0  0  0
    5.0067  -16.4966    0.0000 C   0  0  0  0  0  0  0  0  0  0  0  0
    7.8937  -17.3528    0.0000 C   0  0  0  0  0  0  0  0  0  0  0  0
    7.9295  -16.5278    0.0000 C   0  0  0  0  0  0  0  0  0  0  0  0
    5.7234  -16.0864    0.0000 C   0  0  0  0  0  0  0  0  0  0  0  0
    5.7226  -15.2614    0.0000 N   0  0  0  0  0  0  0  0  0  0  0  0
    5.0063  -14.8488    0.0000 C   0  0  0  0  0  0  0  0  0  0  0  0
    4.2895  -15.2670    0.0000 C   0  0  0  0  0  0  0  0  0  0  0  0
    4.2939  -16.0906    0.0000 C   0  0  0  0  0  0  0  0  0  0  0  0
    5.7237  -21.0069    0.0000 O   0  0  0  0  0  0  0  0  0  0  0  0
    4.3010  -20.1927    0.0000 O   0  0  0  0  0  0  0  0  0  0  0  0
    4.3036  -21.0230    0.0000 C   0  0  0  0  0  0  0  0  0  0  0  0
    5.0240  -21.4359    0.0000 O   0  0  0  0  0  0  0  0  0  0  0  0
    3.5858  -21.4404    0.0000 C   0  0  0  0  0  0  0  0  0  0  0  0
    8.6640  -16.1483    0.0000 C   0  0  0  0  0  0  0  0  0  0  0  0
    8.7000  -15.3240    0.0000 C   0  0  0  0  0  0  0  0  0  0  0  0
    8.0030  -14.8799    0.0000 C   0  0  0  0  0  0  0  0  0  0  0  0
    7.2681  -15.2657    0.0000 C   0  0  0  0  0  0  0  0  0  0  0  0
    7.2357  -16.0886    0.0000 C   0  0  0  0  0  0  0  0  0  0  0  0
    5.7153  -19.3463    0.0000 C   0  0  0  0  0  0  0  0  0  0  0  0
    9.2790  -18.9535    0.0000 C   0  0  0  0  0  0  0  0  0  0  0  0
    9.9965  -18.5357    0.0000 C   0  0  0  0  0  0  0  0  0  0  0  0
    4.2897  -17.7392    0.0000 O   0  0  0  0  0  0  0  0  0  0  0  0
    8.5937  -17.7994    0.0000 O   0  0  0  0  0  0  0  0  0  0  0  0
    9.2821  -19.7838    0.0000 O   0  0  0  0  0  0  0  0  0  0  0  0
    2.8702  -21.0253    0.0000 C   0  0  0  0  0  0  0  0  0  0  0  0
    2.1529  -21.4420    0.0000 C   0  0  0  0  0  0  0  0  0  0  0  0
    2.1551  -22.2732    0.0000 C   0  0  0  0  0  0  0  0  0  0  0  0
    2.8804  -22.6859    0.0000 C   0  0  0  0  0  0  0  0  0  0  0  0
    3.5948  -22.2668    0.0000 C   0  0  0  0  0  0  0  0  0  0  0  0
  8 12  1  0
 15 25  1  0
 11 12  1  0
 25 26  1  0
  1  2  1  0
 24 27  2  0
 12 13  1  0
 27 28  1  0
  1  4  1  0
 28 29  2  0
 12 14  1  0
 29 30  1  0
  2  3  1  0
 30 31  2  0
 31 24  1  0
 10 15  1  0
  3 32  1  0
  3  6  1  0
  2 33  1  0
  5 16  1  0
 33 34  1  0
  5  4  1  0
 34 35  2  0
  4 17  1  0
 34 36  1  0
  5 10  1  0
 26 37  2  0
  1 18  1  0
 37 38  1  0
  6  7  1  0
 38 39  2  0
 18 19  1  0
 39 40  1  0
  7  8  1  0
 40 41  2  0
 41 26  1  0
 19 20  1  0
  3 42  1  0
  8  9  1  0
 21 43  1  0
  9 21  1  0
 43 44  1  0
  9 10  1  0
 23 45  2  0
 19 22  2  0
 25 46  2  0
  5  6  1  0
 43 47  2  0
 17 23  1  0
 36 48  2  0
  6 11  1  0
 48 49  1  0
 23 24  1  0
 49 50  2  0
 50 51  1  0
 51 52  2  0
 52 36  1  0
M  END
>  <Classification>  (59) 
1

>  <pchembl>  (59) 
5.87

>  <InChI_steorem>  (59) 
InChI=1S/C39H41NO12/c1-22(41)47-28-27-20-39(52-36(27,3)4)37(5,30(28)49-33(43)24-14-9-7-10-15-24)31(50-35(45)26-18-13-19-40-21-26)29(48-23(2)42)32(38(39,6)46)51-34(44)25-16-11-8-12-17-25/h7-19,21,27-32,46H,20H2,1-6H3

>  <source>  (59) 
ChEMBL25

>  <source_id>  (59) 
25

>  <optional_reference>  (59) 
10.1021/jm070290v

>  <optional_origin>  (59) 
None

>  <target>  (59) 
MDR1

$$$$

     RDKit          2D

 52 57  0  0  0  0  0  0  0  0999 V2000
    6.0866    0.7379    0.0000 C   0  0  0  0  0  0  0  0  0  0  0  0
    6.0866   -0.0916    0.0000 C   0  0  0  0  0  0  0  0  0  0  0  0
    6.8012   -0.5041    0.0000 C   0  0  0  0  0  0  0  0  0  0  0  0
    6.8012    1.1550    0.0000 C   0  0  0  0  0  0  0  0  0  0  0  0
    7.5201    0.7379    0.0000 C   0  0  0  0  0  0  0  0  0  0  0  0
    7.5212   -0.0916    0.0000 C   0  0  0  0  0  0  0  0  0  0  0  0
    8.2362   -0.5032    0.0000 C   0  0  0  0  0  0  0  0  0  0  0  0
    8.9548   -0.0899    0.0000 C   0  0  0  0  0  0  0  0  0  0  0  0
    8.9537    0.7397    0.0000 C   0  0  0  0  0  0  0  0  0  0  0  0
    8.2341    1.1559    0.0000 C   0  0  0  0  0  0  0  0  0  0  0  0
    6.8000    1.9800    0.0000 O   0  0  0  0  0  0  0  0  0  0  0  0
    7.5121    1.5629    0.0000 C   0  0  0  0  0  0  0  0  0  0  0  0
    8.2225    1.9824    0.0000 O   0  0  0  0  0  0  0  0  0  0  0  0
    8.2143    2.8074    0.0000 C   0  0  0  0  0  0  0  0  0  0  0  0
    8.9247    3.2268    0.0000 C   0  0  0  0  0  0  0  0  0  0  0  0
    7.4958    3.2129    0.0000 O   0  0  0  0  0  0  0  0  0  0  0  0
    8.9421    1.5766    0.0000 O   0  0  0  0  0  0  0  0  0  0  0  0
    8.9317    2.4016    0.0000 C   0  0  0  0  0  0  0  0  0  0  0  0
    9.6408    2.8231    0.0000 C   0  0  0  0  0  0  0  0  0  0  0  0
   10.3625    2.4131    0.0000 C   0  0  0  0  0  0  0  0  0  0  0  0
   11.0713    2.8339    0.0000 C   0  0  0  0  0  0  0  0  0  0  0  0
   11.0613    3.6553    0.0000 C   0  0  0  0  0  0  0  0  0  0  0  0
   10.3367    4.0587    0.0000 C   0  0  0  0  0  0  0  0  0  0  0  0
    9.6309    3.6386    0.0000 C   0  0  0  0  0  0  0  0  0  0  0  0
    9.6681    1.1525    0.0000 O   0  0  0  0  0  0  0  0  0  0  0  0
    7.5121   -0.9121    0.0000 O   0  0  0  0  0  0  0  0  0  0  0  0
    8.2263   -1.3269    0.0000 O   0  0  0  0  0  0  0  0  0  0  0  0
    7.7540   -2.0013    0.0000 C   0  0  0  0  0  0  0  0  0  0  0  0
    6.9322   -1.9297    0.0000 O   0  0  0  0  0  0  0  0  0  0  0  0
    8.1029   -2.7489    0.0000 C   0  0  0  0  0  0  0  0  0  0  0  0
    8.9466   -0.9121    0.0000 C   0  0  0  0  0  0  0  0  0  0  0  0
    9.1575   -1.7050    0.0000 C   0  0  0  0  0  0  0  0  0  0  0  0
    9.6571   -0.4950    0.0000 C   0  0  0  0  0  0  0  0  0  0  0  0
    6.7997   -1.3291    0.0000 O   0  0  0  0  0  0  0  0  0  0  0  0
    6.7925    0.3209    0.0000 C   0  0  0  0  0  0  0  0  0  0  0  0
    6.0850    2.3915    0.0000 C   0  0  0  0  0  0  0  0  0  0  0  0
    6.0838    3.2165    0.0000 O   0  0  0  0  0  0  0  0  0  0  0  0
    5.3711    1.9780    0.0000 C   0  0  0  0  0  0  0  0  0  0  0  0
   10.3827    0.7401    0.0000 C   0  0  0  0  0  0  0  0  0  0  0  0
   11.0970    1.1528    0.0000 C   0  0  0  0  0  0  0  0  0  0  0  0
   11.8090    0.7380    0.0000 C   0  0  0  0  0  0  0  0  0  0  0  0
   12.5229    1.1499    0.0000 C   0  0  0  0  0  0  0  0  0  0  0  0
   12.5231    1.9758    0.0000 C   0  0  0  0  0  0  0  0  0  0  0  0
   11.8035    2.3880    0.0000 C   0  0  0  0  0  0  0  0  0  0  0  0
   11.0926    1.9736    0.0000 C   0  0  0  0  0  0  0  0  0  0  0  0
    9.6387    1.9891    0.0000 O   0  0  0  0  0  0  0  0  0  0  0  0
   10.3829   -0.0849    0.0000 O   0  0  0  0  0  0  0  0  0  0  0  0
    4.6577    2.3911    0.0000 C   0  0  0  0  0  0  0  0  0  0  0  0
    3.9444    1.9782    0.0000 C   0  0  0  0  0  0  0  0  0  0  0  0
    3.9450    1.1524    0.0000 C   0  0  0  0  0  0  0  0  0  0  0  0
    4.6651    0.7411    0.0000 C   0  0  0  0  0  0  0  0  0  0  0  0
    5.3756    1.1562    0.0000 C   0  0  0  0  0  0  0  0  0  0  0  0
  5 12  1  0
  6 26  1  0
  1  2  1  0
  7 27  1  0
 12 13  1  0
 27 28  1  0
  1  4  1  0
 28 29  2  0
 13 14  1  0
 28 30  1  0
  2  3  1  0
  8 31  1  0
 26 31  1  0
 14 15  1  0
 31 32  1  0
  3  6  1  0
 31 33  1  0
 14 16  2  0
  3 34  1  0
  5  4  1  0
  3 35  1  0
 10 17  1  0
 11 36  1  0
  5 10  1  0
 36 37  2  0
 17 18  1  0
 36 38  1  0
  6  7  1  0
 25 39  1  0
 18 19  1  0
 39 40  1  0
  7  8  1  0
 40 41  2  0
 19 20  2  0
 41 42  1  0
  8  9  1  0
 42 43  2  0
 20 21  1  0
 43 44  1  0
  9 10  1  0
 44 45  2  0
 45 40  1  0
 21 22  2  0
 18 46  2  0
  5  6  1  0
 39 47  2  0
 22 23  1  0
  4 11  1  0
 38 48  2  0
 23 24  2  0
 48 49  1  0
 24 19  1  0
 49 50  2  0
 50 51  1  0
  9 25  1  0
 51 52  2  0
 52 38  1  0
M  END
>  <Classification>  (60) 
1

>  <pchembl>  (60) 
5.91

>  <InChI_steorem>  (60) 
InChI=1S/C40H42O12/c1-24(41)47-23-39-29(49-34(43)26-15-9-6-10-16-26)21-22-38(5,46)40(39)32(48-25(2)42)30(37(3,4)52-40)31(50-35(44)27-17-11-7-12-18-27)33(39)51-36(45)28-19-13-8-14-20-28/h6-20,29-33,46H,21-23H2,1-5H3

>  <source>  (60) 
ChEMBL25

>  <source_id>  (60) 
25

>  <optional_reference>  (60) 
10.1021/jm070290v

>  <optional_origin>  (60) 
None

>  <target>  (60) 
MDR1

$$$$

     RDKit          2D

 53 58  0  0  0  0  0  0  0  0999 V2000
    6.3076   -8.3499    0.0000 C   0  0  0  0  0  0  0  0  0  0  0  0
    6.3076   -9.1743    0.0000 C   0  0  0  0  0  0  0  0  0  0  0  0
    7.0203   -9.5817    0.0000 C   0  0  0  0  0  0  0  0  0  0  0  0
    7.0203   -7.9331    0.0000 C   0  0  0  0  0  0  0  0  0  0  0  0
    7.7329   -8.3499    0.0000 C   0  0  0  0  0  0  0  0  0  0  0  0
    7.7339   -9.1743    0.0000 C   0  0  0  0  0  0  0  0  0  0  0  0
    8.4425   -9.5809    0.0000 C   0  0  0  0  0  0  0  0  0  0  0  0
    9.1593   -9.1724    0.0000 C   0  0  0  0  0  0  0  0  0  0  0  0
    9.1582   -8.3480    0.0000 C   0  0  0  0  0  0  0  0  0  0  0  0
    8.4380   -7.9329    0.0000 C   0  0  0  0  0  0  0  0  0  0  0  0
    7.7247   -9.9893    0.0000 O   0  0  0  0  0  0  0  0  0  0  0  0
    9.1510   -9.9893    0.0000 C   0  0  0  0  0  0  0  0  0  0  0  0
    9.9384   -9.7717    0.0000 C   0  0  0  0  0  0  0  0  0  0  0  0
    9.5540  -10.6932    0.0000 C   0  0  0  0  0  0  0  0  0  0  0  0
    8.4424  -10.4006    0.0000 O   0  0  0  0  0  0  0  0  0  0  0  0
    8.8907   -7.2498    0.0000 O   0  0  0  0  0  0  0  0  0  0  0  0
    7.7247   -7.5302    0.0000 C   0  0  0  0  0  0  0  0  0  0  0  0
    7.0190   -7.1134    0.0000 O   0  0  0  0  0  0  0  0  0  0  0  0
    5.5986   -7.9394    0.0000 O   0  0  0  0  0  0  0  0  0  0  0  0
    4.8869   -8.3533    0.0000 C   0  0  0  0  0  0  0  0  0  0  0  0
    4.1779   -7.9429    0.0000 C   0  0  0  0  0  0  0  0  0  0  0  0
    7.7344  -10.8127    0.0000 C   0  0  0  0  0  0  0  0  0  0  0  0
    7.7343  -11.6324    0.0000 O   0  0  0  0  0  0  0  0  0  0  0  0
    6.9420  -11.0174    0.0000 C   0  0  0  0  0  0  0  0  0  0  0  0
    9.8797   -7.9305    0.0000 O   0  0  0  0  0  0  0  0  0  0  0  0
    8.4424   -7.1062    0.0000 O   0  0  0  0  0  0  0  0  0  0  0  0
    8.4340   -6.2727    0.0000 C   0  0  0  0  0  0  0  0  0  0  0  0
    9.1518   -5.8487    0.0000 C   0  0  0  0  0  0  0  0  0  0  0  0
    7.7080   -5.8631    0.0000 O   0  0  0  0  0  0  0  0  0  0  0  0
    7.0199  -10.4153    0.0000 O   0  0  0  0  0  0  0  0  0  0  0  0
    6.2966   -6.6976    0.0000 C   0  0  0  0  0  0  0  0  0  0  0  0
    6.2954   -5.8640    0.0000 C   0  0  0  0  0  0  0  0  0  0  0  0
    7.0227   -5.4477    0.0000 C   0  0  0  0  0  0  0  0  0  0  0  0
    7.0218   -4.6195    0.0000 C   0  0  0  0  0  0  0  0  0  0  0  0
    6.2988   -4.2025    0.0000 C   0  0  0  0  0  0  0  0  0  0  0  0
    5.5751   -4.6230    0.0000 C   0  0  0  0  0  0  0  0  0  0  0  0
    5.5795   -5.4521    0.0000 C   0  0  0  0  0  0  0  0  0  0  0  0
    9.7243   -7.2454    0.0000 C   0  0  0  0  0  0  0  0  0  0  0  0
   10.1374   -6.5213    0.0000 C   0  0  0  0  0  0  0  0  0  0  0  0
   10.9699   -6.5191    0.0000 C   0  0  0  0  0  0  0  0  0  0  0  0
   11.3829   -5.7959    0.0000 C   0  0  0  0  0  0  0  0  0  0  0  0
   10.9622   -5.0752    0.0000 C   0  0  0  0  0  0  0  0  0  0  0  0
   10.1244   -5.0822    0.0000 C   0  0  0  0  0  0  0  0  0  0  0  0
    9.7151   -5.8060    0.0000 C   0  0  0  0  0  0  0  0  0  0  0  0
    7.0115   -8.7481    0.0000 C   0  0  0  0  0  0  0  0  0  0  0  0
    4.1821   -7.1231    0.0000 C   0  0  0  0  0  0  0  0  0  0  0  0
    3.4739   -6.7127    0.0000 C   0  0  0  0  0  0  0  0  0  0  0  0
    2.7630   -7.1216    0.0000 C   0  0  0  0  0  0  0  0  0  0  0  0
    2.7647   -7.9451    0.0000 C   0  0  0  0  0  0  0  0  0  0  0  0
    3.4734   -8.3518    0.0000 C   0  0  0  0  0  0  0  0  0  0  0  0
    4.8878   -9.1869    0.0000 O   0  0  0  0  0  0  0  0  0  0  0  0
    5.5752   -7.1154    0.0000 O   0  0  0  0  0  0  0  0  0  0  0  0
   10.5219   -7.4561    0.0000 O   0  0  0  0  0  0  0  0  0  0  0  0
 17 26  1  0
 11 12  1  0
 26 27  1  0
  1  2  1  0
 27 28  1  0
 12 13  1  0
 27 29  2  0
  1  4  1  0
  3 30  1  0
 12 14  1  0
 18 31  1  0
  2  3  1  0
 31 32  1  0
  7 15  1  0
 32 33  2  0
  3  6  1  0
 33 34  1  0
 10 16  1  0
 34 35  2  0
  5  4  1  0
 35 36  1  0
  5 17  1  0
 36 37  2  0
 37 32  1  0
  5 10  1  0
 16 38  1  0
  4 18  1  0
 38 39  1  0
  6  7  1  0
 39 40  2  0
  1 19  1  0
 40 41  1  0
  7  8  1  0
 41 42  2  0
 19 20  1  0
 42 43  1  0
  8  9  1  0
 43 44  2  0
 44 39  1  0
 20 21  1  0
  3 45  1  0
  9 10  1  0
 21 46  2  0
 15 22  1  0
 46 47  1  0
  5  6  1  0
 47 48  2  0
 22 23  2  0
 48 49  1  0
  6 11  1  0
 49 50  2  0
 50 21  1  0
 22 24  1  0
 20 51  2  0
  9 25  2  0
 31 52  2  0
  8 12  1  0
 38 53  2  0
M  END
>  <Classification>  (61) 
1

>  <pchembl>  (61) 
5.99

>  <InChI_steorem>  (61) 
InChI=1S/C40H40O13/c1-23(41)48-22-39-31(51-35(45)26-17-11-7-12-18-26)28(50-34(44)25-15-9-6-10-16-25)21-38(5,47)40(39)32(49-24(2)42)29(37(3,4)53-40)30(43)33(39)52-36(46)27-19-13-8-14-20-27/h6-20,28-29,31-33,47H,21-22H2,1-5H3

>  <source>  (61) 
ChEMBL25

>  <source_id>  (61) 
25

>  <optional_reference>  (61) 
10.1021/jm070290v

>  <optional_origin>  (61) 
None

>  <target>  (61) 
MDR1

$$$$

     RDKit          2D

 54 59  0  0  0  0  0  0  0  0999 V2000
   13.2956  -10.7563    0.0000 C   0  0  0  0  0  0  0  0  0  0  0  0
   13.2956  -11.5720    0.0000 C   0  0  0  0  0  0  0  0  0  0  0  0
   14.0002  -11.9729    0.0000 C   0  0  0  0  0  0  0  0  0  0  0  0
   14.0002  -10.3415    0.0000 C   0  0  0  0  0  0  0  0  0  0  0  0
   14.7048  -10.7563    0.0000 C   0  0  0  0  0  0  0  0  0  0  0  0
   14.7058  -11.5720    0.0000 C   0  0  0  0  0  0  0  0  0  0  0  0
   15.4063  -11.9721    0.0000 C   0  0  0  0  0  0  0  0  0  0  0  0
   16.1195  -11.5701    0.0000 C   0  0  0  0  0  0  0  0  0  0  0  0
   16.1185  -10.7544    0.0000 C   0  0  0  0  0  0  0  0  0  0  0  0
   15.4018  -10.3413    0.0000 C   0  0  0  0  0  0  0  0  0  0  0  0
   14.6966  -12.3785    0.0000 O   0  0  0  0  0  0  0  0  0  0  0  0
   16.1114  -12.3785    0.0000 C   0  0  0  0  0  0  0  0  0  0  0  0
   16.8902  -12.1619    0.0000 C   0  0  0  0  0  0  0  0  0  0  0  0
   16.5077  -13.0743    0.0000 C   0  0  0  0  0  0  0  0  0  0  0  0
   15.4370   -9.5306    0.0000 O   0  0  0  0  0  0  0  0  0  0  0  0
   14.6966   -9.9452    0.0000 C   0  0  0  0  0  0  0  0  0  0  0  0
   13.9990   -9.5305    0.0000 O   0  0  0  0  0  0  0  0  0  0  0  0
   12.5947  -10.3478    0.0000 O   0  0  0  0  0  0  0  0  0  0  0  0
   11.8911  -10.7597    0.0000 C   0  0  0  0  0  0  0  0  0  0  0  0
   11.1854  -10.3513    0.0000 C   0  0  0  0  0  0  0  0  0  0  0  0
   11.8919  -11.5847    0.0000 O   0  0  0  0  0  0  0  0  0  0  0  0
   13.2846   -9.1213    0.0000 C   0  0  0  0  0  0  0  0  0  0  0  0
   13.2835   -8.2963    0.0000 C   0  0  0  0  0  0  0  0  0  0  0  0
   16.1678   -9.1518    0.0000 C   0  0  0  0  0  0  0  0  0  0  0  0
   16.2036   -8.3275    0.0000 C   0  0  0  0  0  0  0  0  0  0  0  0
   16.9414   -7.9461    0.0000 C   0  0  0  0  0  0  0  0  0  0  0  0
   16.8672   -9.5979    0.0000 O   0  0  0  0  0  0  0  0  0  0  0  0
   16.9799   -7.1174    0.0000 C   0  0  0  0  0  0  0  0  0  0  0  0
   17.7183   -6.7408    0.0000 C   0  0  0  0  0  0  0  0  0  0  0  0
   17.7571   -5.9129    0.0000 C   0  0  0  0  0  0  0  0  0  0  0  0
   17.0582   -5.4644    0.0000 C   0  0  0  0  0  0  0  0  0  0  0  0
   16.3187   -5.8498    0.0000 C   0  0  0  0  0  0  0  0  0  0  0  0
   16.2835   -6.6764    0.0000 C   0  0  0  0  0  0  0  0  0  0  0  0
   13.9996   -7.8865    0.0000 C   0  0  0  0  0  0  0  0  0  0  0  0
   13.9988   -7.0623    0.0000 C   0  0  0  0  0  0  0  0  0  0  0  0
   13.2832   -6.6501    0.0000 C   0  0  0  0  0  0  0  0  0  0  0  0
   12.5670   -7.0680    0.0000 C   0  0  0  0  0  0  0  0  0  0  0  0
   12.5714   -7.8908    0.0000 C   0  0  0  0  0  0  0  0  0  0  0  0
   12.5785  -11.9890    0.0000 O   0  0  0  0  0  0  0  0  0  0  0  0
   12.5811  -12.8185    0.0000 C   0  0  0  0  0  0  0  0  0  0  0  0
   13.3008  -13.2311    0.0000 O   0  0  0  0  0  0  0  0  0  0  0  0
   11.8640  -13.2355    0.0000 C   0  0  0  0  0  0  0  0  0  0  0  0
   12.5672   -9.5378    0.0000 O   0  0  0  0  0  0  0  0  0  0  0  0
   11.1491  -12.8208    0.0000 C   0  0  0  0  0  0  0  0  0  0  0  0
   10.4324  -13.2372    0.0000 C   0  0  0  0  0  0  0  0  0  0  0  0
   10.4345  -14.0676    0.0000 C   0  0  0  0  0  0  0  0  0  0  0  0
   11.1592  -14.4799    0.0000 N   0  0  0  0  0  0  0  0  0  0  0  0
   11.8730  -14.0612    0.0000 C   0  0  0  0  0  0  0  0  0  0  0  0
   13.9999  -12.8025    0.0000 O   0  0  0  0  0  0  0  0  0  0  0  0
   13.9915  -11.1434    0.0000 C   0  0  0  0  0  0  0  0  0  0  0  0
   15.4039  -12.8016    0.0000 O   0  0  0  0  0  0  0  0  0  0  0  0
   14.6843  -13.2143    0.0000 C   0  0  0  0  0  0  0  0  0  0  0  0
   14.6819  -14.0438    0.0000 O   0  0  0  0  0  0  0  0  0  0  0  0
   13.8809  -13.4246    0.0000 C   0  0  0  0  0  0  0  0  0  0  0  0
 11 12  1  0
 25 26  2  3
  1  2  1  0
 24 27  2  0
 12 13  1  0
 26 28  1  0
  1  4  1  0
 28 29  2  0
 12 14  1  0
 29 30  1  0
  2  3  1  0
 30 31  2  0
 10 15  1  0
 31 32  1  0
  3  6  1  0
 32 33  2  0
 33 28  1  0
  5 16  1  0
 23 34  2  0
  5  4  1  0
 34 35  1  0
  4 17  1  0
 35 36  2  0
  5 10  1  0
 36 37  1  0
  1 18  1  0
 37 38  2  0
 38 23  1  0
  6  7  1  0
  2 39  1  0
 18 19  1  0
 39 40  1  0
  7  8  1  0
 40 41  2  0
 19 20  1  0
 40 42  1  0
  8  9  1  0
 22 43  2  0
 19 21  2  0
 42 44  2  0
  9 10  1  0
 44 45  1  0
 17 22  1  0
 45 46  2  0
  5  6  1  0
 46 47  1  0
 22 23  1  0
 47 48  2  0
 48 42  1  0
  6 11  1  0
  3 49  1  0
  3 50  1  0
  7 51  1  0
 15 24  1  0
 51 52  1  0
  8 12  1  0
 52 53  2  0
 24 25  1  0
 52 54  1  0
M  END
>  <Classification>  (62) 
0

>  <pchembl>  (62) 
4.6

>  <InChI_steorem>  (62) 
InChI=1S/C41H43NO12/c1-24(43)49-32-34(52-36(46)27-16-11-8-12-17-27)39(5)30(51-31(45)20-19-26-14-9-7-10-15-26)22-29-33(50-25(2)44)41(39,54-38(29,3)4)40(6,48)35(32)53-37(47)28-18-13-21-42-23-28/h7-21,23,29-30,32-35,48H,22H2,1-6H3

>  <source>  (62) 
ChEMBL25

>  <source_id>  (62) 
25

>  <optional_reference>  (62) 
10.1021/jm070290v

>  <optional_origin>  (62) 
None

>  <target>  (62) 
MDR1

$$$$

     RDKit          2D

 55 60  0  0  0  0  0  0  0  0999 V2000
   -2.4450   -8.2864    0.0000 C   0  0  0  0  0  0  0  0  0  0  0  0
   -2.4450   -9.1122    0.0000 C   0  0  0  0  0  0  0  0  0  0  0  0
   -1.7311   -9.5205    0.0000 C   0  0  0  0  0  0  0  0  0  0  0  0
   -1.7311   -7.8688    0.0000 C   0  0  0  0  0  0  0  0  0  0  0  0
   -1.0172   -8.2864    0.0000 C   0  0  0  0  0  0  0  0  0  0  0  0
   -1.0161   -9.1122    0.0000 C   0  0  0  0  0  0  0  0  0  0  0  0
   -0.3062   -9.5196    0.0000 C   0  0  0  0  0  0  0  0  0  0  0  0
    0.4119   -9.1104    0.0000 C   0  0  0  0  0  0  0  0  0  0  0  0
    0.4108   -8.2845    0.0000 C   0  0  0  0  0  0  0  0  0  0  0  0
   -0.3107   -7.8686    0.0000 C   0  0  0  0  0  0  0  0  0  0  0  0
   -1.0253   -9.9288    0.0000 O   0  0  0  0  0  0  0  0  0  0  0  0
    0.4036   -9.9288    0.0000 C   0  0  0  0  0  0  0  0  0  0  0  0
    1.1923   -9.7107    0.0000 C   0  0  0  0  0  0  0  0  0  0  0  0
    0.8073  -10.6340    0.0000 C   0  0  0  0  0  0  0  0  0  0  0  0
   -0.3063  -10.3408    0.0000 O   0  0  0  0  0  0  0  0  0  0  0  0
    0.1426   -7.1844    0.0000 O   0  0  0  0  0  0  0  0  0  0  0  0
    0.9625   -7.2321    0.0000 C   0  0  0  0  0  0  0  0  0  0  0  0
    1.3839   -6.5203    0.0000 C   0  0  0  0  0  0  0  0  0  0  0  0
    2.2055   -6.5443    0.0000 C   0  0  0  0  0  0  0  0  0  0  0  0
    2.6337   -5.8402    0.0000 C   0  0  0  0  0  0  0  0  0  0  0  0
    2.2396   -5.1188    0.0000 C   0  0  0  0  0  0  0  0  0  0  0  0
    1.4130   -5.1057    0.0000 C   0  0  0  0  0  0  0  0  0  0  0  0
    0.9904   -5.8041    0.0000 C   0  0  0  0  0  0  0  0  0  0  0  0
   -1.0253   -7.4652    0.0000 C   0  0  0  0  0  0  0  0  0  0  0  0
   -1.7323   -7.0476    0.0000 O   0  0  0  0  0  0  0  0  0  0  0  0
   -2.4468   -6.6403    0.0000 C   0  0  0  0  0  0  0  0  0  0  0  0
   -2.4479   -5.8144    0.0000 C   0  0  0  0  0  0  0  0  0  0  0  0
   -3.1555   -7.8752    0.0000 O   0  0  0  0  0  0  0  0  0  0  0  0
   -3.8683   -8.2898    0.0000 C   0  0  0  0  0  0  0  0  0  0  0  0
   -4.5787   -7.8786    0.0000 C   0  0  0  0  0  0  0  0  0  0  0  0
   -1.0156  -10.7536    0.0000 C   0  0  0  0  0  0  0  0  0  0  0  0
   -1.0157  -11.5748    0.0000 O   0  0  0  0  0  0  0  0  0  0  0  0
   -1.8095  -10.9588    0.0000 C   0  0  0  0  0  0  0  0  0  0  0  0
    1.1337   -7.8663    0.0000 O   0  0  0  0  0  0  0  0  0  0  0  0
   -4.5744   -7.0573    0.0000 C   0  0  0  0  0  0  0  0  0  0  0  0
   -5.2839   -6.6462    0.0000 C   0  0  0  0  0  0  0  0  0  0  0  0
   -5.9961   -7.0559    0.0000 C   0  0  0  0  0  0  0  0  0  0  0  0
   -5.9945   -7.8809    0.0000 C   0  0  0  0  0  0  0  0  0  0  0  0
   -5.2844   -8.2882    0.0000 C   0  0  0  0  0  0  0  0  0  0  0  0
    1.8572   -8.2831    0.0000 C   0  0  0  0  0  0  0  0  0  0  0  0
    2.5801   -7.8648    0.0000 C   0  0  0  0  0  0  0  0  0  0  0  0
   -0.3063   -7.0404    0.0000 O   0  0  0  0  0  0  0  0  0  0  0  0
   -0.3147   -6.2052    0.0000 C   0  0  0  0  0  0  0  0  0  0  0  0
    0.4043   -5.7806    0.0000 C   0  0  0  0  0  0  0  0  0  0  0  0
   -1.0420   -5.7949    0.0000 O   0  0  0  0  0  0  0  0  0  0  0  0
   -1.7314  -10.3556    0.0000 C   0  0  0  0  0  0  0  0  0  0  0  0
    3.3026   -8.2847    0.0000 C   0  0  0  0  0  0  0  0  0  0  0  0
    4.0249   -7.8670    0.0000 C   0  0  0  0  0  0  0  0  0  0  0  0
    4.0246   -7.0310    0.0000 C   0  0  0  0  0  0  0  0  0  0  0  0
    3.2958   -6.6144    0.0000 C   0  0  0  0  0  0  0  0  0  0  0  0
    2.5764   -7.0344    0.0000 C   0  0  0  0  0  0  0  0  0  0  0  0
   -3.1686   -7.0604    0.0000 O   0  0  0  0  0  0  0  0  0  0  0  0
    1.8581   -9.1182    0.0000 O   0  0  0  0  0  0  0  0  0  0  0  0
   -3.8675   -9.1250    0.0000 O   0  0  0  0  0  0  0  0  0  0  0  0
    1.7955   -7.2286    0.0000 O   0  0  0  0  0  0  0  0  0  0  0  0
 11 12  1  0
 26 27  1  0
  1  2  1  0
  1 28  1  0
 12 13  1  0
 28 29  1  0
  1  4  1  0
 29 30  1  0
 12 14  1  0
 15 31  1  0
  2  3  1  0
 31 32  2  0
  7 15  1  0
 31 33  1  0
  3  6  1  0
  9 34  1  0
 10 16  1  0
 30 35  2  0
  5  4  1  0
 35 36  1  0
 16 17  1  0
 36 37  2  0
  5 10  1  0
 37 38  1  0
 17 18  1  0
 38 39  2  0
 39 30  1  0
  6  7  1  0
 34 40  1  0
 18 19  2  0
 40 41  1  0
  7  8  1  0
 24 42  1  0
 19 20  1  0
 42 43  1  0
  8  9  1  0
 43 44  1  0
 20 21  2  0
 43 45  2  0
  9 10  1  0
  3 46  1  0
 21 22  1  0
 41 47  2  0
  5  6  1  0
 47 48  1  0
 22 23  2  0
 48 49  2  0
 23 18  1  0
 49 50  1  0
  6 11  1  0
 50 51  2  0
 51 41  1  0
  5 24  1  0
 26 52  2  0
 40 53  2  0
  4 25  1  0
 29 54  2  0
  8 12  1  0
 25 26  1  0
 17 55  2  0
M  END
>  <Classification>  (63) 
0

>  <pchembl>  (63) 
4.47

>  <InChI_steorem>  (63) 
InChI=1S/C42H44O13/c1-24-22-31(52-37(46)28-16-10-7-11-17-28)34(50-26(3)44)41(23-49-25(2)43)36(54-39(48)30-20-14-9-15-21-30)33(53-38(47)29-18-12-8-13-19-29)32-35(51-27(4)45)42(24,41)55-40(32,5)6/h7-21,24,31-36H,22-23H2,1-6H3

>  <source>  (63) 
ChEMBL25

>  <source_id>  (63) 
25

>  <optional_reference>  (63) 
10.1021/jm070290v

>  <optional_origin>  (63) 
None

>  <target>  (63) 
MDR1

$$$$

     RDKit          2D

 57 63  0  0  0  0  0  0  0  0999 V2000
    9.0659   -7.8132    0.0000 C   0  0  0  0  0  0  0  0  0  0  0  0
    9.0659   -8.6389    0.0000 C   0  0  0  0  0  0  0  0  0  0  0  0
    9.7798   -9.0473    0.0000 C   0  0  0  0  0  0  0  0  0  0  0  0
    9.7798   -7.3956    0.0000 C   0  0  0  0  0  0  0  0  0  0  0  0
   10.4937   -7.8132    0.0000 C   0  0  0  0  0  0  0  0  0  0  0  0
   10.4948   -8.6389    0.0000 C   0  0  0  0  0  0  0  0  0  0  0  0
   11.2047   -9.0464    0.0000 C   0  0  0  0  0  0  0  0  0  0  0  0
   11.9228   -8.6371    0.0000 C   0  0  0  0  0  0  0  0  0  0  0  0
   11.9217   -7.8113    0.0000 C   0  0  0  0  0  0  0  0  0  0  0  0
   11.2002   -7.3954    0.0000 C   0  0  0  0  0  0  0  0  0  0  0  0
   10.4856   -9.4556    0.0000 O   0  0  0  0  0  0  0  0  0  0  0  0
   11.9145   -9.4556    0.0000 C   0  0  0  0  0  0  0  0  0  0  0  0
   12.7032   -9.2374    0.0000 C   0  0  0  0  0  0  0  0  0  0  0  0
   12.3182  -10.1608    0.0000 C   0  0  0  0  0  0  0  0  0  0  0  0
   11.2046   -9.8676    0.0000 O   0  0  0  0  0  0  0  0  0  0  0  0
   11.6535   -6.7111    0.0000 O   0  0  0  0  0  0  0  0  0  0  0  0
   12.4734   -6.7589    0.0000 C   0  0  0  0  0  0  0  0  0  0  0  0
   12.8948   -6.0470    0.0000 C   0  0  0  0  0  0  0  0  0  0  0  0
   13.7164   -6.0711    0.0000 C   0  0  0  0  0  0  0  0  0  0  0  0
   14.1446   -5.3670    0.0000 C   0  0  0  0  0  0  0  0  0  0  0  0
   13.7505   -4.6456    0.0000 C   0  0  0  0  0  0  0  0  0  0  0  0
   12.9239   -4.6324    0.0000 C   0  0  0  0  0  0  0  0  0  0  0  0
   12.5012   -5.3308    0.0000 C   0  0  0  0  0  0  0  0  0  0  0  0
   10.4856   -6.9919    0.0000 C   0  0  0  0  0  0  0  0  0  0  0  0
    9.7786   -6.5744    0.0000 O   0  0  0  0  0  0  0  0  0  0  0  0
    9.0641   -6.1671    0.0000 C   0  0  0  0  0  0  0  0  0  0  0  0
    9.0630   -5.3412    0.0000 C   0  0  0  0  0  0  0  0  0  0  0  0
    8.3554   -7.4019    0.0000 O   0  0  0  0  0  0  0  0  0  0  0  0
    7.6426   -7.8166    0.0000 C   0  0  0  0  0  0  0  0  0  0  0  0
    6.9321   -7.4054    0.0000 C   0  0  0  0  0  0  0  0  0  0  0  0
   10.4953  -10.2804    0.0000 C   0  0  0  0  0  0  0  0  0  0  0  0
   10.4951  -11.1016    0.0000 O   0  0  0  0  0  0  0  0  0  0  0  0
    9.7014  -10.4856    0.0000 C   0  0  0  0  0  0  0  0  0  0  0  0
   12.6446   -7.3930    0.0000 O   0  0  0  0  0  0  0  0  0  0  0  0
    9.7798   -4.9309    0.0000 C   0  0  0  0  0  0  0  0  0  0  0  0
    9.7791   -4.1058    0.0000 C   0  0  0  0  0  0  0  0  0  0  0  0
    9.0627   -3.6931    0.0000 C   0  0  0  0  0  0  0  0  0  0  0  0
    8.3457   -4.1115    0.0000 C   0  0  0  0  0  0  0  0  0  0  0  0
    8.3501   -4.9352    0.0000 C   0  0  0  0  0  0  0  0  0  0  0  0
    6.9365   -6.5841    0.0000 C   0  0  0  0  0  0  0  0  0  0  0  0
    6.2270   -6.1730    0.0000 C   0  0  0  0  0  0  0  0  0  0  0  0
    5.5148   -6.5826    0.0000 C   0  0  0  0  0  0  0  0  0  0  0  0
    5.5164   -7.4076    0.0000 C   0  0  0  0  0  0  0  0  0  0  0  0
    6.2265   -7.8149    0.0000 C   0  0  0  0  0  0  0  0  0  0  0  0
   13.3681   -7.8098    0.0000 C   0  0  0  0  0  0  0  0  0  0  0  0
   14.0910   -7.3916    0.0000 C   0  0  0  0  0  0  0  0  0  0  0  0
   11.2046   -6.5671    0.0000 O   0  0  0  0  0  0  0  0  0  0  0  0
    9.7795   -9.8824    0.0000 C   0  0  0  0  0  0  0  0  0  0  0  0
   14.8134   -7.8115    0.0000 C   0  0  0  0  0  0  0  0  0  0  0  0
   15.5358   -7.3938    0.0000 C   0  0  0  0  0  0  0  0  0  0  0  0
   15.5354   -6.5578    0.0000 C   0  0  0  0  0  0  0  0  0  0  0  0
   14.8067   -6.1411    0.0000 C   0  0  0  0  0  0  0  0  0  0  0  0
   14.0873   -6.5611    0.0000 C   0  0  0  0  0  0  0  0  0  0  0  0
    7.6433   -8.6517    0.0000 O   0  0  0  0  0  0  0  0  0  0  0  0
    8.3423   -6.5872    0.0000 O   0  0  0  0  0  0  0  0  0  0  0  0
   13.3690   -8.6449    0.0000 O   0  0  0  0  0  0  0  0  0  0  0  0
   13.2739   -6.9687    0.0000 O   0  0  0  0  0  0  0  0  0  0  0  0
  1  2  1  0
  1 28  1  0
 12 13  1  0
 28 29  1  0
  1  4  1  0
 29 30  1  0
 12 14  1  0
 15 31  1  0
  2  3  1  0
 31 32  2  0
  7 15  1  0
 31 33  1  0
  3  6  1  0
  9 34  1  0
 10 16  1  0
 27 35  2  0
  5  4  1  0
 35 36  1  0
 16 17  1  0
 36 37  2  0
  5 10  1  0
 37 38  1  0
 17 18  1  0
 38 39  2  0
 39 27  1  0
  6  7  1  0
 30 40  2  0
 18 19  2  0
 40 41  1  0
  7  8  1  0
 41 42  2  0
 19 20  1  0
 42 43  1  0
  8  9  1  0
 43 44  2  0
 44 30  1  0
 20 21  2  0
 34 45  1  0
  9 10  1  0
 45 46  1  0
 21 22  1  0
 24 47  1  0
  5  6  1  0
  3 48  1  0
 22 23  2  0
 46 49  2  0
 23 18  1  0
 49 50  1  0
  6 11  1  0
 50 51  2  0
  5 24  1  0
 51 52  1  0
 52 53  2  0
 53 46  1  0
  4 25  1  0
 29 54  2  0
  8 12  1  0
 26 55  2  0
 25 26  1  0
 45 56  2  0
 11 12  1  0
 26 27  1  0
 17 57  2  0
M  END
>  <Classification>  (64) 
1

>  <pchembl>  (64) 
5.78

>  <InChI_steorem>  (64) 
InChI=1S/C45H44O12/c1-27-25-33(53-39(48)29-17-9-5-10-18-29)36(55-41(50)31-21-13-7-14-22-31)44(26-46)38(56-42(51)32-23-15-8-16-24-32)35(54-40(49)30-19-11-6-12-20-30)34-37(52-28(2)47)45(27,44)57-43(34,3)4/h5-24,27,33-38,46H,25-26H2,1-4H3

>  <source>  (64) 
ChEMBL25

>  <source_id>  (64) 
25

>  <optional_reference>  (64) 
10.1021/jm070290v

>  <optional_origin>  (64) 
None

>  <target>  (64) 
MDR1

$$$$

     RDKit          2D

 60 66  0  0  0  0  0  0  0  0999 V2000
   -2.3523  -16.5356    0.0000 C   0  0  0  0  0  0  0  0  0  0  0  0
   -2.3523  -17.3615    0.0000 C   0  0  0  0  0  0  0  0  0  0  0  0
   -1.6383  -17.7697    0.0000 C   0  0  0  0  0  0  0  0  0  0  0  0
   -1.6383  -16.1180    0.0000 C   0  0  0  0  0  0  0  0  0  0  0  0
   -0.9243  -16.5356    0.0000 C   0  0  0  0  0  0  0  0  0  0  0  0
   -0.9233  -17.3615    0.0000 C   0  0  0  0  0  0  0  0  0  0  0  0
   -0.2135  -17.7688    0.0000 C   0  0  0  0  0  0  0  0  0  0  0  0
    0.5046  -17.3596    0.0000 C   0  0  0  0  0  0  0  0  0  0  0  0
    0.5035  -16.5337    0.0000 C   0  0  0  0  0  0  0  0  0  0  0  0
   -0.2179  -16.1178    0.0000 C   0  0  0  0  0  0  0  0  0  0  0  0
   -0.9326  -18.1780    0.0000 O   0  0  0  0  0  0  0  0  0  0  0  0
    0.4964  -18.1780    0.0000 C   0  0  0  0  0  0  0  0  0  0  0  0
    1.2852  -17.9600    0.0000 C   0  0  0  0  0  0  0  0  0  0  0  0
    0.9000  -18.8832    0.0000 C   0  0  0  0  0  0  0  0  0  0  0  0
   -0.2136  -18.5900    0.0000 O   0  0  0  0  0  0  0  0  0  0  0  0
    0.2355  -15.4337    0.0000 O   0  0  0  0  0  0  0  0  0  0  0  0
    1.0553  -15.4813    0.0000 C   0  0  0  0  0  0  0  0  0  0  0  0
    1.4766  -14.7695    0.0000 C   0  0  0  0  0  0  0  0  0  0  0  0
    2.2984  -14.7935    0.0000 C   0  0  0  0  0  0  0  0  0  0  0  0
    2.7264  -14.0896    0.0000 C   0  0  0  0  0  0  0  0  0  0  0  0
    2.3325  -13.3680    0.0000 C   0  0  0  0  0  0  0  0  0  0  0  0
    1.5058  -13.3550    0.0000 C   0  0  0  0  0  0  0  0  0  0  0  0
    1.0831  -14.0533    0.0000 C   0  0  0  0  0  0  0  0  0  0  0  0
   -0.9326  -15.7144    0.0000 C   0  0  0  0  0  0  0  0  0  0  0  0
   -1.6395  -15.2968    0.0000 O   0  0  0  0  0  0  0  0  0  0  0  0
   -2.3541  -14.8895    0.0000 C   0  0  0  0  0  0  0  0  0  0  0  0
   -2.3552  -14.0637    0.0000 C   0  0  0  0  0  0  0  0  0  0  0  0
   -3.0626  -16.1244    0.0000 O   0  0  0  0  0  0  0  0  0  0  0  0
   -3.7756  -16.5391    0.0000 C   0  0  0  0  0  0  0  0  0  0  0  0
   -4.4859  -16.1278    0.0000 C   0  0  0  0  0  0  0  0  0  0  0  0
   -0.9229  -19.0029    0.0000 C   0  0  0  0  0  0  0  0  0  0  0  0
   -0.9230  -19.8241    0.0000 O   0  0  0  0  0  0  0  0  0  0  0  0
   -1.7167  -19.2080    0.0000 C   0  0  0  0  0  0  0  0  0  0  0  0
    1.2264  -16.1155    0.0000 O   0  0  0  0  0  0  0  0  0  0  0  0
   -1.6382  -13.6534    0.0000 C   0  0  0  0  0  0  0  0  0  0  0  0
   -1.6391  -12.8284    0.0000 C   0  0  0  0  0  0  0  0  0  0  0  0
   -2.3554  -12.4156    0.0000 C   0  0  0  0  0  0  0  0  0  0  0  0
   -3.0724  -12.8340    0.0000 C   0  0  0  0  0  0  0  0  0  0  0  0
   -3.0680  -13.6577    0.0000 C   0  0  0  0  0  0  0  0  0  0  0  0
   -4.4816  -15.3065    0.0000 C   0  0  0  0  0  0  0  0  0  0  0  0
   -5.1912  -14.8954    0.0000 C   0  0  0  0  0  0  0  0  0  0  0  0
   -5.9034  -15.3051    0.0000 C   0  0  0  0  0  0  0  0  0  0  0  0
   -5.9017  -16.1301    0.0000 C   0  0  0  0  0  0  0  0  0  0  0  0
   -5.1916  -16.5375    0.0000 C   0  0  0  0  0  0  0  0  0  0  0  0
    1.9501  -16.5323    0.0000 C   0  0  0  0  0  0  0  0  0  0  0  0
    2.6729  -16.1140    0.0000 C   0  0  0  0  0  0  0  0  0  0  0  0
   -0.2136  -15.2896    0.0000 O   0  0  0  0  0  0  0  0  0  0  0  0
   -0.2219  -14.4546    0.0000 C   0  0  0  0  0  0  0  0  0  0  0  0
    0.4972  -14.0298    0.0000 C   0  0  0  0  0  0  0  0  0  0  0  0
   -0.9493  -14.0442    0.0000 O   0  0  0  0  0  0  0  0  0  0  0  0
   -1.6386  -18.6048    0.0000 C   0  0  0  0  0  0  0  0  0  0  0  0
    3.3954  -16.5339    0.0000 C   0  0  0  0  0  0  0  0  0  0  0  0
    4.1178  -16.1164    0.0000 C   0  0  0  0  0  0  0  0  0  0  0  0
    4.1173  -15.2803    0.0000 C   0  0  0  0  0  0  0  0  0  0  0  0
    3.3886  -14.8637    0.0000 C   0  0  0  0  0  0  0  0  0  0  0  0
    2.6692  -15.2837    0.0000 C   0  0  0  0  0  0  0  0  0  0  0  0
   -3.0758  -15.3096    0.0000 O   0  0  0  0  0  0  0  0  0  0  0  0
   -3.7747  -17.3742    0.0000 O   0  0  0  0  0  0  0  0  0  0  0  0
    1.9509  -17.3674    0.0000 O   0  0  0  0  0  0  0  0  0  0  0  0
    1.8559  -15.6912    0.0000 O   0  0  0  0  0  0  0  0  0  0  0  0
 28 29  1  0
  1  4  1  0
 29 30  1  0
 12 14  1  0
 15 31  1  0
  2  3  1  0
 31 32  2  0
  7 15  1  0
 31 33  1  0
  3  6  1  0
  9 34  1  0
 10 16  1  0
 27 35  2  0
  5  4  1  0
 35 36  1  0
 16 17  1  0
 36 37  2  0
  5 10  1  0
 37 38  1  0
 17 18  1  0
 38 39  2  0
 39 27  1  0
  6  7  1  0
 30 40  2  0
 18 19  2  0
 40 41  1  0
  7  8  1  0
 41 42  2  0
 19 20  1  0
 42 43  1  0
  8  9  1  0
 43 44  2  0
 44 30  1  0
 20 21  2  0
 34 45  1  0
  9 10  1  0
 45 46  1  0
 21 22  1  0
 24 47  1  0
  5  6  1  0
 47 48  1  0
 22 23  2  0
 48 49  1  0
 23 18  1  0
 48 50  2  0
  6 11  1  0
  3 51  1  0
  5 24  1  0
 46 52  2  0
 52 53  1  0
  4 25  1  0
 53 54  2  0
  8 12  1  0
 54 55  1  0
 25 26  1  0
 55 56  2  0
 56 46  1  0
 11 12  1  0
 26 27  1  0
 26 57  2  0
  1  2  1  0
 29 58  2  0
  1 28  1  0
 45 59  2  0
 12 13  1  0
 17 60  2  0
M  END
>  <Classification>  (65) 
1

>  <pchembl>  (65) 
5.7

>  <InChI_steorem>  (65) 
InChI=1S/C47H46O13/c1-28-26-35(56-41(50)31-18-10-6-11-19-31)38(58-43(52)33-22-14-8-15-23-33)46(27-54-29(2)48)40(59-44(53)34-24-16-9-17-25-34)37(57-42(51)32-20-12-7-13-21-32)36-39(55-30(3)49)47(28,46)60-45(36,4)5/h6-25,28,35-40H,26-27H2,1-5H3

>  <source>  (65) 
ChEMBL25

>  <source_id>  (65) 
25

>  <optional_reference>  (65) 
10.1021/jm070290v

>  <optional_origin>  (65) 
None

>  <target>  (65) 
MDR1

$$$$

     RDKit          2D

 41 46  0  0  0  0  0  0  0  0999 V2000
   -4.4001  -20.2022    0.0000 C   0  0  0  0  0  0  0  0  0  0  0  0
   -4.4013  -21.0296    0.0000 C   0  0  0  0  0  0  0  0  0  0  0  0
   -3.6864  -21.4425    0.0000 C   0  0  0  0  0  0  0  0  0  0  0  0
   -3.6882  -19.7895    0.0000 C   0  0  0  0  0  0  0  0  0  0  0  0
   -2.9729  -20.1986    0.0000 C   0  0  0  0  0  0  0  0  0  0  0  0
   -2.9740  -21.0271    0.0000 C   0  0  0  0  0  0  0  0  0  0  0  0
   -2.2611  -21.4400    0.0000 C   0  0  0  0  0  0  0  0  0  0  0  0
   -1.5424  -21.0291    0.0000 N   0  0  0  0  0  0  0  0  0  0  0  0
   -1.5412  -20.2006    0.0000 C   0  0  0  0  0  0  0  0  0  0  0  0
   -2.2587  -19.7831    0.0000 C   0  0  0  0  0  0  0  0  0  0  0  0
   -0.8291  -21.4436    0.0000 C   0  0  0  0  0  0  0  0  0  0  0  0
   -0.1135  -21.0331    0.0000 C   0  0  0  0  0  0  0  0  0  0  0  0
    0.5999  -21.4476    0.0000 C   0  0  0  0  0  0  0  0  0  0  0  0
    0.5921  -22.2700    0.0000 C   0  0  0  0  0  0  0  0  0  0  0  0
    1.3046  -22.6844    0.0000 C   0  0  0  0  0  0  0  0  0  0  0  0
    2.0212  -22.2739    0.0000 C   0  0  0  0  0  0  0  0  0  0  0  0
    2.0208  -21.4446    0.0000 C   0  0  0  0  0  0  0  0  0  0  0  0
    1.3078  -21.0339    0.0000 C   0  0  0  0  0  0  0  0  0  0  0  0
    2.7350  -22.6874    0.0000 N   0  0  0  0  0  0  0  0  0  0  0  0
    3.4501  -22.2759    0.0000 C   0  0  0  0  0  0  0  0  0  0  0  0
    3.4513  -21.4509    0.0000 O   0  0  0  0  0  0  0  0  0  0  0  0
    4.1640  -22.6895    0.0000 N   0  0  0  0  0  0  0  0  0  0  0  0
    4.8791  -22.2780    0.0000 C   0  0  0  0  0  0  0  0  0  0  0  0
    6.2757  -24.7529    0.0000 C   0  0  0  0  0  0  0  0  0  0  0  0
    5.5427  -25.1365    0.0000 C   0  0  0  0  0  0  0  0  0  0  0  0
    5.5095  -25.9613    0.0000 N   0  0  0  0  0  0  0  0  0  0  0  0
    6.9721  -25.1912    0.0000 C   0  0  0  0  0  0  0  0  0  0  0  0
    6.9425  -26.0148    0.0000 C   0  0  0  0  0  0  0  0  0  0  0  0
    6.2108  -26.3999    0.0000 C   0  0  0  0  0  0  0  0  0  0  0  0
    6.1796  -27.2243    0.0000 C   0  0  0  0  0  0  0  0  0  0  0  0
    6.8792  -27.6645    0.0000 C   0  0  0  0  0  0  0  0  0  0  0  0
    7.6118  -27.2744    0.0000 C   0  0  0  0  0  0  0  0  0  0  0  0
    7.6395  -26.4512    0.0000 C   0  0  0  0  0  0  0  0  0  0  0  0
    6.3086  -23.9285    0.0000 C   0  0  0  0  0  0  0  0  0  0  0  0
    6.3040  -21.4539    0.0000 C   0  0  0  0  0  0  0  0  0  0  0  0
    6.3081  -22.2761    0.0000 C   0  0  0  0  0  0  0  0  0  0  0  0
    5.5951  -22.6895    0.0000 C   0  0  0  0  0  0  0  0  0  0  0  0
    4.8805  -21.4488    0.0000 C   0  0  0  0  0  0  0  0  0  0  0  0
    5.5941  -21.0390    0.0000 C   0  0  0  0  0  0  0  0  0  0  0  0
    5.5967  -23.5145    0.0000 N   0  0  0  0  0  0  0  0  0  0  0  0
    7.0257  -23.5118    0.0000 O   0  0  0  0  0  0  0  0  0  0  0  0
  7  8  1  0
 19 20  1  0
  8  9  1  0
 20 21  2  0
  9 10  1  0
 20 22  1  0
  5  6  1  0
 22 23  1  0
  8 11  1  0
 24 25  2  0
 11 12  1  0
 25 26  1  0
 26 29  2  0
  2  3  1  0
 28 27  2  0
 27 24  1  0
 12 13  1  0
  3  6  2  0
 28 29  1  0
 13 14  2  0
 29 30  1  0
  1  2  2  0
 30 31  2  0
 14 15  1  0
 31 32  1  0
  5  4  2  0
 32 33  2  0
 33 28  1  0
 15 16  2  0
 24 34  1  0
  4  1  1  0
 16 17  1  0
 35 36  2  0
  5 10  1  0
 36 37  1  0
 37 23  2  0
 17 18  2  0
 23 38  1  0
 18 13  1  0
 38 39  2  0
 39 35  1  0
  6  7  1  0
 37 40  1  0
 40 34  1  0
 16 19  1  0
 34 41  2  0
M  END
>  <Classification>  (66) 
1

>  <pchembl>  (66) 
6.09

>  <InChI_steorem>  (66) 
InChI=1S/C34H31N5O2/c40-33(28-21-26-8-3-4-10-30(26)35-22-28)37-31-11-5-6-12-32(31)38-34(41)36-29-15-13-24(14-16-29)17-19-39-20-18-25-7-1-2-9-27(25)23-39/h1-16,21-22H,17-20,23H2,(H,37,40)(H2,36,38,41)

>  <source>  (66) 
ChEMBL25

>  <source_id>  (66) 
25

>  <optional_reference>  (66) 
10.1016/j.bmc.2007.07.024

>  <optional_origin>  (66) 
None

>  <target>  (66) 
MDR1

$$$$

     RDKit          2D

 23 25  0  0  0  0  0  0  0  0999 V2000
    2.3750   -3.2167    0.0000 C   0  0  0  0  0  0  0  0  0  0  0  0
    2.3750   -4.0417    0.0000 C   0  0  0  0  0  0  0  0  0  0  0  0
    0.9500   -3.2125    0.0000 C   0  0  0  0  0  0  0  0  0  0  0  0
    1.6625   -2.8000    0.0000 O   0  0  0  0  0  0  0  0  0  0  0  0
    1.6542   -4.4417    0.0000 C   0  0  0  0  0  0  0  0  0  0  0  0
    0.9417   -4.0375    0.0000 C   0  0  0  0  0  0  0  0  0  0  0  0
    3.0917   -2.8042    0.0000 C   0  0  0  0  0  0  0  0  0  0  0  0
    0.2375   -2.7917    0.0000 C   0  0  0  0  0  0  0  0  0  0  0  0
    3.8042   -3.2250    0.0000 C   0  0  0  0  0  0  0  0  0  0  0  0
    4.5167   -2.8167    0.0000 C   0  0  0  0  0  0  0  0  0  0  0  0
    0.2375   -4.4417    0.0000 C   0  0  0  0  0  0  0  0  0  0  0  0
    1.6542   -5.2750    0.0000 O   0  0  0  0  0  0  0  0  0  0  0  0
    4.5250   -1.9875    0.0000 C   0  0  0  0  0  0  0  0  0  0  0  0
    3.1000   -1.9792    0.0000 C   0  0  0  0  0  0  0  0  0  0  0  0
    3.8125   -1.5750    0.0000 C   0  0  0  0  0  0  0  0  0  0  0  0
   -0.4708   -3.2125    0.0000 C   0  0  0  0  0  0  0  0  0  0  0  0
   -0.4708   -4.0375    0.0000 C   0  0  0  0  0  0  0  0  0  0  0  0
    5.2292   -3.2292    0.0000 O   0  0  0  0  0  0  0  0  0  0  0  0
    5.2417   -1.5750    0.0000 O   0  0  0  0  0  0  0  0  0  0  0  0
   -1.0583   -2.6250    0.0000 O   0  0  0  0  0  0  0  0  0  0  0  0
    5.9500   -2.8167    0.0000 C   0  0  0  0  0  0  0  0  0  0  0  0
    5.9542   -1.9875    0.0000 C   0  0  0  0  0  0  0  0  0  0  0  0
   -1.8583   -2.8375    0.0000 C   0  0  0  0  0  0  0  0  0  0  0  0
  2  1  2  0
  3  4  1  0
  4  1  1  0
  5  2  1  0
  6  3  2  0
  7  1  1  0
  8  3  1  0
  9  7  2  0
 10  9  1  0
 11  6  1  0
 12  5  2  0
 13 15  1  0
 14  7  1  0
 15 14  2  0
 16  8  2  0
 17 16  1  0
 18 10  1  0
 19 13  1  0
 20 16  1  0
 21 18  1  0
 22 19  1  0
 23 20  1  0
  6  5  1  0
 10 13  2  0
 11 17  2  0
M  END
>  <Classification>  (67) 
1

>  <pchembl>  (67) 
5.92

>  <InChI_steorem>  (67) 
InChI=1S/C18H16O5/c1-20-12-5-6-13-14(19)10-16(23-17(13)9-12)11-4-7-15(21-2)18(8-11)22-3/h4-10H,1-3H3

>  <source>  (67) 
ChEMBL25

>  <source_id>  (67) 
25

>  <optional_reference>  (67) 
10.1016/j.bbrc.2004.06.020

>  <optional_origin>  (67) 
None

>  <target>  (67) 
MDR1

$$$$

     RDKit          2D

 22 21  0  0  0  0  0  0  0  0999 V2000
    4.5125   -4.3917    0.0000 C   0  0  0  0  0  0  0  0  0  0  0  0
    5.2250   -4.8042    0.0000 O   0  0  0  0  0  0  0  0  0  0  0  0
    3.7917   -4.8042    0.0000 C   0  0  0  0  0  0  0  0  0  0  0  0
    5.9417   -4.3917    0.0000 C   0  0  0  0  0  0  0  0  0  0  0  0
    6.6542   -4.8042    0.0000 C   0  0  0  0  0  0  0  0  0  0  0  0
    4.5125   -3.5667    0.0000 O   0  0  0  0  0  0  0  0  0  0  0  0
    7.3667   -4.3917    0.0000 O   0  0  0  0  0  0  0  0  0  0  0  0
    3.0792   -4.3917    0.0000 C   0  0  0  0  0  0  0  0  0  0  0  0
    5.9417   -3.5667    0.0000 C   0  0  0  0  0  0  0  0  0  0  0  0
    6.6542   -5.6292    0.0000 O   0  0  0  0  0  0  0  0  0  0  0  0
    3.0792   -3.5667    0.0000 O   0  0  0  0  0  0  0  0  0  0  0  0
    3.7917   -5.6292    0.0000 C   0  0  0  0  0  0  0  0  0  0  0  0
    2.3667   -4.8042    0.0000 C   0  0  0  0  0  0  0  0  0  0  0  0
    6.6542   -3.1542    0.0000 C   0  0  0  0  0  0  0  0  0  0  0  0
    5.2250   -3.1542    0.0000 C   0  0  0  0  0  0  0  0  0  0  0  0
    7.3667   -6.0417    0.0000 C   0  0  0  0  0  0  0  0  0  0  0  0
    1.6542   -4.3917    0.0000 C   0  0  0  0  0  0  0  0  0  0  0  0
   -1.1958   -4.3917    0.0000 C   0  0  0  0  0  0  0  0  0  0  0  0
   -0.4833   -4.8042    0.0000 C   0  0  0  0  0  0  0  0  0  0  0  0
    0.9417   -4.8042    0.0000 C   0  0  0  0  0  0  0  0  0  0  0  0
    0.2292   -4.3917    0.0000 C   0  0  0  0  0  0  0  0  0  0  0  0
   -1.9083   -4.8042    0.0000 C   0  0  0  0  0  0  0  0  0  0  0  0
  2  1  1  0
  3  1  1  0
  4  2  1  0
  5  4  1  0
  6  1  2  0
  7  5  2  0
  8  3  1  0
  4  9  1  0
 10  5  1  0
  8 11  1  0
  3 12  1  0
 13  8  1  0
 14  9  1  0
 15  9  1  0
 16 10  1  0
 17 13  1  0
 18 19  1  0
 19 21  1  0
 20 17  1  0
 21 20  1  0
 22 18  1  0
M  END
>  <Classification>  (68) 
0

>  <pchembl>  (68) 
4.8

>  <InChI_steorem>  (68) 
InChI=1S/C17H32O5/c1-6-7-8-9-10-11-14(18)13(4)16(19)22-15(12(2)3)17(20)21-5/h12-15,18H,6-11H2,1-5H3

>  <source>  (68) 
ChEMBL25

>  <source_id>  (68) 
25

>  <optional_reference>  (68) 
10.1016/s0960-894x(99)00243-7

>  <optional_origin>  (68) 
None

>  <target>  (68) 
MDR1

$$$$

     RDKit          2D

 27 28  0  0  0  0  0  0  0  0999 V2000
    4.5792   -4.9667    0.0000 C   0  0  0  0  0  0  0  0  0  0  0  0
    5.3000   -5.3792    0.0000 N   0  0  0  0  0  0  0  0  0  0  0  0
    6.0167   -4.9667    0.0000 C   0  0  0  0  0  0  0  0  0  0  0  0
    7.4500   -4.9667    0.0000 C   0  0  0  0  0  0  0  0  0  0  0  0
    6.7375   -5.3792    0.0000 C   0  0  0  0  0  0  0  0  0  0  0  0
    8.1667   -5.3792    0.0000 C   0  0  0  0  0  0  0  0  0  0  0  0
    3.8625   -5.3792    0.0000 O   0  0  0  0  0  0  0  0  0  0  0  0
    6.0167   -4.1292    0.0000 C   0  0  0  0  0  0  0  0  0  0  0  0
    4.5792   -4.1292    0.0000 O   0  0  0  0  0  0  0  0  0  0  0  0
    8.1667   -6.2042    0.0000 O   0  0  0  0  0  0  0  0  0  0  0  0
    3.1500   -4.9667    0.0000 C   0  0  0  0  0  0  0  0  0  0  0  0
    6.7375   -6.2042    0.0000 O   0  0  0  0  0  0  0  0  0  0  0  0
    6.7292   -3.7250    0.0000 C   0  0  0  0  0  0  0  0  0  0  0  0
    8.8875   -4.9667    0.0000 O   0  0  0  0  0  0  0  0  0  0  0  0
    5.3000   -6.2042    0.0000 C   0  0  0  0  0  0  0  0  0  0  0  0
    2.4292   -5.3792    0.0000 C   0  0  0  0  0  0  0  0  0  0  0  0
    7.4417   -4.1292    0.0000 C   0  0  0  0  0  0  0  0  0  0  0  0
    6.7292   -2.9042    0.0000 C   0  0  0  0  0  0  0  0  0  0  0  0
    9.6042   -5.3792    0.0000 C   0  0  0  0  0  0  0  0  0  0  0  0
    1.7125   -4.9667    0.0000 C   0  0  0  0  0  0  0  0  0  0  0  0
    2.4292   -6.2042    0.0000 C   0  0  0  0  0  0  0  0  0  0  0  0
    1.7125   -6.6167    0.0000 C   0  0  0  0  0  0  0  0  0  0  0  0
    8.1542   -3.7250    0.0000 C   0  0  0  0  0  0  0  0  0  0  0  0
    7.4417   -2.4875    0.0000 C   0  0  0  0  0  0  0  0  0  0  0  0
    1.0000   -5.3792    0.0000 C   0  0  0  0  0  0  0  0  0  0  0  0
    1.0000   -6.2042    0.0000 C   0  0  0  0  0  0  0  0  0  0  0  0
    8.1542   -2.9000    0.0000 C   0  0  0  0  0  0  0  0  0  0  0  0
  2  1  1  0
  3  2  1  0
  4  5  1  0
  5  3  1  0
  6  4  1  0
  7  1  1  0
  3  8  1  0
  9  1  2  0
 10  6  2  0
 11  7  1  0
  5 12  1  0
 13  8  1  0
 14  6  1  0
 15  2  1  0
 16 11  1  0
 17 13  2  0
 18 13  1  0
 19 14  1  0
 20 16  2  0
 21 16  1  0
 22 21  2  0
 23 17  1  0
 24 18  2  0
 25 20  1  0
 26 22  1  0
 27 24  1  0
 25 26  2  0
 27 23  2  0
M  END
>  <Classification>  (69) 
0

>  <pchembl>  (69) 
4.77

>  <InChI_steorem>  (69) 
InChI=1S/C21H25NO5/c1-22(21(25)27-15-17-11-7-4-8-12-17)18(19(23)14-20(24)26-2)13-16-9-5-3-6-10-16/h3-12,18-19,23H,13-15H2,1-2H3

>  <source>  (69) 
ChEMBL25

>  <source_id>  (69) 
25

>  <optional_reference>  (69) 
10.1016/s0960-894x(99)00243-7

>  <optional_origin>  (69) 
None

>  <target>  (69) 
MDR1

$$$$

     RDKit          2D

 28 29  0  0  0  0  0  0  0  0999 V2000
    0.4667   -1.6042    0.0000 N   0  0  0  0  0  0  0  0  0  0  0  0
   -0.5208   -1.5667    0.0000 C   0  0  0  0  0  0  0  0  0  0  0  0
   -1.8833   -0.9167    0.0000 O   0  0  0  0  0  0  0  0  0  0  0  0
   -1.0583   -0.9167    0.0000 C   0  0  0  0  0  0  0  0  0  0  0  0
   -2.5958   -1.6417    0.0000 C   0  0  0  0  0  0  0  0  0  0  0  0
    0.4542   -3.3292    0.0000 C   0  0  0  0  0  0  0  0  0  0  0  0
   -1.1333   -4.1417    0.0000 C   0  0  0  0  0  0  0  0  0  0  0  0
   -0.6958   -3.3292    0.0000 C   0  0  0  0  0  0  0  0  0  0  0  0
   -2.0583   -4.1292    0.0000 C   0  0  0  0  0  0  0  0  0  0  0  0
   -3.5833   -1.8917    0.0000 C   0  0  0  0  0  0  0  0  0  0  0  0
   -2.6083   -3.1667    0.0000 O   0  0  0  0  0  0  0  0  0  0  0  0
   -0.9583   -2.1542    0.0000 O   0  0  0  0  0  0  0  0  0  0  0  0
    1.0417   -3.9042    0.0000 C   0  0  0  0  0  0  0  0  0  0  0  0
   -3.5833   -2.9042    0.0000 C   0  0  0  0  0  0  0  0  0  0  0  0
   -1.7333   -2.1417    0.0000 O   0  0  0  0  0  0  0  0  0  0  0  0
   -2.4833   -4.8417    0.0000 O   0  0  0  0  0  0  0  0  0  0  0  0
   -0.8333   -0.1292    0.0000 C   0  0  0  0  0  0  0  0  0  0  0  0
    1.1292   -1.0917    0.0000 C   0  0  0  0  0  0  0  0  0  0  0  0
   -1.4208   -2.9167    0.0000 O   0  0  0  0  0  0  0  0  0  0  0  0
    1.8417   -3.6917    0.0000 C   0  0  0  0  0  0  0  0  0  0  0  0
   -4.3833   -1.2667    0.0000 C   0  0  0  0  0  0  0  0  0  0  0  0
   -0.0333    0.0708    0.0000 C   0  0  0  0  0  0  0  0  0  0  0  0
   -1.4083    0.4833    0.0000 C   0  0  0  0  0  0  0  0  0  0  0  0
    2.4167   -4.2792    0.0000 C   0  0  0  0  0  0  0  0  0  0  0  0
    2.0417   -2.9042    0.0000 C   0  0  0  0  0  0  0  0  0  0  0  0
    2.8417   -2.6917    0.0000 C   0  0  0  0  0  0  0  0  0  0  0  0
    3.2167   -4.0667    0.0000 C   0  0  0  0  0  0  0  0  0  0  0  0
    3.4292   -3.2792    0.0000 C   0  0  0  0  0  0  0  0  0  0  0  0
  2  1  1  0
  3  4  1  0
  4  2  1  0
  5  3  1  0
  6  1  1  0
  7  8  1  0
  8  6  1  0
  9  7  1  0
 10  5  1  0
 11  9  1  0
 12  2  2  0
  6 13  1  0
 14 11  1  0
 15  5  2  0
 16  9  2  0
  4 17  1  0
 18  1  1  0
  8 19  1  0
 20 13  1  0
 10 21  1  0
 22 17  1  0
 23 17  1  0
 24 20  2  0
 25 20  1  0
 26 25  2  0
 27 24  1  0
 28 26  1  0
 28 27  2  0
 14 10  1  0
M  END
>  <Classification>  (70) 
0

>  <pchembl>  (70) 
4.66

>  <InChI_steorem>  (70) 
InChI=1S/C21H29NO6/c1-13(2)19-20(25)22(4)16(10-15-8-6-5-7-9-15)17(23)11-18(24)27-12-14(3)21(26)28-19/h5-9,13-14,16-17,19,23H,10-12H2,1-4H3

>  <source>  (70) 
ChEMBL25

>  <source_id>  (70) 
25

>  <optional_reference>  (70) 
10.1016/s0960-894x(99)00243-7

>  <optional_origin>  (70) 
None

>  <target>  (70) 
MDR1

$$$$

     RDKit          2D

 30 31  0  0  0  0  0  0  0  0999 V2000
    4.5792   -4.9667    0.0000 C   0  0  0  0  0  0  0  0  0  0  0  0
    5.3000   -5.3792    0.0000 N   0  0  0  0  0  0  0  0  0  0  0  0
    6.0167   -4.9667    0.0000 C   0  0  0  0  0  0  0  0  0  0  0  0
    7.4500   -4.9667    0.0000 C   0  0  0  0  0  0  0  0  0  0  0  0
    6.7375   -5.3792    0.0000 C   0  0  0  0  0  0  0  0  0  0  0  0
    8.1667   -5.3792    0.0000 C   0  0  0  0  0  0  0  0  0  0  0  0
    3.8625   -5.3792    0.0000 O   0  0  0  0  0  0  0  0  0  0  0  0
    6.0167   -4.1292    0.0000 C   0  0  0  0  0  0  0  0  0  0  0  0
    4.5792   -4.1292    0.0000 O   0  0  0  0  0  0  0  0  0  0  0  0
    8.1667   -6.2042    0.0000 O   0  0  0  0  0  0  0  0  0  0  0  0
    6.7375   -6.2042    0.0000 O   0  0  0  0  0  0  0  0  0  0  0  0
    3.1500   -4.9667    0.0000 C   0  0  0  0  0  0  0  0  0  0  0  0
    6.0167   -6.6167    0.0000 C   0  0  0  0  0  0  0  0  0  0  0  0
    6.7292   -3.7250    0.0000 C   0  0  0  0  0  0  0  0  0  0  0  0
    8.8875   -4.9667    0.0000 O   0  0  0  0  0  0  0  0  0  0  0  0
    5.3000   -6.2042    0.0000 C   0  0  0  0  0  0  0  0  0  0  0  0
    2.4292   -5.3792    0.0000 C   0  0  0  0  0  0  0  0  0  0  0  0
    6.0167   -7.4417    0.0000 O   0  0  0  0  0  0  0  0  0  0  0  0
    7.4417   -4.1292    0.0000 C   0  0  0  0  0  0  0  0  0  0  0  0
    6.7292   -2.9042    0.0000 C   0  0  0  0  0  0  0  0  0  0  0  0
    9.6042   -5.3792    0.0000 C   0  0  0  0  0  0  0  0  0  0  0  0
    1.7125   -4.9667    0.0000 C   0  0  0  0  0  0  0  0  0  0  0  0
    2.4292   -6.2042    0.0000 C   0  0  0  0  0  0  0  0  0  0  0  0
    5.3042   -7.8542    0.0000 C   0  0  0  0  0  0  0  0  0  0  0  0
    1.0000   -5.3792    0.0000 C   0  0  0  0  0  0  0  0  0  0  0  0
    1.7125   -6.6167    0.0000 C   0  0  0  0  0  0  0  0  0  0  0  0
    8.1542   -3.7250    0.0000 C   0  0  0  0  0  0  0  0  0  0  0  0
    7.4417   -2.4875    0.0000 C   0  0  0  0  0  0  0  0  0  0  0  0
    8.1542   -2.9000    0.0000 C   0  0  0  0  0  0  0  0  0  0  0  0
    1.0000   -6.2042    0.0000 C   0  0  0  0  0  0  0  0  0  0  0  0
  2  1  1  0
  3  2  1  0
  4  5  1  0
  5  3  1  0
  6  4  1  0
  7  1  1  0
  3  8  1  0
  9  1  2  0
 10  6  2  0
  5 11  1  0
 12  7  1  0
 13 11  1  0
 14  8  1  0
 15  6  1  0
 16  2  1  0
 17 12  1  0
 18 13  1  0
 19 14  2  0
 20 14  1  0
 21 15  1  0
 22 17  2  0
 23 17  1  0
 24 18  1  0
 25 22  1  0
 26 23  2  0
 27 19  1  0
 28 20  2  0
 29 28  1  0
 30 26  1  0
 25 30  2  0
 29 27  2  0
M  END
>  <Classification>  (71) 
0

>  <pchembl>  (71) 
4.83

>  <InChI_steorem>  (71) 
InChI=1S/C23H29NO6/c1-24(23(26)29-16-19-12-8-5-9-13-19)20(14-18-10-6-4-7-11-18)21(30-17-27-2)15-22(25)28-3/h4-13,20-21H,14-17H2,1-3H3

>  <source>  (71) 
ChEMBL25

>  <source_id>  (71) 
25

>  <optional_reference>  (71) 
10.1016/s0960-894x(99)00243-7

>  <optional_origin>  (71) 
None

>  <target>  (71) 
MDR1

$$$$

     RDKit          2D

 31 32  0  0  0  0  0  0  0  0999 V2000
    6.0042   -0.8792    0.0000 N   0  0  0  0  0  0  0  0  0  0  0  0
    4.9917   -0.8542    0.0000 C   0  0  0  0  0  0  0  0  0  0  0  0
    3.6542   -0.2000    0.0000 O   0  0  0  0  0  0  0  0  0  0  0  0
    4.4792   -0.2000    0.0000 C   0  0  0  0  0  0  0  0  0  0  0  0
    2.9417   -0.9167    0.0000 C   0  0  0  0  0  0  0  0  0  0  0  0
    5.9917   -2.6042    0.0000 C   0  0  0  0  0  0  0  0  0  0  0  0
    4.4042   -3.4167    0.0000 C   0  0  0  0  0  0  0  0  0  0  0  0
    4.8417   -2.6042    0.0000 C   0  0  0  0  0  0  0  0  0  0  0  0
    3.4792   -3.4125    0.0000 C   0  0  0  0  0  0  0  0  0  0  0  0
    1.9542   -1.1750    0.0000 C   0  0  0  0  0  0  0  0  0  0  0  0
    2.9292   -2.4417    0.0000 O   0  0  0  0  0  0  0  0  0  0  0  0
    4.4042   -1.4375    0.0000 O   0  0  0  0  0  0  0  0  0  0  0  0
    6.5792   -3.1875    0.0000 C   0  0  0  0  0  0  0  0  0  0  0  0
    1.9542   -2.1875    0.0000 C   0  0  0  0  0  0  0  0  0  0  0  0
    3.8042   -1.4167    0.0000 O   0  0  0  0  0  0  0  0  0  0  0  0
    3.0542   -4.1167    0.0000 O   0  0  0  0  0  0  0  0  0  0  0  0
    4.7042    0.5958    0.0000 C   0  0  0  0  0  0  0  0  0  0  0  0
    6.6667   -0.3667    0.0000 C   0  0  0  0  0  0  0  0  0  0  0  0
    4.1167   -2.1917    0.0000 O   0  0  0  0  0  0  0  0  0  0  0  0
    3.3167   -2.4042    0.0000 C   0  0  0  0  0  0  0  0  0  0  0  0
    7.3792   -2.9750    0.0000 C   0  0  0  0  0  0  0  0  0  0  0  0
    3.1042   -1.6042    0.0000 O   0  0  0  0  0  0  0  0  0  0  0  0
    1.1542   -0.5500    0.0000 C   0  0  0  0  0  0  0  0  0  0  0  0
    5.5042    0.7958    0.0000 C   0  0  0  0  0  0  0  0  0  0  0  0
    4.1292    1.2000    0.0000 C   0  0  0  0  0  0  0  0  0  0  0  0
    7.5792   -2.1792    0.0000 C   0  0  0  0  0  0  0  0  0  0  0  0
    7.9542   -3.5625    0.0000 C   0  0  0  0  0  0  0  0  0  0  0  0
    2.3042   -1.3875    0.0000 C   0  0  0  0  0  0  0  0  0  0  0  0
    8.7542   -3.3500    0.0000 C   0  0  0  0  0  0  0  0  0  0  0  0
    8.3792   -1.9667    0.0000 C   0  0  0  0  0  0  0  0  0  0  0  0
    8.9667   -2.5542    0.0000 C   0  0  0  0  0  0  0  0  0  0  0  0
  2  1  1  0
  3  4  1  0
  4  2  1  0
  5  3  1  0
  6  1  1  0
  7  8  1  0
  8  6  1  0
  9  7  1  0
 10  5  1  0
 11  9  1  0
 12  2  2  0
  6 13  1  0
 14 11  1  0
 15  5  2  0
 16  9  2  0
  4 17  1  0
 18  1  1  0
  8 19  1  0
 20 19  1  0
 21 13  1  0
 22 20  1  0
 10 23  1  0
 24 17  1  0
 25 17  1  0
 26 21  2  0
 27 21  1  0
 28 22  1  0
 29 27  2  0
 30 26  1  0
 31 29  1  0
 30 31  2  0
 14 10  1  0
M  END
>  <Classification>  (72) 
0

>  <pchembl>  (72) 
4.98

>  <InChI_steorem>  (72) 
InChI=1S/C23H33NO7/c1-15(2)21-22(26)24(4)18(11-17-9-7-6-8-10-17)19(30-14-28-5)12-20(25)29-13-16(3)23(27)31-21/h6-10,15-16,18-19,21H,11-14H2,1-5H3

>  <source>  (72) 
ChEMBL25

>  <source_id>  (72) 
25

>  <optional_reference>  (72) 
10.1016/s0960-894x(99)00243-7

>  <optional_origin>  (72) 
None

>  <target>  (72) 
MDR1

$$$$

     RDKit          2D

 27 28  0  0  0  0  0  0  0  0999 V2000
    2.7917   -0.2792    0.0000 N   0  0  0  0  0  0  0  0  0  0  0  0
    3.5042   -0.6917    0.0000 C   0  0  0  0  0  0  0  0  0  0  0  0
    2.0667   -0.6917    0.0000 N   0  0  0  0  0  0  0  0  0  0  0  0
    1.3542   -0.2875    0.0000 C   0  0  0  0  0  0  0  0  0  0  0  0
    4.2167   -0.2750    0.0000 C   0  0  0  0  0  0  0  0  0  0  0  0
    0.6417   -0.7042    0.0000 C   0  0  0  0  0  0  0  0  0  0  0  0
   -0.0708   -0.2917    0.0000 C   0  0  0  0  0  0  0  0  0  0  0  0
    2.7875    0.5458    0.0000 C   0  0  0  0  0  0  0  0  0  0  0  0
    4.2042    0.5458    0.0000 C   0  0  0  0  0  0  0  0  0  0  0  0
    4.9292   -0.6875    0.0000 C   0  0  0  0  0  0  0  0  0  0  0  0
    3.5042   -1.5167    0.0000 O   0  0  0  0  0  0  0  0  0  0  0  0
    1.3542    0.5375    0.0000 O   0  0  0  0  0  0  0  0  0  0  0  0
   -0.7833   -0.7042    0.0000 C   0  0  0  0  0  0  0  0  0  0  0  0
    4.9167    0.9625    0.0000 C   0  0  0  0  0  0  0  0  0  0  0  0
    5.6417   -0.2750    0.0000 C   0  0  0  0  0  0  0  0  0  0  0  0
    5.6375    0.5583    0.0000 C   0  0  0  0  0  0  0  0  0  0  0  0
   -1.4958   -0.2917    0.0000 O   0  0  0  0  0  0  0  0  0  0  0  0
    0.6417   -1.5292    0.0000 C   0  0  0  0  0  0  0  0  0  0  0  0
   -0.0708    0.5333    0.0000 C   0  0  0  0  0  0  0  0  0  0  0  0
   -0.0708   -1.9417    0.0000 C   0  0  0  0  0  0  0  0  0  0  0  0
    2.7792    1.3708    0.0000 C   0  0  0  0  0  0  0  0  0  0  0  0
    3.5000    0.9625    0.0000 C   0  0  0  0  0  0  0  0  0  0  0  0
    2.0667    0.9583    0.0000 C   0  0  0  0  0  0  0  0  0  0  0  0
   -0.7833   -1.5375    0.0000 C   0  0  0  0  0  0  0  0  0  0  0  0
    4.9042    1.7875    0.0000 C   0  0  0  0  0  0  0  0  0  0  0  0
    6.3542   -0.6792    0.0000 C   0  0  0  0  0  0  0  0  0  0  0  0
   -2.2083   -0.7042    0.0000 C   0  0  0  0  0  0  0  0  0  0  0  0
  2  1  1  0
  3  1  1  0
  4  3  1  0
  5  2  1  0
  6  4  1  0
  7  6  2  0
  8  1  1  0
  9  5  2  0
 10  5  1  0
 11  2  2  0
 12  4  2  0
 13  7  1  0
 14  9  1  0
 15 10  2  0
 16 15  1  0
 17 13  1  0
 18  6  1  0
 19  7  1  0
 20 18  2  0
 21  8  1  0
 22  8  1  0
 23  8  1  0
 24 20  1  0
 25 14  1  0
 26 15  1  0
 27 17  1  0
 16 14  2  0
 13 24  2  0
M  END
>  <Classification>  (73) 
0

>  <pchembl>  (73) 
4.35

>  <InChI_steorem>  (73) 
InChI=1S/C22H28N2O3/c1-14-11-15(2)13-17(12-14)21(26)24(22(4,5)6)23-20(25)18-9-8-10-19(27-7)16(18)3/h8-13H,1-7H3,(H,23,25)

>  <source>  (73) 
ChEMBL25

>  <source_id>  (73) 
25

>  <optional_reference>  (73) 
10.1016/j.bmc.2016.05.039

>  <optional_origin>  (73) 
None

>  <target>  (73) 
MDR1

$$$$

     RDKit          2D

 35 38  0  0  0  0  0  0  0  0999 V2000
    1.3292   -0.3500    0.0000 C   0  0  0  0  0  0  0  0  0  0  0  0
    3.4167    0.2458    0.0000 N   0  0  0  0  0  0  0  0  0  0  0  0
    1.8542   -0.6500    0.0000 O   0  0  0  0  0  0  0  0  0  0  0  0
    7.5750    1.4250    0.0000 C   0  0  0  0  0  0  0  0  0  0  0  0
    7.0542    1.1333    0.0000 C   0  0  0  0  0  0  0  0  0  0  0  0
    5.4917    0.2333    0.0000 C   0  0  0  0  0  0  0  0  0  0  0  0
    6.0167    0.5333    0.0000 C   0  0  0  0  0  0  0  0  0  0  0  0
    1.3292    0.2500    0.0000 C   0  0  0  0  0  0  0  0  0  0  0  0
    0.8167   -0.6500    0.0000 C   0  0  0  0  0  0  0  0  0  0  0  0
    5.4917   -0.3667    0.0000 O   0  0  0  0  0  0  0  0  0  0  0  0
    6.5292    1.4333    0.0000 C   0  0  0  0  0  0  0  0  0  0  0  0
    7.0500    0.5250    0.0000 C   0  0  0  0  0  0  0  0  0  0  0  0
    6.0125    1.1333    0.0000 C   0  0  0  0  0  0  0  0  0  0  0  0
    6.5292    0.2333    0.0000 C   0  0  0  0  0  0  0  0  0  0  0  0
    2.3750   -0.3500    0.0000 C   0  0  0  0  0  0  0  0  0  0  0  0
    2.3750    0.2458    0.0000 C   0  0  0  0  0  0  0  0  0  0  0  0
    2.8917   -0.6542    0.0000 C   0  0  0  0  0  0  0  0  0  0  0  0
    3.4125   -0.3542    0.0000 C   0  0  0  0  0  0  0  0  0  0  0  0
    2.8917    0.5458    0.0000 C   0  0  0  0  0  0  0  0  0  0  0  0
    3.9375    0.5458    0.0000 C   0  0  0  0  0  0  0  0  0  0  0  0
    4.4542    0.2375    0.0000 C   0  0  0  0  0  0  0  0  0  0  0  0
    4.9750    0.5375    0.0000 C   0  0  0  0  0  0  0  0  0  0  0  0
    8.0917    1.1250    0.0000 C   0  0  0  0  0  0  0  0  0  0  0  0
    7.5750    2.0250    0.0000 C   0  0  0  0  0  0  0  0  0  0  0  0
    7.7292    0.8458    0.0000 C   0  0  0  0  0  0  0  0  0  0  0  0
    1.8542    0.5500    0.0000 C   0  0  0  0  0  0  0  0  0  0  0  0
    0.2917   -0.3542    0.0000 C   0  0  0  0  0  0  0  0  0  0  0  0
    0.8167    0.5500    0.0000 C   0  0  0  0  0  0  0  0  0  0  0  0
    0.8167   -1.2542    0.0000 C   0  0  0  0  0  0  0  0  0  0  0  0
    1.8542    1.1583    0.0000 C   0  0  0  0  0  0  0  0  0  0  0  0
    0.2917   -1.5542    0.0000 C   0  0  0  0  0  0  0  0  0  0  0  0
   -0.2208   -0.6542    0.0000 C   0  0  0  0  0  0  0  0  0  0  0  0
    0.8167    1.1500    0.0000 C   0  0  0  0  0  0  0  0  0  0  0  0
    1.3292    1.4583    0.0000 C   0  0  0  0  0  0  0  0  0  0  0  0
   -0.2208   -1.2542    0.0000 C   0  0  0  0  0  0  0  0  0  0  0  0
  2 18  1  0
  3  1  1  0
  4  5  1  0
  5 12  2  0
  6 22  1  0
  7  6  1  0
  8  1  1  0
  9  1  1  0
 10  6  2  0
 11 13  2  0
 12 14  1  0
 13  7  1  0
 14  7  2  0
 15  3  1  0
 16 15  1  0
 17 15  1  0
 18 17  1  0
 19 16  1  0
 20  2  1  0
 21 20  1  0
 22 21  1  0
 23  4  1  0
 24  4  1  0
 25  4  1  0
 26  8  2  0
 27  9  2  0
 28  8  1  0
 29  9  1  0
 30 26  1  0
 31 29  2  0
 32 27  1  0
 33 28  2  0
 34 33  1  0
 35 31  1  0
 32 35  2  0
 30 34  2  0
  2 19  1  0
 11  5  1  0
M  END
>  <Classification>  (74) 
1

>  <pchembl>  (74) 
5.82

>  <InChI_steorem>  (74) 
InChI=1S/C32H39NO2/c1-32(2,3)28-18-16-25(17-19-28)30(34)15-10-22-33-23-20-29(21-24-33)35-31(26-11-6-4-7-12-26)27-13-8-5-9-14-27/h4-9,11-14,16-19,29,31H,10,15,20-24H2,1-3H3

>  <source>  (74) 
ChEMBL25

>  <source_id>  (74) 
25

>  <optional_reference>  (74) 
10.1021/jm101421d

>  <optional_origin>  (74) 
None

>  <target>  (74) 
MDR1

$$$$

     RDKit          2D

 26 28  0  0  0  0  0  0  0  0999 V2000
    5.1250   -2.5250    0.0000 C   0  0  0  0  0  0  0  0  0  0  0  0
    5.1250   -1.6917    0.0000 C   0  0  0  0  0  0  0  0  0  0  0  0
    4.4042   -1.2792    0.0000 C   0  0  0  0  0  0  0  0  0  0  0  0
    3.6917   -1.6917    0.0000 C   0  0  0  0  0  0  0  0  0  0  0  0
    4.4042   -2.9375    0.0000 O   0  0  0  0  0  0  0  0  0  0  0  0
    3.6917   -2.5250    0.0000 C   0  0  0  0  0  0  0  0  0  0  0  0
    5.8417   -2.9375    0.0000 C   0  0  0  0  0  0  0  0  0  0  0  0
    2.9750   -1.2792    0.0000 C   0  0  0  0  0  0  0  0  0  0  0  0
    7.2542   -3.7625    0.0000 C   0  0  0  0  0  0  0  0  0  0  0  0
    6.5417   -4.1750    0.0000 C   0  0  0  0  0  0  0  0  0  0  0  0
    7.2542   -2.9375    0.0000 C   0  0  0  0  0  0  0  0  0  0  0  0
    5.8292   -3.7625    0.0000 C   0  0  0  0  0  0  0  0  0  0  0  0
    6.5542   -2.5250    0.0000 C   0  0  0  0  0  0  0  0  0  0  0  0
    2.9750   -2.9375    0.0000 C   0  0  0  0  0  0  0  0  0  0  0  0
    2.2667   -1.6917    0.0000 C   0  0  0  0  0  0  0  0  0  0  0  0
    4.4042   -0.4542    0.0000 O   0  0  0  0  0  0  0  0  0  0  0  0
    2.2667   -2.5250    0.0000 C   0  0  0  0  0  0  0  0  0  0  0  0
    5.8417   -1.2792    0.0000 O   0  0  0  0  0  0  0  0  0  0  0  0
    2.9667   -0.4542    0.0000 O   0  0  0  0  0  0  0  0  0  0  0  0
    7.9792   -4.1750    0.0000 O   0  0  0  0  0  0  0  0  0  0  0  0
    7.9792   -2.5250    0.0000 O   0  0  0  0  0  0  0  0  0  0  0  0
    6.5417   -5.0000    0.0000 O   0  0  0  0  0  0  0  0  0  0  0  0
    1.5500   -2.9375    0.0000 O   0  0  0  0  0  0  0  0  0  0  0  0
    8.6917   -3.7625    0.0000 C   0  0  0  0  0  0  0  0  0  0  0  0
    5.8292   -5.4125    0.0000 C   0  0  0  0  0  0  0  0  0  0  0  0
    8.6917   -2.9375    0.0000 C   0  0  0  0  0  0  0  0  0  0  0  0
  2  1  2  0
  3  2  1  0
  4  6  2  0
  5  1  1  0
  6  5  1  0
  7  1  1  0
  8  4  1  0
  9 11  2  0
 10 12  2  0
 11 13  1  0
 12  7  1  0
 13  7  2  0
 14  6  1  0
 15 17  1  0
 16  3  2  0
 17 14  2  0
 18  2  1  0
 19  8  1  0
 20  9  1  0
 21 11  1  0
 22 10  1  0
 23 17  1  0
 24 20  1  0
 25 22  1  0
 26 21  1  0
  9 10  1  0
  4  3  1  0
  8 15  2  0
M  END
>  <Classification>  (75) 
1

>  <pchembl>  (75) 
5.5

>  <InChI_steorem>  (75) 
InChI=1S/C18H16O8/c1-23-12-4-8(5-13(24-2)18(12)25-3)17-16(22)15(21)14-10(20)6-9(19)7-11(14)26-17/h4-7,19-20,22H,1-3H3

>  <source>  (75) 
ChEMBL25

>  <source_id>  (75) 
25

>  <optional_reference>  (75) 
10.1016/j.bbrc.2004.06.020

>  <optional_origin>  (75) 
None

>  <target>  (75) 
MDR1

$$$$

     RDKit          2D

 27 29  0  0  0  0  0  0  0  0999 V2000
    4.2292   -2.5042    0.0000 C   0  0  0  0  0  0  0  0  0  0  0  0
    4.1792   -1.9042    0.0000 C   0  0  0  0  0  0  0  0  0  0  0  0
    3.6375   -1.6500    0.0000 C   0  0  0  0  0  0  0  0  0  0  0  0
    3.1417   -1.9917    0.0000 C   0  0  0  0  0  0  0  0  0  0  0  0
    3.7292   -2.8500    0.0000 O   0  0  0  0  0  0  0  0  0  0  0  0
    3.1917   -2.5917    0.0000 C   0  0  0  0  0  0  0  0  0  0  0  0
    4.7750   -2.7667    0.0000 C   0  0  0  0  0  0  0  0  0  0  0  0
    2.6042   -1.7375    0.0000 C   0  0  0  0  0  0  0  0  0  0  0  0
    4.8167   -3.3625    0.0000 C   0  0  0  0  0  0  0  0  0  0  0  0
    2.7042   -2.9375    0.0000 C   0  0  0  0  0  0  0  0  0  0  0  0
    2.1042   -2.0792    0.0000 C   0  0  0  0  0  0  0  0  0  0  0  0
    5.2667   -2.4250    0.0000 C   0  0  0  0  0  0  0  0  0  0  0  0
    5.3542   -3.6250    0.0000 C   0  0  0  0  0  0  0  0  0  0  0  0
    3.5875   -1.0542    0.0000 O   0  0  0  0  0  0  0  0  0  0  0  0
    2.1542   -2.6792    0.0000 C   0  0  0  0  0  0  0  0  0  0  0  0
    4.6750   -1.5667    0.0000 O   0  0  0  0  0  0  0  0  0  0  0  0
    5.8542   -3.2792    0.0000 C   0  0  0  0  0  0  0  0  0  0  0  0
    2.5542   -1.1417    0.0000 O   0  0  0  0  0  0  0  0  0  0  0  0
    5.8042   -2.6792    0.0000 C   0  0  0  0  0  0  0  0  0  0  0  0
    4.3250   -3.7042    0.0000 O   0  0  0  0  0  0  0  0  0  0  0  0
    1.6667   -3.0167    0.0000 O   0  0  0  0  0  0  0  0  0  0  0  0
    6.3917   -3.5417    0.0000 O   0  0  0  0  0  0  0  0  0  0  0  0
    5.2167   -1.8250    0.0000 C   0  0  0  0  0  0  0  0  0  0  0  0
    2.0042   -0.8792    0.0000 C   0  0  0  0  0  0  0  0  0  0  0  0
    4.3667   -4.3000    0.0000 C   0  0  0  0  0  0  0  0  0  0  0  0
    1.1250   -2.7625    0.0000 C   0  0  0  0  0  0  0  0  0  0  0  0
    6.4417   -4.1417    0.0000 C   0  0  0  0  0  0  0  0  0  0  0  0
  2  1  2  0
  3  2  1  0
  4  6  2  0
  5  1  1  0
  6  5  1  0
  7  1  1  0
  8  4  1  0
  9  7  2  0
 10  6  1  0
 11 15  1  0
 12  7  1  0
 13  9  1  0
 14  3  2  0
 15 10  2  0
 16  2  1  0
 17 19  1  0
 18  8  1  0
 19 12  2  0
 20  9  1  0
 21 15  1  0
 22 17  1  0
 23 16  1  0
 24 18  1  0
 25 20  1  0
 26 21  1  0
 27 22  1  0
  4  3  1  0
 17 13  2  0
  8 11  2  0
M  END
>  <Classification>  (76) 
0

>  <pchembl>  (76) 
4.57

>  <InChI_steorem>  (76) 
InChI=1S/C20H20O7/c1-22-11-6-7-13(14(8-11)24-3)19-20(26-5)18(21)17-15(25-4)9-12(23-2)10-16(17)27-19/h6-10H,1-5H3

>  <source>  (76) 
ChEMBL25

>  <source_id>  (76) 
25

>  <optional_reference>  (76) 
10.1016/j.ejmech.2013.06.035

>  <optional_origin>  (76) 
None

>  <target>  (76) 
MDR1

$$$$

     RDKit          2D

 37 40  0  0  0  0  0  0  0  0999 V2000
    2.8917   -2.7250    0.0000 N   0  0  0  0  0  0  0  0  0  0  0  0
    2.1167   -2.4417    0.0000 C   0  0  0  0  0  0  0  0  0  0  0  0
    2.1417   -1.6167    0.0000 C   0  0  0  0  0  0  0  0  0  0  0  0
    2.9292   -1.3917    0.0000 N   0  0  0  0  0  0  0  0  0  0  0  0
    3.4000   -2.0667    0.0000 C   0  0  0  0  0  0  0  0  0  0  0  0
    1.4042   -2.8625    0.0000 C   0  0  0  0  0  0  0  0  0  0  0  0
    1.4250   -1.2042    0.0000 C   0  0  0  0  0  0  0  0  0  0  0  0
    4.2250   -2.0917    0.0000 C   0  0  0  0  0  0  0  0  0  0  0  0
   -0.7208    0.0333    0.0000 N   0  0  0  0  0  0  0  0  0  0  0  0
   -0.7375   -4.1042    0.0000 N   0  0  0  0  0  0  0  0  0  0  0  0
    6.7000   -2.1542    0.0000 C   0  0  0  0  0  0  0  0  0  0  0  0
    1.4042   -3.6917    0.0000 C   0  0  0  0  0  0  0  0  0  0  0  0
    0.7042   -1.6167    0.0000 C   0  0  0  0  0  0  0  0  0  0  0  0
    0.6917   -2.4542    0.0000 C   0  0  0  0  0  0  0  0  0  0  0  0
    1.4250   -0.3792    0.0000 C   0  0  0  0  0  0  0  0  0  0  0  0
    4.6542   -1.3875    0.0000 C   0  0  0  0  0  0  0  0  0  0  0  0
    4.6167   -2.8167    0.0000 C   0  0  0  0  0  0  0  0  0  0  0  0
    7.0917   -2.8792    0.0000 C   0  0  0  0  0  0  0  0  0  0  0  0
   -0.0208   -3.6917    0.0000 C   0  0  0  0  0  0  0  0  0  0  0  0
   -0.0083   -0.3792    0.0000 C   0  0  0  0  0  0  0  0  0  0  0  0
    5.8750   -2.1375    0.0000 C   0  0  0  0  0  0  0  0  0  0  0  0
    0.6917   -4.1042    0.0000 C   0  0  0  0  0  0  0  0  0  0  0  0
   -0.0208   -2.8667    0.0000 C   0  0  0  0  0  0  0  0  0  0  0  0
   -0.0083   -1.2042    0.0000 C   0  0  0  0  0  0  0  0  0  0  0  0
    0.7042    0.0333    0.0000 C   0  0  0  0  0  0  0  0  0  0  0  0
    5.4750   -1.4042    0.0000 C   0  0  0  0  0  0  0  0  0  0  0  0
    5.4417   -2.8375    0.0000 C   0  0  0  0  0  0  0  0  0  0  0  0
   -1.4333   -0.3792    0.0000 C   0  0  0  0  0  0  0  0  0  0  0  0
   -1.4500   -3.6917    0.0000 C   0  0  0  0  0  0  0  0  0  0  0  0
    8.3125   -3.6250    0.0000 O   0  0  0  0  0  0  0  0  0  0  0  0
    7.9167   -2.9000    0.0000 C   0  0  0  0  0  0  0  0  0  0  0  0
    9.1375   -3.6417    0.0000 C   0  0  0  0  0  0  0  0  0  0  0  0
   -2.1458    0.0333    0.0000 C   0  0  0  0  0  0  0  0  0  0  0  0
   -1.4333   -1.2042    0.0000 C   0  0  0  0  0  0  0  0  0  0  0  0
   -1.4500   -2.8667    0.0000 C   0  0  0  0  0  0  0  0  0  0  0  0
   -2.2500   -3.9042    0.0000 C   0  0  0  0  0  0  0  0  0  0  0  0
    9.5292   -4.3667    0.0000 C   0  0  0  0  0  0  0  0  0  0  0  0
  2  1  1  0
  3  2  2  0
  4  5  1  0
  5  1  2  0
  6  2  1  0
  7  3  1  0
  8  5  1  0
  9 20  1  0
 10 19  1  0
 11 21  1  0
 12  6  2  0
 13  7  2  0
 14  6  1  0
 15  7  1  0
 16  8  2  0
 17  8  1  0
 18 11  2  3
 19 23  1  0
 20 25  1  0
 21 27  1  0
 22 12  1  0
 23 14  2  0
 24 13  1  0
 25 15  2  0
 26 16  1  0
 27 17  2  0
 28  9  1  0
 29 10  1  0
 30 31  1  0
 31 18  1  0
 32 30  1  0
 33 28  1  0
 34 28  1  0
 35 29  1  0
 36 29  1  0
 37 32  1  0
  3  4  1  0
 21 26  2  0
 19 22  2  0
 24 20  2  0
M  END
>  <Classification>  (77) 
1

>  <pchembl>  (77) 
7.5

>  <InChI_steorem>  (77) 
InChI=1S/C32H38N4O/c1-6-37-21-7-8-24-9-11-27(12-10-24)32-35-30(25-13-17-28(18-14-25)33-22(2)3)31(36-32)26-15-19-29(20-16-26)34-23(4)5/h7-20,22-23,33-34H,6,21H2,1-5H3,(H,35,36)

>  <source>  (77) 
ChEMBL25

>  <source_id>  (77) 
25

>  <optional_reference>  (77) 
10.1021/jm201705f

>  <optional_origin>  (77) 
None

>  <target>  (77) 
MDR1

$$$$

     RDKit          2D

 32 35  0  0  0  0  0  0  0  0999 V2000
    3.2042   -1.7417    0.0000 C   0  0  0  0  0  0  0  0  0  0  0  0
    3.9167   -2.1542    0.0000 C   0  0  0  0  0  0  0  0  0  0  0  0
    8.2000    0.3375    0.0000 N   0  0  0  0  0  0  0  0  0  0  0  0
    6.7750   -0.4792    0.0000 N   0  0  0  0  0  0  0  0  0  0  0  0
    8.9125    0.7500    0.0000 C   0  0  0  0  0  0  0  0  0  0  0  0
    3.2042   -0.9125    0.0000 C   0  0  0  0  0  0  0  0  0  0  0  0
    4.6292   -1.7375    0.0000 O   0  0  0  0  0  0  0  0  0  0  0  0
    3.9167   -0.4917    0.0000 O   0  0  0  0  0  0  0  0  0  0  0  0
    7.4875    0.7500    0.0000 C   0  0  0  0  0  0  0  0  0  0  0  0
    8.2000   -0.4875    0.0000 C   0  0  0  0  0  0  0  0  0  0  0  0
    3.9167   -2.9792    0.0000 C   0  0  0  0  0  0  0  0  0  0  0  0
    6.0625   -0.9000    0.0000 C   0  0  0  0  0  0  0  0  0  0  0  0
    9.6292    0.3333    0.0000 C   0  0  0  0  0  0  0  0  0  0  0  0
    8.9125    1.5708    0.0000 C   0  0  0  0  0  0  0  0  0  0  0  0
    6.7667    0.3375    0.0000 C   0  0  0  0  0  0  0  0  0  0  0  0
    7.4875   -0.9000    0.0000 C   0  0  0  0  0  0  0  0  0  0  0  0
    5.3417   -0.4917    0.0000 C   0  0  0  0  0  0  0  0  0  0  0  0
    4.6292   -0.9042    0.0000 C   0  0  0  0  0  0  0  0  0  0  0  0
   10.3417    1.5708    0.0000 C   0  0  0  0  0  0  0  0  0  0  0  0
    9.6250    1.9833    0.0000 C   0  0  0  0  0  0  0  0  0  0  0  0
   10.3417    0.7458    0.0000 C   0  0  0  0  0  0  0  0  0  0  0  0
   11.0542    1.9875    0.0000 F   0  0  0  0  0  0  0  0  0  0  0  0
    2.4875   -2.1542    0.0000 C   0  0  0  0  0  0  0  0  0  0  0  0
    5.3417    0.3333    0.0000 O   0  0  0  0  0  0  0  0  0  0  0  0
    2.4875   -0.5000    0.0000 C   0  0  0  0  0  0  0  0  0  0  0  0
    3.2042   -3.3917    0.0000 C   0  0  0  0  0  0  0  0  0  0  0  0
    4.6292   -3.3875    0.0000 C   0  0  0  0  0  0  0  0  0  0  0  0
    1.7750   -1.7417    0.0000 C   0  0  0  0  0  0  0  0  0  0  0  0
    3.2042   -4.2125    0.0000 C   0  0  0  0  0  0  0  0  0  0  0  0
    4.6417   -4.2042    0.0000 C   0  0  0  0  0  0  0  0  0  0  0  0
    1.7750   -0.9125    0.0000 C   0  0  0  0  0  0  0  0  0  0  0  0
    3.9250   -4.6250    0.0000 C   0  0  0  0  0  0  0  0  0  0  0  0
  2  1  1  0
  3 10  1  0
  4 12  1  0
  5  3  1  0
  6  1  1  0
  7  2  2  0
  8  6  1  0
  9 15  1  0
 10 16  1  0
 11  2  1  0
 12 17  1  0
 13  5  2  0
 14  5  1  0
 15  4  1  0
 16  4  1  0
 17 18  1  0
 18  8  1  0
 19 20  1  0
 20 14  2  0
 21 13  1  0
 22 19  1  0
 23  1  2  0
 24 17  1  0
 25  6  2  0
 26 11  2  0
 27 11  1  0
 28 23  1  0
 29 26  1  0
 30 27  2  0
 31 28  2  0
 32 30  1  0
 31 25  1  0
 32 29  2  0
  3  9  1  0
 19 21  2  0
M  END
>  <Classification>  (78) 
1

>  <pchembl>  (78) 
6.82

>  <InChI_steorem>  (78) 
InChI=1S/C26H27FN2O3/c27-21-10-12-22(13-11-21)29-16-14-28(15-17-29)18-23(30)19-32-25-9-5-4-8-24(25)26(31)20-6-2-1-3-7-20/h1-13,23,30H,14-19H2

>  <source>  (78) 
ChEMBL25

>  <source_id>  (78) 
25

>  <optional_reference>  (78) 
10.1021/jm201705f

>  <optional_origin>  (78) 
None

>  <target>  (78) 
MDR1

$$$$

     RDKit          2D

 32 35  0  0  0  0  0  0  0  0999 V2000
    3.6667   -1.9667    0.0000 C   0  0  0  0  0  0  0  0  0  0  0  0
    4.3792   -2.3792    0.0000 C   0  0  0  0  0  0  0  0  0  0  0  0
    8.6625    0.1125    0.0000 C   0  0  0  0  0  0  0  0  0  0  0  0
    7.2375   -0.7042    0.0000 N   0  0  0  0  0  0  0  0  0  0  0  0
    8.6625   -0.7125    0.0000 C   0  0  0  0  0  0  0  0  0  0  0  0
    7.9500    0.5250    0.0000 C   0  0  0  0  0  0  0  0  0  0  0  0
    3.6667   -1.1375    0.0000 C   0  0  0  0  0  0  0  0  0  0  0  0
    5.0917   -1.9625    0.0000 O   0  0  0  0  0  0  0  0  0  0  0  0
    4.3792   -0.7167    0.0000 O   0  0  0  0  0  0  0  0  0  0  0  0
    4.3792   -3.2042    0.0000 C   0  0  0  0  0  0  0  0  0  0  0  0
    9.0667    0.8333    0.0000 C   0  0  0  0  0  0  0  0  0  0  0  0
    7.2292    0.1125    0.0000 C   0  0  0  0  0  0  0  0  0  0  0  0
    7.9500   -1.1250    0.0000 C   0  0  0  0  0  0  0  0  0  0  0  0
    6.5250   -1.1250    0.0000 C   0  0  0  0  0  0  0  0  0  0  0  0
    5.8042   -0.7167    0.0000 C   0  0  0  0  0  0  0  0  0  0  0  0
    5.0917   -1.1292    0.0000 C   0  0  0  0  0  0  0  0  0  0  0  0
    9.3750   -0.3000    0.0000 O   0  0  0  0  0  0  0  0  0  0  0  0
    2.9500   -2.3792    0.0000 C   0  0  0  0  0  0  0  0  0  0  0  0
    5.8042    0.1083    0.0000 O   0  0  0  0  0  0  0  0  0  0  0  0
    2.9500   -0.7250    0.0000 C   0  0  0  0  0  0  0  0  0  0  0  0
    3.6667   -3.6167    0.0000 C   0  0  0  0  0  0  0  0  0  0  0  0
    5.0917   -3.6125    0.0000 C   0  0  0  0  0  0  0  0  0  0  0  0
    9.8917    0.8375    0.0000 C   0  0  0  0  0  0  0  0  0  0  0  0
    8.6500    1.5333    0.0000 C   0  0  0  0  0  0  0  0  0  0  0  0
    2.2375   -1.9667    0.0000 C   0  0  0  0  0  0  0  0  0  0  0  0
    5.1042   -4.4292    0.0000 C   0  0  0  0  0  0  0  0  0  0  0  0
    2.2375   -1.1375    0.0000 C   0  0  0  0  0  0  0  0  0  0  0  0
   10.3000    1.5583    0.0000 C   0  0  0  0  0  0  0  0  0  0  0  0
    9.0500    2.2583    0.0000 C   0  0  0  0  0  0  0  0  0  0  0  0
    3.6667   -4.4375    0.0000 C   0  0  0  0  0  0  0  0  0  0  0  0
    4.3875   -4.8500    0.0000 C   0  0  0  0  0  0  0  0  0  0  0  0
    9.8792    2.2708    0.0000 C   0  0  0  0  0  0  0  0  0  0  0  0
  2  1  1  0
  3  5  1  0
  4 14  1  0
  5 13  1  0
  6 12  1  0
  7  1  1  0
  8  2  2  0
  9  7  1  0
 10  2  1  0
 11  3  1  0
 12  4  1  0
 13  4  1  0
 14 15  1  0
 15 16  1  0
 16  9  1  0
 17  3  1  0
 18  1  2  0
 19 15  1  0
 20  7  2  0
 21 10  2  0
 22 10  1  0
 23 11  2  0
 24 11  1  0
 25 18  1  0
 26 22  2  0
 27 25  2  0
 28 23  1  0
 29 24  2  0
 30 21  1  0
 31 26  1  0
 32 29  1  0
 27 20  1  0
 31 30  2  0
  6  3  1  0
 32 28  2  0
M  END
>  <Classification>  (79) 
1

>  <pchembl>  (79) 
6.51

>  <InChI_steorem>  (79) 
InChI=1S/C27H29NO4/c29-23(19-28-17-15-27(31,16-18-28)22-11-5-2-6-12-22)20-32-25-14-8-7-13-24(25)26(30)21-9-3-1-4-10-21/h1-14,23,29,31H,15-20H2

>  <source>  (79) 
ChEMBL25

>  <source_id>  (79) 
25

>  <optional_reference>  (79) 
10.1021/jm201705f

>  <optional_origin>  (79) 
None

>  <target>  (79) 
MDR1

$$$$

     RDKit          2D

 34 37  0  0  0  0  0  0  0  0999 V2000
    7.6292    0.4500    0.0000 C   0  0  0  0  0  0  0  0  0  0  0  0
    2.6292   -1.6292    0.0000 C   0  0  0  0  0  0  0  0  0  0  0  0
    6.2042   -0.3667    0.0000 N   0  0  0  0  0  0  0  0  0  0  0  0
    3.3500   -2.0417    0.0000 C   0  0  0  0  0  0  0  0  0  0  0  0
    7.6292   -0.3750    0.0000 C   0  0  0  0  0  0  0  0  0  0  0  0
    6.9167    0.8625    0.0000 C   0  0  0  0  0  0  0  0  0  0  0  0
    2.6292   -0.8000    0.0000 C   0  0  0  0  0  0  0  0  0  0  0  0
    3.3417   -0.3792    0.0000 O   0  0  0  0  0  0  0  0  0  0  0  0
    8.0375    1.1708    0.0000 C   0  0  0  0  0  0  0  0  0  0  0  0
    4.0625   -1.6250    0.0000 O   0  0  0  0  0  0  0  0  0  0  0  0
    3.3500   -2.8667    0.0000 C   0  0  0  0  0  0  0  0  0  0  0  0
    6.1917    0.4500    0.0000 C   0  0  0  0  0  0  0  0  0  0  0  0
    6.9167   -0.7875    0.0000 C   0  0  0  0  0  0  0  0  0  0  0  0
    5.4917   -0.7875    0.0000 C   0  0  0  0  0  0  0  0  0  0  0  0
    4.7750   -0.3792    0.0000 C   0  0  0  0  0  0  0  0  0  0  0  0
    4.0625   -0.7917    0.0000 C   0  0  0  0  0  0  0  0  0  0  0  0
    8.3417    0.0375    0.0000 O   0  0  0  0  0  0  0  0  0  0  0  0
    4.0667   -3.2750    0.0000 C   0  0  0  0  0  0  0  0  0  0  0  0
    4.7667    0.4458    0.0000 O   0  0  0  0  0  0  0  0  0  0  0  0
    4.0667   -4.1000    0.0000 C   0  0  0  0  0  0  0  0  0  0  0  0
    1.9167   -2.0417    0.0000 C   0  0  0  0  0  0  0  0  0  0  0  0
    1.9167   -0.3875    0.0000 C   0  0  0  0  0  0  0  0  0  0  0  0
    8.8542    1.1750    0.0000 C   0  0  0  0  0  0  0  0  0  0  0  0
    7.6167    1.8708    0.0000 C   0  0  0  0  0  0  0  0  0  0  0  0
    4.7792   -4.5042    0.0000 C   0  0  0  0  0  0  0  0  0  0  0  0
    3.3542   -4.5042    0.0000 C   0  0  0  0  0  0  0  0  0  0  0  0
    1.2042   -1.6292    0.0000 C   0  0  0  0  0  0  0  0  0  0  0  0
    9.2667    1.8958    0.0000 C   0  0  0  0  0  0  0  0  0  0  0  0
    8.0167    2.5958    0.0000 C   0  0  0  0  0  0  0  0  0  0  0  0
    1.2042   -0.8000    0.0000 C   0  0  0  0  0  0  0  0  0  0  0  0
    3.3542   -5.3375    0.0000 C   0  0  0  0  0  0  0  0  0  0  0  0
    4.7875   -5.3292    0.0000 C   0  0  0  0  0  0  0  0  0  0  0  0
    4.0667   -5.7500    0.0000 C   0  0  0  0  0  0  0  0  0  0  0  0
    8.8417    2.6000    0.0000 C   0  0  0  0  0  0  0  0  0  0  0  0
  2  7  1  0
  3 12  1  0
  4  2  1  0
  5  1  1  0
  6  1  1  0
  7  8  1  0
  8 16  1  0
  9  1  1  0
 10  4  2  0
 11  4  1  0
 12  6  1  0
 13  5  1  0
 14  3  1  0
 15 14  1  0
 16 15  1  0
 17  1  1  0
 18 11  1  0
 19 15  1  0
 20 18  1  0
 21  2  2  0
 22  7  2  0
 23  9  2  0
 24  9  1  0
 25 20  2  0
 26 20  1  0
 27 30  2  0
 28 23  1  0
 29 24  2  0
 30 22  1  0
 31 26  2  0
 32 25  1  0
 33 31  1  0
 34 29  1  0
 13  3  1  0
 34 28  2  0
 21 27  1  0
 33 32  2  0
M  END
>  <Classification>  (80) 
1

>  <pchembl>  (80) 
7.24

>  <InChI_steorem>  (80) 
InChI=1S/C29H33NO4/c31-25(21-30-19-17-29(33,18-20-30)24-11-5-2-6-12-24)22-34-28-14-8-7-13-26(28)27(32)16-15-23-9-3-1-4-10-23/h1-14,25,31,33H,15-22H2

>  <source>  (80) 
ChEMBL25

>  <source_id>  (80) 
25

>  <optional_reference>  (80) 
10.1021/jm201705f

>  <optional_origin>  (80) 
None

>  <target>  (80) 
MDR1

$$$$

     RDKit          2D

 33 37  0  0  0  0  0  0  0  0999 V2000
    0.6417   -3.1042    0.0000 C   0  0  0  0  0  0  0  0  0  0  0  0
   -0.0833   -2.6792    0.0000 N   0  0  0  0  0  0  0  0  0  0  0  0
    0.6292   -3.9292    0.0000 C   0  0  0  0  0  0  0  0  0  0  0  0
    1.3542   -2.6917    0.0000 C   0  0  0  0  0  0  0  0  0  0  0  0
   -0.0833   -4.3500    0.0000 N   0  0  0  0  0  0  0  0  0  0  0  0
    2.0667   -3.9417    0.0000 C   0  0  0  0  0  0  0  0  0  0  0  0
    2.0667   -3.1125    0.0000 C   0  0  0  0  0  0  0  0  0  0  0  0
    1.3500   -4.3542    0.0000 C   0  0  0  0  0  0  0  0  0  0  0  0
   -0.7958   -3.1000    0.0000 C   0  0  0  0  0  0  0  0  0  0  0  0
   -0.8000   -3.9292    0.0000 C   0  0  0  0  0  0  0  0  0  0  0  0
    2.7917   -2.7042    0.0000 N   0  0  0  0  0  0  0  0  0  0  0  0
    2.7792   -4.3625    0.0000 N   0  0  0  0  0  0  0  0  0  0  0  0
   -0.0833   -1.8667    0.0000 C   0  0  0  0  0  0  0  0  0  0  0  0
    0.6292   -1.4542    0.0000 C   0  0  0  0  0  0  0  0  0  0  0  0
   -0.7958   -1.4542    0.0000 C   0  0  0  0  0  0  0  0  0  0  0  0
    3.5000   -3.9542    0.0000 C   0  0  0  0  0  0  0  0  0  0  0  0
   -0.0833   -0.2167    0.0000 C   0  0  0  0  0  0  0  0  0  0  0  0
    4.9292   -3.1417    0.0000 C   0  0  0  0  0  0  0  0  0  0  0  0
   -0.7958   -0.6292    0.0000 C   0  0  0  0  0  0  0  0  0  0  0  0
    0.6375   -0.6292    0.0000 C   0  0  0  0  0  0  0  0  0  0  0  0
    2.7875   -1.8792    0.0000 C   0  0  0  0  0  0  0  0  0  0  0  0
   -0.0833    0.6083    0.0000 Cl  0  0  0  0  0  0  0  0  0  0  0  0
    5.6500   -2.7292    0.0000 Cl  0  0  0  0  0  0  0  0  0  0  0  0
    3.5000   -3.1292    0.0000 C   0  0  0  0  0  0  0  0  0  0  0  0
    4.2042   -4.3750    0.0000 C   0  0  0  0  0  0  0  0  0  0  0  0
    4.9250   -3.9667    0.0000 C   0  0  0  0  0  0  0  0  0  0  0  0
    4.2167   -2.7250    0.0000 C   0  0  0  0  0  0  0  0  0  0  0  0
   -1.5125   -2.6917    0.0000 C   0  0  0  0  0  0  0  0  0  0  0  0
   -1.5125   -4.3417    0.0000 C   0  0  0  0  0  0  0  0  0  0  0  0
    3.4917   -1.4542    0.0000 C   0  0  0  0  0  0  0  0  0  0  0  0
    2.0667   -1.4667    0.0000 C   0  0  0  0  0  0  0  0  0  0  0  0
   -2.2333   -3.1042    0.0000 C   0  0  0  0  0  0  0  0  0  0  0  0
   -2.2333   -3.9292    0.0000 C   0  0  0  0  0  0  0  0  0  0  0  0
  2  1  1  0
  3  1  1  0
  4  1  2  0
  5  3  2  0
  6  7  1  0
  7  4  1  0
  8  3  1  0
  9  2  1  0
 10  5  1  0
 11  7  2  0
 12  6  1  0
 13  2  1  0
 14 13  2  0
 15 13  1  0
 16 12  1  0
 17 19  1  0
 18 26  2  0
 19 15  2  0
 20 14  1  0
 21 11  1  0
 22 17  1  0
 23 18  1  0
 24 16  1  0
 25 16  2  0
 26 25  1  0
 27 24  2  0
 28  9  2  0
 29 10  2  0
 30 21  1  0
 31 21  1  0
 32 28  1  0
 33 29  1  0
  8  6  2  0
  9 10  1  0
 20 17  2  0
 33 32  2  0
 27 18  1  0
M  END
>  <Classification>  (81) 
1

>  <pchembl>  (81) 
6.0

>  <InChI_steorem>  (81) 
InChI=1S/C27H22Cl2N4/c1-17(2)30-24-16-27-25(15-23(24)31-20-11-7-18(28)8-12-20)32-22-5-3-4-6-26(22)33(27)21-13-9-19(29)10-14-21/h3-17,31H,1-2H3

>  <source>  (81) 
ChEMBL25

>  <source_id>  (81) 
25

>  <optional_reference>  (81) 
10.1006/bbrc.2001.6000

>  <optional_origin>  (81) 
None

>  <target>  (81) 
MDR1

$$$$

     RDKit          2D

 36 40  0  0  0  0  0  0  0  0999 V2000
   12.1917   -0.6625    0.0000 C   0  0  0  0  0  0  0  0  0  0  0  0
   12.1917   -1.4875    0.0000 N   0  0  0  0  0  0  0  0  0  0  0  0
   12.9042   -0.2500    0.0000 C   0  0  0  0  0  0  0  0  0  0  0  0
   12.2042   -3.1375    0.0000 N   0  0  0  0  0  0  0  0  0  0  0  0
   11.5000   -6.8542    0.0000 C   0  0  0  0  0  0  0  0  0  0  0  0
   11.4792   -0.2542    0.0000 O   0  0  0  0  0  0  0  0  0  0  0  0
   10.7792   -6.4417    0.0000 C   0  0  0  0  0  0  0  0  0  0  0  0
   12.2125   -8.0917    0.0000 N   0  0  0  0  0  0  0  0  0  0  0  0
   11.4792   -1.9042    0.0000 C   0  0  0  0  0  0  0  0  0  0  0  0
   12.9125   -1.9000    0.0000 C   0  0  0  0  0  0  0  0  0  0  0  0
   10.7792   -5.6167    0.0000 O   0  0  0  0  0  0  0  0  0  0  0  0
   11.4917   -7.6792    0.0000 C   0  0  0  0  0  0  0  0  0  0  0  0
   13.6250   -0.6542    0.0000 C   0  0  0  0  0  0  0  0  0  0  0  0
   12.9042    0.5750    0.0000 C   0  0  0  0  0  0  0  0  0  0  0  0
   12.2042   -3.9625    0.0000 C   0  0  0  0  0  0  0  0  0  0  0  0
   12.9167   -2.7250    0.0000 C   0  0  0  0  0  0  0  0  0  0  0  0
   11.4875   -2.7292    0.0000 C   0  0  0  0  0  0  0  0  0  0  0  0
   11.4917   -4.3792    0.0000 C   0  0  0  0  0  0  0  0  0  0  0  0
   11.4917   -5.2042    0.0000 C   0  0  0  0  0  0  0  0  0  0  0  0
   11.1792   -3.6125    0.0000 O   0  0  0  0  0  0  0  0  0  0  0  0
   12.2125   -6.4375    0.0000 C   0  0  0  0  0  0  0  0  0  0  0  0
   10.0667   -7.6792    0.0000 C   0  0  0  0  0  0  0  0  0  0  0  0
   10.0667   -6.8542    0.0000 C   0  0  0  0  0  0  0  0  0  0  0  0
   12.9292   -7.6792    0.0000 C   0  0  0  0  0  0  0  0  0  0  0  0
   10.7792   -8.0917    0.0000 C   0  0  0  0  0  0  0  0  0  0  0  0
   13.6167    0.9875    0.0000 C   0  0  0  0  0  0  0  0  0  0  0  0
   12.1917    0.9833    0.0000 C   0  0  0  0  0  0  0  0  0  0  0  0
   13.6167   -1.4792    0.0000 C   0  0  0  0  0  0  0  0  0  0  0  0
   14.3292   -0.2417    0.0000 C   0  0  0  0  0  0  0  0  0  0  0  0
   12.9292   -6.8542    0.0000 C   0  0  0  0  0  0  0  0  0  0  0  0
   12.1875    1.8083    0.0000 C   0  0  0  0  0  0  0  0  0  0  0  0
   14.3375   -1.8917    0.0000 C   0  0  0  0  0  0  0  0  0  0  0  0
   15.0417   -0.6500    0.0000 C   0  0  0  0  0  0  0  0  0  0  0  0
   13.6167    1.8125    0.0000 C   0  0  0  0  0  0  0  0  0  0  0  0
   12.9000    2.2250    0.0000 C   0  0  0  0  0  0  0  0  0  0  0  0
   15.0500   -1.4792    0.0000 C   0  0  0  0  0  0  0  0  0  0  0  0
  2  1  1  0
  3  1  1  0
  4 16  1  0
  5  7  1  0
  6  1  2  0
  7 11  1  0
  8 12  2  0
  9  2  1  0
 10  2  1  0
 11 19  1  0
 12  5  1  0
 13  3  1  0
 14  3  1  0
 15  4  1  0
 16 10  1  0
 17  9  1  0
 18 15  1  0
 19 18  1  0
 20 18  1  0
 21  5  2  0
 22 23  1  0
 23  7  2  0
 24 30  2  0
 25 22  2  0
 26 14  2  0
 27 14  1  0
 28 13  2  0
 29 13  1  0
 30 21  1  0
 31 27  2  0
 32 28  1  0
 33 29  2  0
 34 26  1  0
 35 31  1  0
 36 33  1  0
  4 17  1  0
 34 35  2  0
 32 36  2  0
 25 12  1  0
  8 24  1  0
M  END
>  <Classification>  (82) 
1

>  <pchembl>  (82) 
6.4

>  <InChI_steorem>  (82) 
InChI=1S/C30H31N3O3/c34-25(22-36-28-15-7-14-27-26(28)13-8-16-31-27)21-32-17-19-33(20-18-32)30(35)29(23-9-3-1-4-10-23)24-11-5-2-6-12-24/h1-16,25,29,34H,17-22H2

>  <source>  (82) 
ChEMBL25

>  <source_id>  (82) 
25

>  <optional_reference>  (82) 
10.1007/s00280-001-0419-x

>  <optional_origin>  (82) 
None

>  <target>  (82) 
MDR1

$$$$

     RDKit          2D

 27 29  0  0  0  0  0  0  0  0999 V2000
    0.2375   -0.6167    0.0000 C   0  0  0  0  0  0  0  0  0  0  0  0
    0.9500   -1.0375    0.0000 C   0  0  0  0  0  0  0  0  0  0  0  0
   -0.4750   -1.0375    0.0000 C   0  0  0  0  0  0  0  0  0  0  0  0
    0.2375    0.2000    0.0000 C   0  0  0  0  0  0  0  0  0  0  0  0
    1.6667   -0.6167    0.0000 C   0  0  0  0  0  0  0  0  0  0  0  0
    1.6667    0.2000    0.0000 C   0  0  0  0  0  0  0  0  0  0  0  0
    0.9500    0.6125    0.0000 O   0  0  0  0  0  0  0  0  0  0  0  0
   -1.1875   -0.6167    0.0000 C   0  0  0  0  0  0  0  0  0  0  0  0
   -0.4750    0.6125    0.0000 C   0  0  0  0  0  0  0  0  0  0  0  0
   -1.1875    0.2000    0.0000 C   0  0  0  0  0  0  0  0  0  0  0  0
    0.9500   -1.8542    0.0000 O   0  0  0  0  0  0  0  0  0  0  0  0
    2.3792    0.6125    0.0000 C   0  0  0  0  0  0  0  0  0  0  0  0
   -0.4750   -1.8542    0.0000 O   0  0  0  0  0  0  0  0  0  0  0  0
   -1.9125   -1.0417    0.0000 O   0  0  0  0  0  0  0  0  0  0  0  0
   -1.9125    0.6125    0.0000 O   0  0  0  0  0  0  0  0  0  0  0  0
    2.3792    1.4458    0.0000 C   0  0  0  0  0  0  0  0  0  0  0  0
    3.1000    0.2000    0.0000 C   0  0  0  0  0  0  0  0  0  0  0  0
   -2.6333   -0.6292    0.0000 C   0  0  0  0  0  0  0  0  0  0  0  0
   -1.9125    1.4458    0.0000 C   0  0  0  0  0  0  0  0  0  0  0  0
    0.2375   -2.2750    0.0000 C   0  0  0  0  0  0  0  0  0  0  0  0
   -3.3500   -1.0417    0.0000 C   0  0  0  0  0  0  0  0  0  0  0  0
   -2.6250    1.8500    0.0000 C   0  0  0  0  0  0  0  0  0  0  0  0
   -4.0625   -0.6375    0.0000 C   0  0  0  0  0  0  0  0  0  0  0  0
   -3.3500    1.4458    0.0000 C   0  0  0  0  0  0  0  0  0  0  0  0
    3.1000    1.8583    0.0000 C   0  0  0  0  0  0  0  0  0  0  0  0
    3.8125    0.6125    0.0000 C   0  0  0  0  0  0  0  0  0  0  0  0
    3.8125    1.4458    0.0000 C   0  0  0  0  0  0  0  0  0  0  0  0
  2  1  1  0
  3  1  2  0
  4  1  1  0
  5  2  1  0
  6  7  1  0
  7  4  1  0
  8  3  1  0
  9  4  2  0
 10  9  1  0
 11  2  2  0
 12  6  1  0
 13  3  1  0
 14  8  1  0
 15 10  1  0
 16 12  2  0
 17 12  1  0
 18 14  1  0
 19 15  1  0
 20 13  1  0
 21 18  1  0
 22 19  1  0
 23 21  1  0
 24 22  1  0
 25 16  1  0
 26 17  2  0
 27 26  1  0
  8 10  2  0
  5  6  2  0
 25 27  2  0
M  END
>  <Classification>  (83) 
1

>  <pchembl>  (83) 
6.05

>  <InChI_steorem>  (83) 
InChI=1S/C22H24O5/c1-4-11-25-19-14-18-20(22(24-3)21(19)26-12-5-2)16(23)13-17(27-18)15-9-7-6-8-10-15/h6-10,13-14H,4-5,11-12H2,1-3H3

>  <source>  (83) 
ChEMBL25

>  <source_id>  (83) 
25

>  <optional_reference>  (83) 
10.1021/jm049949c

>  <optional_origin>  (83) 
None

>  <target>  (83) 
MDR1

$$$$

     RDKit          2D

 19 21  0  0  0  0  0  0  0  0999 V2000
    1.3917   -0.8292    0.0000 C   0  0  0  0  0  0  0  0  0  0  0  0
    0.6792   -1.2417    0.0000 C   0  0  0  0  0  0  0  0  0  0  0  0
   -0.0333   -0.8292    0.0000 C   0  0  0  0  0  0  0  0  0  0  0  0
   -0.7500   -1.2417    0.0000 C   0  0  0  0  0  0  0  0  0  0  0  0
   -0.7500   -2.0667    0.0000 C   0  0  0  0  0  0  0  0  0  0  0  0
    1.3917    0.0000    0.0000 C   0  0  0  0  0  0  0  0  0  0  0  0
    2.1042   -1.2417    0.0000 C   0  0  0  0  0  0  0  0  0  0  0  0
    2.8250   -0.8292    0.0000 C   0  0  0  0  0  0  0  0  0  0  0  0
    2.1042    0.4125    0.0000 C   0  0  0  0  0  0  0  0  0  0  0  0
    2.8250    0.0000    0.0000 C   0  0  0  0  0  0  0  0  0  0  0  0
   -1.4583   -2.4792    0.0000 C   0  0  0  0  0  0  0  0  0  0  0  0
    0.6792   -2.0667    0.0000 C   0  0  0  0  0  0  0  0  0  0  0  0
   -0.0333   -2.4792    0.0000 C   0  0  0  0  0  0  0  0  0  0  0  0
   -1.4625   -0.8292    0.0000 C   0  0  0  0  0  0  0  0  0  0  0  0
   -2.1833   -2.0667    0.0000 C   0  0  0  0  0  0  0  0  0  0  0  0
   -2.1833   -1.2417    0.0000 C   0  0  0  0  0  0  0  0  0  0  0  0
    2.1042    1.2375    0.0000 O   0  0  0  0  0  0  0  0  0  0  0  0
    3.5417   -1.2417    0.0000 O   0  0  0  0  0  0  0  0  0  0  0  0
   -2.8875   -2.4792    0.0000 O   0  0  0  0  0  0  0  0  0  0  0  0
  2  1  1  0
  3  2  2  0
  4  3  1  0
  5 13  1  0
  6  1  2  0
  7  1  1  0
  8  7  2  0
  9  6  1  0
 10  8  1  0
 11  5  2  0
 12  2  1  0
 13 12  2  0
 14  4  2  0
 15 11  1  0
 16 14  1  0
 17  9  1  0
 18  8  1  0
 19 15  1  0
 10  9  2  0
  4  5  1  0
 16 15  2  0
M  END
>  <Classification>  (84) 
0

>  <pchembl>  (84) 
4.28

>  <InChI_steorem>  (84) 
InChI=1S/C16H12O3/c17-14-4-3-10-5-11(1-2-12(10)6-14)13-7-15(18)9-16(19)8-13/h1-9,17-19H

>  <source>  (84) 
ChEMBL25

>  <source_id>  (84) 
25

>  <optional_reference>  (84) 
10.1021/jm060253o

>  <optional_origin>  (84) 
None

>  <target>  (84) 
MDR1

$$$$

     RDKit          2D

 21 23  0  0  0  0  0  0  0  0999 V2000
    0.6042   -1.5292    0.0000 C   0  0  0  0  0  0  0  0  0  0  0  0
   -0.1083   -1.9417    0.0000 C   0  0  0  0  0  0  0  0  0  0  0  0
   -0.8208   -1.5292    0.0000 C   0  0  0  0  0  0  0  0  0  0  0  0
   -1.5375   -1.9417    0.0000 C   0  0  0  0  0  0  0  0  0  0  0  0
   -1.5375   -2.7667    0.0000 C   0  0  0  0  0  0  0  0  0  0  0  0
    0.6042   -0.7000    0.0000 C   0  0  0  0  0  0  0  0  0  0  0  0
    1.3167   -1.9417    0.0000 C   0  0  0  0  0  0  0  0  0  0  0  0
    2.0375   -0.7000    0.0000 C   0  0  0  0  0  0  0  0  0  0  0  0
    2.0375   -1.5292    0.0000 C   0  0  0  0  0  0  0  0  0  0  0  0
    1.3167   -0.2875    0.0000 C   0  0  0  0  0  0  0  0  0  0  0  0
   -2.2458   -3.1792    0.0000 C   0  0  0  0  0  0  0  0  0  0  0  0
   -0.1083   -2.7667    0.0000 C   0  0  0  0  0  0  0  0  0  0  0  0
   -0.8208   -3.1792    0.0000 C   0  0  0  0  0  0  0  0  0  0  0  0
   -2.2500   -1.5292    0.0000 C   0  0  0  0  0  0  0  0  0  0  0  0
   -2.9708   -2.7667    0.0000 C   0  0  0  0  0  0  0  0  0  0  0  0
   -2.9708   -1.9417    0.0000 C   0  0  0  0  0  0  0  0  0  0  0  0
    1.3167    0.5375    0.0000 O   0  0  0  0  0  0  0  0  0  0  0  0
    2.7542   -1.9417    0.0000 O   0  0  0  0  0  0  0  0  0  0  0  0
   -3.6750   -3.1792    0.0000 O   0  0  0  0  0  0  0  0  0  0  0  0
    2.0292    0.9500    0.0000 C   0  0  0  0  0  0  0  0  0  0  0  0
    3.4667   -1.5250    0.0000 C   0  0  0  0  0  0  0  0  0  0  0  0
  2  1  1  0
  3  2  2  0
  4  3  1  0
  5 13  1  0
  6  1  2  0
  7  1  1  0
  8  9  1  0
  9  7  2  0
 10  6  1  0
 11  5  2  0
 12  2  1  0
 13 12  2  0
 14  4  2  0
 15 11  1  0
 16 14  1  0
 17 10  1  0
 18  9  1  0
 19 15  1  0
 20 17  1  0
 21 18  1  0
  8 10  2  0
  4  5  1  0
 16 15  2  0
M  END
>  <Classification>  (85) 
0

>  <pchembl>  (85) 
4.8

>  <InChI_steorem>  (85) 
InChI=1S/C18H16O3/c1-20-17-9-15(10-18(11-17)21-2)13-3-4-14-8-16(19)6-5-12(14)7-13/h3-11,19H,1-2H3

>  <source>  (85) 
ChEMBL25

>  <source_id>  (85) 
25

>  <optional_reference>  (85) 
10.1021/jm060253o

>  <optional_origin>  (85) 
None

>  <target>  (85) 
MDR1

$$$$

     RDKit          2D

 19 20  0  0  0  0  0  0  0  0999 V2000
   11.8182    0.8291    0.0000 C   0  0  0  0  0  0  0  0  0  0  0  0
   11.8170    0.0018    0.0000 C   0  0  0  0  0  0  0  0  0  0  0  0
   12.5319   -0.4110    0.0000 C   0  0  0  0  0  0  0  0  0  0  0  0
   13.2482    0.0023    0.0000 C   0  0  0  0  0  0  0  0  0  0  0  0
   13.2453    0.8327    0.0000 C   0  0  0  0  0  0  0  0  0  0  0  0
   12.5301    1.2419    0.0000 C   0  0  0  0  0  0  0  0  0  0  0  0
   13.9582    1.2479    0.0000 C   0  0  0  0  0  0  0  0  0  0  0  0
   14.6741    0.8381    0.0000 C   0  0  0  0  0  0  0  0  0  0  0  0
   15.3870    1.2533    0.0000 C   0  0  0  0  0  0  0  0  0  0  0  0
   16.1013    0.8401    0.0000 C   0  0  0  0  0  0  0  0  0  0  0  0
   16.8136    1.2546    0.0000 C   0  0  0  0  0  0  0  0  0  0  0  0
   16.8110    2.0804    0.0000 C   0  0  0  0  0  0  0  0  0  0  0  0
   16.0900    2.4900    0.0000 C   0  0  0  0  0  0  0  0  0  0  0  0
   15.3807    2.0731    0.0000 C   0  0  0  0  0  0  0  0  0  0  0  0
   16.0840    3.3149    0.0000 O   0  0  0  0  0  0  0  0  0  0  0  0
   17.5295    0.8444    0.0000 O   0  0  0  0  0  0  0  0  0  0  0  0
   16.7954    3.7251    0.0000 C   0  0  0  0  0  0  0  0  0  0  0  0
   18.2425    1.2593    0.0000 C   0  0  0  0  0  0  0  0  0  0  0  0
   12.5276    2.0668    0.0000 O   0  0  0  0  0  0  0  0  0  0  0  0
  4  5  2  0
  9 10  2  0
  2  3  2  0
 10 11  1  0
  5  6  1  0
 11 12  2  0
  6  1  2  0
 12 13  1  0
  1  2  1  0
 13 14  2  0
 14  9  1  0
  5  7  1  0
 13 15  1  0
  3  4  1  0
 11 16  1  0
  7  8  2  3
 15 17  1  0
 16 18  1  0
  8  9  1  0
  6 19  1  0
M  END
>  <Classification>  (86) 
0

>  <pchembl>  (86) 
4.17

>  <InChI_steorem>  (86) 
InChI=1S/C16H16O3/c1-18-14-9-12(10-15(11-14)19-2)7-8-13-5-3-4-6-16(13)17/h3-11,17H,1-2H3

>  <source>  (86) 
ChEMBL25

>  <source_id>  (86) 
25

>  <optional_reference>  (86) 
10.1021/jm060253o

>  <optional_origin>  (86) 
None

>  <target>  (86) 
MDR1

$$$$

     RDKit          2D

 20 21  0  0  0  0  0  0  0  0999 V2000
    4.9152   -8.4458    0.0000 C   0  0  0  0  0  0  0  0  0  0  0  0
    4.9141   -9.2732    0.0000 C   0  0  0  0  0  0  0  0  0  0  0  0
    5.6289   -9.6860    0.0000 C   0  0  0  0  0  0  0  0  0  0  0  0
    6.3453   -9.2727    0.0000 C   0  0  0  0  0  0  0  0  0  0  0  0
    6.3425   -8.4422    0.0000 C   0  0  0  0  0  0  0  0  0  0  0  0
    5.6271   -8.0330    0.0000 C   0  0  0  0  0  0  0  0  0  0  0  0
    7.0554   -8.0270    0.0000 C   0  0  0  0  0  0  0  0  0  0  0  0
    7.7714   -8.4368    0.0000 C   0  0  0  0  0  0  0  0  0  0  0  0
    8.4843   -8.0216    0.0000 C   0  0  0  0  0  0  0  0  0  0  0  0
    9.1987   -8.4348    0.0000 C   0  0  0  0  0  0  0  0  0  0  0  0
    9.9112   -8.0203    0.0000 C   0  0  0  0  0  0  0  0  0  0  0  0
    9.9085   -7.1944    0.0000 C   0  0  0  0  0  0  0  0  0  0  0  0
    9.1875   -6.7848    0.0000 C   0  0  0  0  0  0  0  0  0  0  0  0
    8.4780   -7.2017    0.0000 C   0  0  0  0  0  0  0  0  0  0  0  0
    9.1814   -5.9598    0.0000 O   0  0  0  0  0  0  0  0  0  0  0  0
   10.6270   -8.4305    0.0000 O   0  0  0  0  0  0  0  0  0  0  0  0
    9.8929   -5.5495    0.0000 C   0  0  0  0  0  0  0  0  0  0  0  0
   11.3401   -8.0156    0.0000 C   0  0  0  0  0  0  0  0  0  0  0  0
    5.6246   -7.2080    0.0000 O   0  0  0  0  0  0  0  0  0  0  0  0
    5.6287  -10.5110    0.0000 Cl  0  0  0  0  0  0  0  0  0  0  0  0
  9 10  2  0
  2  3  2  0
 10 11  1  0
  5  6  1  0
 11 12  2  0
  6  1  2  0
 12 13  1  0
  1  2  1  0
 13 14  2  0
 14  9  1  0
  5  7  1  0
 13 15  1  0
  3  4  1  0
 11 16  1  0
  7  8  2  3
 15 17  1  0
 16 18  1  0
  8  9  1  0
  6 19  1  0
  4  5  2  0
  3 20  1  0
M  END
>  <Classification>  (87) 
0

>  <pchembl>  (87) 
4.14

>  <InChI_steorem>  (87) 
InChI=1S/C16H15ClO3/c1-19-14-7-11(8-15(10-14)20-2)3-4-12-9-13(17)5-6-16(12)18/h3-10,18H,1-2H3

>  <source>  (87) 
ChEMBL25

>  <source_id>  (87) 
25

>  <optional_reference>  (87) 
10.1021/jm060253o

>  <optional_origin>  (87) 
None

>  <target>  (87) 
MDR1

$$$$

     RDKit          2D

 21 22  0  0  0  0  0  0  0  0999 V2000
   11.7277   -3.8208    0.0000 C   0  0  0  0  0  0  0  0  0  0  0  0
   11.7266   -4.6482    0.0000 C   0  0  0  0  0  0  0  0  0  0  0  0
   12.4414   -5.0610    0.0000 C   0  0  0  0  0  0  0  0  0  0  0  0
   13.1578   -4.6477    0.0000 C   0  0  0  0  0  0  0  0  0  0  0  0
   13.1550   -3.8172    0.0000 C   0  0  0  0  0  0  0  0  0  0  0  0
   12.4396   -3.4080    0.0000 C   0  0  0  0  0  0  0  0  0  0  0  0
   13.8679   -3.4020    0.0000 C   0  0  0  0  0  0  0  0  0  0  0  0
   14.5839   -3.8118    0.0000 C   0  0  0  0  0  0  0  0  0  0  0  0
   15.2968   -3.3966    0.0000 C   0  0  0  0  0  0  0  0  0  0  0  0
   16.0112   -3.8098    0.0000 C   0  0  0  0  0  0  0  0  0  0  0  0
   16.7237   -3.3953    0.0000 C   0  0  0  0  0  0  0  0  0  0  0  0
   16.7210   -2.5694    0.0000 C   0  0  0  0  0  0  0  0  0  0  0  0
   16.0000   -2.1598    0.0000 C   0  0  0  0  0  0  0  0  0  0  0  0
   15.2905   -2.5767    0.0000 C   0  0  0  0  0  0  0  0  0  0  0  0
   15.9939   -1.3348    0.0000 O   0  0  0  0  0  0  0  0  0  0  0  0
   17.4395   -3.8055    0.0000 O   0  0  0  0  0  0  0  0  0  0  0  0
   16.7054   -0.9245    0.0000 C   0  0  0  0  0  0  0  0  0  0  0  0
   18.1526   -3.3906    0.0000 C   0  0  0  0  0  0  0  0  0  0  0  0
   12.4371   -2.5830    0.0000 O   0  0  0  0  0  0  0  0  0  0  0  0
   11.0139   -3.4082    0.0000 O   0  0  0  0  0  0  0  0  0  0  0  0
   10.2995   -3.8209    0.0000 C   0  0  0  0  0  0  0  0  0  0  0  0
  2  3  2  0
 10 11  2  0
  5  6  1  0
 11 12  1  0
  6  1  2  0
 12 13  2  0
  1  2  1  0
 13 14  1  0
 14  9  2  0
  5  7  1  0
 13 15  1  0
  3  4  1  0
 11 16  1  0
  7  8  2  3
 15 17  1  0
 16 18  1  0
  8  9  1  0
  6 19  1  0
  4  5  2  0
  9 10  1  0
 20 21  1  0
  1 20  1  0
M  END
>  <Classification>  (88) 
0

>  <pchembl>  (88) 
4.47

>  <InChI_steorem>  (88) 
InChI=1S/C17H18O4/c1-19-14-9-12(10-15(11-14)20-2)7-8-13-5-4-6-16(21-3)17(13)18/h4-11,18H,1-3H3

>  <source>  (88) 
ChEMBL25

>  <source_id>  (88) 
25

>  <optional_reference>  (88) 
10.1021/jm060253o

>  <optional_origin>  (88) 
None

>  <target>  (88) 
MDR1

$$$$

     RDKit          2D

 21 23  0  0  0  0  0  0  0  0999 V2000
   -2.6081  -17.9006    0.0000 C   0  0  0  0  0  0  0  0  0  0  0  0
   -2.6093  -18.7288    0.0000 C   0  0  0  0  0  0  0  0  0  0  0  0
   -1.8937  -19.1420    0.0000 C   0  0  0  0  0  0  0  0  0  0  0  0
   -1.1766  -18.7283    0.0000 C   0  0  0  0  0  0  0  0  0  0  0  0
   -1.1795  -17.8970    0.0000 C   0  0  0  0  0  0  0  0  0  0  0  0
   -1.8955  -17.4874    0.0000 C   0  0  0  0  0  0  0  0  0  0  0  0
   -1.8942  -16.6634    0.0000 O   0  0  0  0  0  0  0  0  0  0  0  0
   -0.4632  -19.1405    0.0000 O   0  0  0  0  0  0  0  0  0  0  0  0
   -3.3228  -19.1414    0.0000 C   0  0  0  0  0  0  0  0  0  0  0  0
   -4.0380  -18.7262    0.0000 C   0  0  0  0  0  0  0  0  0  0  0  0
   -4.7530  -19.1378    0.0000 C   0  0  0  0  0  0  0  0  0  0  0  0
   -4.7541  -19.9645    0.0000 C   0  0  0  0  0  0  0  0  0  0  0  0
   -4.0342  -20.3778    0.0000 C   0  0  0  0  0  0  0  0  0  0  0  0
   -3.3221  -19.9638    0.0000 C   0  0  0  0  0  0  0  0  0  0  0  0
   -4.0298  -21.1994    0.0000 C   0  0  0  0  0  0  0  0  0  0  0  0
   -4.7455  -21.6137    0.0000 C   0  0  0  0  0  0  0  0  0  0  0  0
   -4.7436  -22.4387    0.0000 C   0  0  0  0  0  0  0  0  0  0  0  0
   -4.0267  -22.8505    0.0000 C   0  0  0  0  0  0  0  0  0  0  0  0
   -3.3103  -22.4312    0.0000 C   0  0  0  0  0  0  0  0  0  0  0  0
   -3.3157  -21.6075    0.0000 C   0  0  0  0  0  0  0  0  0  0  0  0
   -4.0234  -23.6763    0.0000 O   0  0  0  0  0  0  0  0  0  0  0  0
 10 11  2  0
  5  6  1  0
 11 12  1  0
  6  1  2  0
 12 13  2  0
  1  2  1  0
 13 14  1  0
 14  9  2  0
  2  9  1  0
  6  7  1  0
  3  4  1  0
 15 16  2  0
  4  8  1  0
 16 17  1  0
 17 18  2  0
  4  5  2  0
 18 19  1  0
  9 10  1  0
 19 20  2  0
 20 15  1  0
 13 15  1  0
  2  3  2  0
 18 21  1  0
M  END
>  <Classification>  (89) 
0

>  <pchembl>  (89) 
4.24

>  <InChI_steorem>  (89) 
InChI=1S/C18H14O3/c19-16-6-4-12(5-7-16)13-2-1-3-14(8-13)15-9-17(20)11-18(21)10-15/h1-11,19-21H

>  <source>  (89) 
ChEMBL25

>  <source_id>  (89) 
25

>  <optional_reference>  (89) 
10.1021/jm060253o

>  <optional_origin>  (89) 
None

>  <target>  (89) 
MDR1

$$$$

     RDKit          2D

 21 23  0  0  0  0  0  0  0  0999 V2000
    3.7644  -17.9741    0.0000 C   0  0  0  0  0  0  0  0  0  0  0  0
    3.7632  -18.8022    0.0000 C   0  0  0  0  0  0  0  0  0  0  0  0
    4.4786  -19.2154    0.0000 C   0  0  0  0  0  0  0  0  0  0  0  0
    5.1958  -18.8017    0.0000 C   0  0  0  0  0  0  0  0  0  0  0  0
    5.1929  -17.9705    0.0000 C   0  0  0  0  0  0  0  0  0  0  0  0
    4.4768  -17.5609    0.0000 C   0  0  0  0  0  0  0  0  0  0  0  0
    4.4781  -16.7370    0.0000 O   0  0  0  0  0  0  0  0  0  0  0  0
    5.9091  -19.2139    0.0000 O   0  0  0  0  0  0  0  0  0  0  0  0
    3.0497  -19.2148    0.0000 C   0  0  0  0  0  0  0  0  0  0  0  0
    2.3346  -18.7996    0.0000 C   0  0  0  0  0  0  0  0  0  0  0  0
    1.6197  -19.2112    0.0000 C   0  0  0  0  0  0  0  0  0  0  0  0
    1.6186  -20.0378    0.0000 C   0  0  0  0  0  0  0  0  0  0  0  0
    2.3385  -20.4510    0.0000 C   0  0  0  0  0  0  0  0  0  0  0  0
    3.0504  -20.0371    0.0000 C   0  0  0  0  0  0  0  0  0  0  0  0
    3.7644  -20.4470    0.0000 C   0  0  0  0  0  0  0  0  0  0  0  0
    3.7646  -21.2740    0.0000 C   0  0  0  0  0  0  0  0  0  0  0  0
    4.4797  -21.6853    0.0000 C   0  0  0  0  0  0  0  0  0  0  0  0
    5.1950  -21.2710    0.0000 C   0  0  0  0  0  0  0  0  0  0  0  0
    5.1907  -20.4410    0.0000 C   0  0  0  0  0  0  0  0  0  0  0  0
    4.4750  -20.0334    0.0000 C   0  0  0  0  0  0  0  0  0  0  0  0
    5.9114  -21.6815    0.0000 O   0  0  0  0  0  0  0  0  0  0  0  0
 10 11  2  0
  5  6  1  0
 11 12  1  0
  6  1  2  0
 12 13  2  0
  1  2  1  0
 13 14  1  0
 14  9  2  0
  2  9  1  0
  6  7  1  0
  3  4  1  0
 15 16  2  0
  4  8  1  0
 16 17  1  0
 17 18  2  0
  4  5  2  0
 18 19  1  0
  9 10  1  0
 19 20  2  0
 20 15  1  0
 14 15  1  0
  2  3  2  0
 18 21  1  0
M  END
>  <Classification>  (90) 
0

>  <pchembl>  (90) 
4.92

>  <InChI_steorem>  (90) 
InChI=1S/C18H14O3/c19-14-7-5-12(6-8-14)17-3-1-2-4-18(17)13-9-15(20)11-16(21)10-13/h1-11,19-21H

>  <source>  (90) 
ChEMBL25

>  <source_id>  (90) 
25

>  <optional_reference>  (90) 
10.1021/jm060253o

>  <optional_origin>  (90) 
None

>  <target>  (90) 
MDR1

$$$$

     RDKit          2D

 22 23  0  0  0  0  0  0  0  0999 V2000
   -3.8889   -9.6000    0.0000 C   0  0  0  0  0  0  0  0  0  0  0  0
   -3.8901  -10.4273    0.0000 C   0  0  0  0  0  0  0  0  0  0  0  0
   -3.1753  -10.8402    0.0000 C   0  0  0  0  0  0  0  0  0  0  0  0
   -2.4588  -10.4269    0.0000 C   0  0  0  0  0  0  0  0  0  0  0  0
   -2.4617   -9.5963    0.0000 C   0  0  0  0  0  0  0  0  0  0  0  0
   -3.1771   -9.1872    0.0000 C   0  0  0  0  0  0  0  0  0  0  0  0
   -1.7488   -9.1811    0.0000 C   0  0  0  0  0  0  0  0  0  0  0  0
   -1.0328   -9.5909    0.0000 C   0  0  0  0  0  0  0  0  0  0  0  0
   -0.3198   -9.1758    0.0000 C   0  0  0  0  0  0  0  0  0  0  0  0
    0.3946   -9.5890    0.0000 C   0  0  0  0  0  0  0  0  0  0  0  0
    1.1070   -9.1745    0.0000 C   0  0  0  0  0  0  0  0  0  0  0  0
    1.1043   -8.3486    0.0000 C   0  0  0  0  0  0  0  0  0  0  0  0
    0.3833   -7.9390    0.0000 C   0  0  0  0  0  0  0  0  0  0  0  0
   -0.3262   -8.3558    0.0000 C   0  0  0  0  0  0  0  0  0  0  0  0
    0.3773   -7.1140    0.0000 O   0  0  0  0  0  0  0  0  0  0  0  0
    1.8228   -9.5846    0.0000 O   0  0  0  0  0  0  0  0  0  0  0  0
    1.0887   -6.7037    0.0000 C   0  0  0  0  0  0  0  0  0  0  0  0
    2.5359   -9.1698    0.0000 C   0  0  0  0  0  0  0  0  0  0  0  0
   -4.6035   -9.1876    0.0000 O   0  0  0  0  0  0  0  0  0  0  0  0
   -5.3179   -9.6003    0.0000 C   0  0  0  0  0  0  0  0  0  0  0  0
   -6.0324   -9.1880    0.0000 C   0  0  0  0  0  0  0  0  0  0  0  0
   -4.6049  -10.8393    0.0000 O   0  0  0  0  0  0  0  0  0  0  0  0
 10 11  2  0
  5  6  1  0
 11 12  1  0
  6  1  2  0
 12 13  2  0
  1  2  1  0
 13 14  1  0
 14  9  2  0
  5  7  1  0
 13 15  1  0
  3  4  1  0
 11 16  1  0
  7  8  2  3
 15 17  1  0
 16 18  1  0
  8  9  1  0
  1 19  1  0
  4  5  2  0
 19 20  1  0
  9 10  1  0
 20 21  1  0
  2  3  2  0
  2 22  1  0
M  END
>  <Classification>  (91) 
0

>  <pchembl>  (91) 
4.38

>  <InChI_steorem>  (91) 
InChI=1S/C18H20O4/c1-4-22-18-11-13(7-8-17(18)19)5-6-14-9-15(20-2)12-16(10-14)21-3/h5-12,19H,4H2,1-3H3

>  <source>  (91) 
ChEMBL25

>  <source_id>  (91) 
25

>  <optional_reference>  (91) 
10.1021/jm060253o

>  <optional_origin>  (91) 
None

>  <target>  (91) 
MDR1

$$$$

     RDKit          2D

 23 25  0  0  0  0  0  0  0  0999 V2000
    0.1611   -3.7166    0.0000 C   0  0  0  0  0  0  0  0  0  0  0  0
    0.1599   -4.5440    0.0000 C   0  0  0  0  0  0  0  0  0  0  0  0
    0.8747   -4.9569    0.0000 C   0  0  0  0  0  0  0  0  0  0  0  0
    1.5912   -4.5435    0.0000 C   0  0  0  0  0  0  0  0  0  0  0  0
    1.5883   -3.7130    0.0000 C   0  0  0  0  0  0  0  0  0  0  0  0
    0.8729   -3.3039    0.0000 C   0  0  0  0  0  0  0  0  0  0  0  0
    0.8742   -2.4806    0.0000 O   0  0  0  0  0  0  0  0  0  0  0  0
    0.1585   -2.0703    0.0000 C   0  0  0  0  0  0  0  0  0  0  0  0
    2.3039   -4.9554    0.0000 O   0  0  0  0  0  0  0  0  0  0  0  0
    3.0177   -4.5417    0.0000 C   0  0  0  0  0  0  0  0  0  0  0  0
   -0.5530   -4.9562    0.0000 C   0  0  0  0  0  0  0  0  0  0  0  0
   -1.2674   -4.5414    0.0000 C   0  0  0  0  0  0  0  0  0  0  0  0
   -1.9817   -4.9527    0.0000 C   0  0  0  0  0  0  0  0  0  0  0  0
   -1.9828   -5.7785    0.0000 C   0  0  0  0  0  0  0  0  0  0  0  0
   -1.2636   -6.1915    0.0000 C   0  0  0  0  0  0  0  0  0  0  0  0
   -0.5523   -5.7778    0.0000 C   0  0  0  0  0  0  0  0  0  0  0  0
   -1.2592   -7.0123    0.0000 C   0  0  0  0  0  0  0  0  0  0  0  0
   -1.9742   -7.4261    0.0000 C   0  0  0  0  0  0  0  0  0  0  0  0
   -1.9723   -8.2503    0.0000 C   0  0  0  0  0  0  0  0  0  0  0  0
   -1.2562   -8.6617    0.0000 C   0  0  0  0  0  0  0  0  0  0  0  0
   -0.5405   -8.2428    0.0000 C   0  0  0  0  0  0  0  0  0  0  0  0
   -0.5459   -7.4199    0.0000 C   0  0  0  0  0  0  0  0  0  0  0  0
   -1.2528   -9.4867    0.0000 O   0  0  0  0  0  0  0  0  0  0  0  0
 11 12  2  0
  6  1  2  0
 12 13  1  0
  1  2  1  0
 13 14  2  0
  3  4  1  0
 14 15  1  0
  7  8  1  0
 15 16  2  0
 16 11  1  0
  2 11  1  0
  6  7  1  0
 17 18  2  0
  4  5  2  0
 18 19  1  0
  9 10  1  0
 19 20  2  0
  4  9  1  0
 20 21  1  0
  2  3  2  0
 21 22  2  0
 22 17  1  0
 15 17  1  0
  5  6  1  0
 20 23  1  0
M  END
>  <Classification>  (92) 
0

>  <pchembl>  (92) 
4.7

>  <InChI_steorem>  (92) 
InChI=1S/C20H18O3/c1-22-19-11-17(12-20(13-19)23-2)16-5-3-4-15(10-16)14-6-8-18(21)9-7-14/h3-13,21H,1-2H3

>  <source>  (92) 
ChEMBL25

>  <source_id>  (92) 
25

>  <optional_reference>  (92) 
10.1021/jm060253o

>  <optional_origin>  (92) 
None

>  <target>  (92) 
MDR1

$$$$

     RDKit          2D

 23 25  0  0  0  0  0  0  0  0999 V2000
    0.9069    1.9042    0.0000 C   0  0  0  0  0  0  0  0  0  0  0  0
    0.9057    1.0768    0.0000 C   0  0  0  0  0  0  0  0  0  0  0  0
    1.6206    0.6640    0.0000 C   0  0  0  0  0  0  0  0  0  0  0  0
    2.3370    1.0773    0.0000 C   0  0  0  0  0  0  0  0  0  0  0  0
    2.3341    1.9078    0.0000 C   0  0  0  0  0  0  0  0  0  0  0  0
    1.6188    2.3170    0.0000 C   0  0  0  0  0  0  0  0  0  0  0  0
    1.6201    3.1402    0.0000 O   0  0  0  0  0  0  0  0  0  0  0  0
    0.9044    3.5506    0.0000 C   0  0  0  0  0  0  0  0  0  0  0  0
    3.0497    0.6655    0.0000 O   0  0  0  0  0  0  0  0  0  0  0  0
    3.7635    1.0791    0.0000 C   0  0  0  0  0  0  0  0  0  0  0  0
    0.1929    0.6646    0.0000 C   0  0  0  0  0  0  0  0  0  0  0  0
   -0.5216    1.0794    0.0000 C   0  0  0  0  0  0  0  0  0  0  0  0
   -1.2359    0.6682    0.0000 C   0  0  0  0  0  0  0  0  0  0  0  0
   -1.2370   -0.1577    0.0000 C   0  0  0  0  0  0  0  0  0  0  0  0
   -0.5178   -0.5706    0.0000 C   0  0  0  0  0  0  0  0  0  0  0  0
    0.1936   -0.1570    0.0000 C   0  0  0  0  0  0  0  0  0  0  0  0
   -1.9477   -0.5724    0.0000 C   0  0  0  0  0  0  0  0  0  0  0  0
   -2.6627   -0.1586    0.0000 C   0  0  0  0  0  0  0  0  0  0  0  0
   -3.3764   -0.5708    0.0000 C   0  0  0  0  0  0  0  0  0  0  0  0
   -3.3764   -1.3966    0.0000 C   0  0  0  0  0  0  0  0  0  0  0  0
   -2.6567   -1.8086    0.0000 C   0  0  0  0  0  0  0  0  0  0  0  0
   -1.9459   -1.3940    0.0000 C   0  0  0  0  0  0  0  0  0  0  0  0
   -4.0901   -1.8105    0.0000 O   0  0  0  0  0  0  0  0  0  0  0  0
 11 12  2  0
  6  1  2  0
 12 13  1  0
  1  2  1  0
 13 14  2  0
  3  4  1  0
 14 15  1  0
  7  8  1  0
 15 16  2  0
 16 11  1  0
  2 11  1  0
  6  7  1  0
 17 18  2  0
  4  5  2  0
 18 19  1  0
  9 10  1  0
 19 20  2  0
  4  9  1  0
 20 21  1  0
  2  3  2  0
 21 22  2  0
 22 17  1  0
 14 17  1  0
  5  6  1  0
 20 23  1  0
M  END
>  <Classification>  (93) 
0

>  <pchembl>  (93) 
4.64

>  <InChI_steorem>  (93) 
InChI=1S/C20H18O3/c1-22-19-11-17(12-20(13-19)23-2)16-5-3-14(4-6-16)15-7-9-18(21)10-8-15/h3-13,21H,1-2H3

>  <source>  (93) 
ChEMBL25

>  <source_id>  (93) 
25

>  <optional_reference>  (93) 
10.1021/jm060253o

>  <optional_origin>  (93) 
None

>  <target>  (93) 
MDR1

$$$$

     RDKit          2D

 23 25  0  0  0  0  0  0  0  0999 V2000
   -2.8473  -12.1125    0.0000 C   0  0  0  0  0  0  0  0  0  0  0  0
   -2.8484  -12.9398    0.0000 C   0  0  0  0  0  0  0  0  0  0  0  0
   -2.1336  -13.3527    0.0000 C   0  0  0  0  0  0  0  0  0  0  0  0
   -1.4172  -12.9394    0.0000 C   0  0  0  0  0  0  0  0  0  0  0  0
   -1.4200  -12.1088    0.0000 C   0  0  0  0  0  0  0  0  0  0  0  0
   -2.1354  -11.6997    0.0000 C   0  0  0  0  0  0  0  0  0  0  0  0
   -2.1341  -10.8765    0.0000 O   0  0  0  0  0  0  0  0  0  0  0  0
   -2.8498  -10.4661    0.0000 C   0  0  0  0  0  0  0  0  0  0  0  0
   -0.7045  -13.3512    0.0000 O   0  0  0  0  0  0  0  0  0  0  0  0
    0.0094  -12.9376    0.0000 C   0  0  0  0  0  0  0  0  0  0  0  0
   -3.5613  -13.3520    0.0000 C   0  0  0  0  0  0  0  0  0  0  0  0
   -4.2757  -12.9373    0.0000 C   0  0  0  0  0  0  0  0  0  0  0  0
   -4.9900  -13.3485    0.0000 C   0  0  0  0  0  0  0  0  0  0  0  0
   -4.9911  -14.1744    0.0000 C   0  0  0  0  0  0  0  0  0  0  0  0
   -4.2720  -14.5873    0.0000 C   0  0  0  0  0  0  0  0  0  0  0  0
   -3.5606  -14.1737    0.0000 C   0  0  0  0  0  0  0  0  0  0  0  0
   -2.8473  -14.5833    0.0000 C   0  0  0  0  0  0  0  0  0  0  0  0
   -2.8470  -15.4094    0.0000 C   0  0  0  0  0  0  0  0  0  0  0  0
   -2.1326  -15.8204    0.0000 C   0  0  0  0  0  0  0  0  0  0  0  0
   -1.4179  -15.4065    0.0000 C   0  0  0  0  0  0  0  0  0  0  0  0
   -1.4222  -14.5772    0.0000 C   0  0  0  0  0  0  0  0  0  0  0  0
   -2.1372  -14.1699    0.0000 C   0  0  0  0  0  0  0  0  0  0  0  0
   -0.7021  -15.8166    0.0000 O   0  0  0  0  0  0  0  0  0  0  0  0
 11 12  2  0
  6  1  2  0
 12 13  1  0
  1  2  1  0
 13 14  2  0
  3  4  1  0
 14 15  1  0
  7  8  1  0
 15 16  2  0
 16 11  1  0
  2 11  1  0
  6  7  1  0
 17 18  2  0
  4  5  2  0
 18 19  1  0
  9 10  1  0
 19 20  2  0
  4  9  1  0
 20 21  1  0
  2  3  2  0
 21 22  2  0
 22 17  1  0
 16 17  1  0
  5  6  1  0
 20 23  1  0
M  END
>  <Classification>  (94) 
0

>  <pchembl>  (94) 
4.55

>  <InChI_steorem>  (94) 
InChI=1S/C20H18O3/c1-22-17-11-15(12-18(13-17)23-2)20-6-4-3-5-19(20)14-7-9-16(21)10-8-14/h3-13,21H,1-2H3

>  <source>  (94) 
ChEMBL25

>  <source_id>  (94) 
25

>  <optional_reference>  (94) 
10.1021/jm060253o

>  <optional_origin>  (94) 
None

>  <target>  (94) 
MDR1

$$$$

     RDKit          2D

 24 26  0  0  0  0  0  0  0  0999 V2000
    3.7902  -12.0541    0.0000 C   0  0  0  0  0  0  0  0  0  0  0  0
    3.7891  -12.8815    0.0000 C   0  0  0  0  0  0  0  0  0  0  0  0
    4.5039  -13.2944    0.0000 C   0  0  0  0  0  0  0  0  0  0  0  0
    5.2203  -12.8810    0.0000 C   0  0  0  0  0  0  0  0  0  0  0  0
    5.2175  -12.0505    0.0000 C   0  0  0  0  0  0  0  0  0  0  0  0
    4.5021  -11.6414    0.0000 C   0  0  0  0  0  0  0  0  0  0  0  0
    4.5034  -10.8181    0.0000 O   0  0  0  0  0  0  0  0  0  0  0  0
    3.7877  -10.4078    0.0000 C   0  0  0  0  0  0  0  0  0  0  0  0
    5.9330  -13.2929    0.0000 O   0  0  0  0  0  0  0  0  0  0  0  0
    6.6469  -12.8792    0.0000 C   0  0  0  0  0  0  0  0  0  0  0  0
    3.0762  -13.2937    0.0000 C   0  0  0  0  0  0  0  0  0  0  0  0
    2.3618  -12.8789    0.0000 C   0  0  0  0  0  0  0  0  0  0  0  0
    1.6475  -13.2902    0.0000 C   0  0  0  0  0  0  0  0  0  0  0  0
    1.6464  -14.1160    0.0000 C   0  0  0  0  0  0  0  0  0  0  0  0
    2.3655  -14.5290    0.0000 C   0  0  0  0  0  0  0  0  0  0  0  0
    3.0769  -14.1153    0.0000 C   0  0  0  0  0  0  0  0  0  0  0  0
    3.7902  -14.5250    0.0000 C   0  0  0  0  0  0  0  0  0  0  0  0
    3.7905  -15.3511    0.0000 C   0  0  0  0  0  0  0  0  0  0  0  0
    4.5049  -15.7621    0.0000 C   0  0  0  0  0  0  0  0  0  0  0  0
    5.2196  -15.3482    0.0000 C   0  0  0  0  0  0  0  0  0  0  0  0
    5.2153  -14.5189    0.0000 C   0  0  0  0  0  0  0  0  0  0  0  0
    4.5003  -14.1116    0.0000 C   0  0  0  0  0  0  0  0  0  0  0  0
    5.9354  -15.7583    0.0000 O   0  0  0  0  0  0  0  0  0  0  0  0
    6.6485  -15.3435    0.0000 C   0  0  0  0  0  0  0  0  0  0  0  0
  6  1  2  0
 12 13  2  0
  1  2  1  0
 13 14  1  0
  3  4  1  0
 14 15  2  0
  7  8  1  0
 15 16  1  0
 16 11  2  0
  2 11  1  0
  6  7  1  0
 17 18  2  0
  4  5  2  0
 18 19  1  0
  9 10  1  0
 19 20  2  0
  4  9  1  0
 20 21  1  0
  2  3  2  0
 21 22  2  0
 22 17  1  0
 16 17  1  0
  5  6  1  0
 20 23  1  0
 11 12  1  0
 23 24  1  0
M  END
>  <Classification>  (95) 
0

>  <pchembl>  (95) 
4.8

>  <InChI_steorem>  (95) 
InChI=1S/C21H20O3/c1-22-17-10-8-15(9-11-17)20-6-4-5-7-21(20)16-12-18(23-2)14-19(13-16)24-3/h4-14H,1-3H3

>  <source>  (95) 
ChEMBL25

>  <source_id>  (95) 
25

>  <optional_reference>  (95) 
10.1021/jm060253o

>  <optional_origin>  (95) 
None

>  <target>  (95) 
MDR1

$$$$

     RDKit          2D

 24 26  0  0  0  0  0  0  0  0999 V2000
    8.3444   -3.6833    0.0000 C   0  0  0  0  0  0  0  0  0  0  0  0
    8.3432   -4.5107    0.0000 C   0  0  0  0  0  0  0  0  0  0  0  0
    9.0581   -4.9235    0.0000 C   0  0  0  0  0  0  0  0  0  0  0  0
    9.7745   -4.5102    0.0000 C   0  0  0  0  0  0  0  0  0  0  0  0
    9.7716   -3.6797    0.0000 C   0  0  0  0  0  0  0  0  0  0  0  0
    9.0563   -3.2705    0.0000 C   0  0  0  0  0  0  0  0  0  0  0  0
    9.0576   -2.4473    0.0000 O   0  0  0  0  0  0  0  0  0  0  0  0
    8.3419   -2.0369    0.0000 C   0  0  0  0  0  0  0  0  0  0  0  0
   10.4872   -4.9220    0.0000 O   0  0  0  0  0  0  0  0  0  0  0  0
   11.2010   -4.5084    0.0000 C   0  0  0  0  0  0  0  0  0  0  0  0
    7.6304   -4.9229    0.0000 C   0  0  0  0  0  0  0  0  0  0  0  0
    6.9159   -4.5081    0.0000 C   0  0  0  0  0  0  0  0  0  0  0  0
    6.2016   -4.9193    0.0000 C   0  0  0  0  0  0  0  0  0  0  0  0
    6.2005   -5.7452    0.0000 C   0  0  0  0  0  0  0  0  0  0  0  0
    6.9197   -6.1581    0.0000 C   0  0  0  0  0  0  0  0  0  0  0  0
    7.6311   -5.7445    0.0000 C   0  0  0  0  0  0  0  0  0  0  0  0
    6.9241   -6.9789    0.0000 C   0  0  0  0  0  0  0  0  0  0  0  0
    6.2091   -7.3928    0.0000 C   0  0  0  0  0  0  0  0  0  0  0  0
    6.2110   -8.2170    0.0000 C   0  0  0  0  0  0  0  0  0  0  0  0
    6.9272   -8.6284    0.0000 C   0  0  0  0  0  0  0  0  0  0  0  0
    7.6429   -8.2095    0.0000 C   0  0  0  0  0  0  0  0  0  0  0  0
    7.6375   -7.3866    0.0000 C   0  0  0  0  0  0  0  0  0  0  0  0
    6.9305   -9.4534    0.0000 O   0  0  0  0  0  0  0  0  0  0  0  0
    6.2177   -9.8688    0.0000 C   0  0  0  0  0  0  0  0  0  0  0  0
  6  1  2  0
 12 13  2  0
  1  2  1  0
 13 14  1  0
  3  4  1  0
 14 15  2  0
  7  8  1  0
 15 16  1  0
 16 11  2  0
  2 11  1  0
  6  7  1  0
 17 18  2  0
  4  5  2  0
 18 19  1  0
  9 10  1  0
 19 20  2  0
  4  9  1  0
 20 21  1  0
  2  3  2  0
 21 22  2  0
 22 17  1  0
 15 17  1  0
  5  6  1  0
 20 23  1  0
 11 12  1  0
 23 24  1  0
M  END
>  <Classification>  (96) 
0

>  <pchembl>  (96) 
4.1

>  <InChI_steorem>  (96) 
InChI=1S/C21H20O3/c1-22-19-9-7-15(8-10-19)16-5-4-6-17(11-16)18-12-20(23-2)14-21(13-18)24-3/h4-14H,1-3H3

>  <source>  (96) 
ChEMBL25

>  <source_id>  (96) 
25

>  <optional_reference>  (96) 
10.1021/jm060253o

>  <optional_origin>  (96) 
None

>  <target>  (96) 
MDR1

$$$$

     RDKit          2D

 37 42  0  0  0  0  0  0  0  0999 V2000
   -4.1643  -10.9368    0.0000 C   0  0  0  0  0  0  0  0  0  0  0  0
   -4.1654  -11.7650    0.0000 C   0  0  0  0  0  0  0  0  0  0  0  0
   -3.4498  -12.1783    0.0000 C   0  0  0  0  0  0  0  0  0  0  0  0
   -3.4516  -10.5235    0.0000 C   0  0  0  0  0  0  0  0  0  0  0  0
   -1.7739  -11.4931    0.0000 C   0  0  0  0  0  0  0  0  0  0  0  0
   -2.7269  -11.7604    0.0000 C   0  0  0  0  0  0  0  0  0  0  0  0
   -1.8217  -10.6683    0.0000 C   0  0  0  0  0  0  0  0  0  0  0  0
   -2.7354  -10.9331    0.0000 C   0  0  0  0  0  0  0  0  0  0  0  0
   -1.0746  -11.1299    0.0000 C   0  0  0  0  0  0  0  0  0  0  0  0
   -1.0205  -11.9695    0.0000 C   0  0  0  0  0  0  0  0  0  0  0  0
   -0.2676  -12.3408    0.0000 C   0  0  0  0  0  0  0  0  0  0  0  0
    0.4318  -11.8735    0.0000 C   0  0  0  0  0  0  0  0  0  0  0  0
    0.3735  -11.0309    0.0000 C   0  0  0  0  0  0  0  0  0  0  0  0
   -0.3798  -10.6635    0.0000 C   0  0  0  0  0  0  0  0  0  0  0  0
   -1.6545   -9.7105    0.0000 C   0  0  0  0  0  0  0  0  0  0  0  0
   -1.4801  -10.3933    0.0000 C   0  0  0  0  0  0  0  0  0  0  0  0
   -0.7767  -10.4385    0.0000 C   0  0  0  0  0  0  0  0  0  0  0  0
   -0.5165   -9.7834    0.0000 N   0  0  0  0  0  0  0  0  0  0  0  0
   -1.0589   -9.3337    0.0000 C   0  0  0  0  0  0  0  0  0  0  0  0
   -0.1001  -10.2527    0.0000 O   0  0  0  0  0  0  0  0  0  0  0  0
   -1.0138   -8.6303    0.0000 O   0  0  0  0  0  0  0  0  0  0  0  0
    0.1665   -9.6090    0.0000 C   0  0  0  0  0  0  0  0  0  0  0  0
    0.6590  -10.1133    0.0000 C   0  0  0  0  0  0  0  0  0  0  0  0
    1.3419   -9.9388    0.0000 N   0  0  0  0  0  0  0  0  0  0  0  0
    1.8345  -10.4430    0.0000 C   0  0  0  0  0  0  0  0  0  0  0  0
    1.5324   -9.2602    0.0000 C   0  0  0  0  0  0  0  0  0  0  0  0
    2.5174  -10.2687    0.0000 C   0  0  0  0  0  0  0  0  0  0  0  0
    3.0099  -10.7728    0.0000 C   0  0  0  0  0  0  0  0  0  0  0  0
    2.8156  -11.4487    0.0000 C   0  0  0  0  0  0  0  0  0  0  0  0
    3.3075  -11.9527    0.0000 C   0  0  0  0  0  0  0  0  0  0  0  0
    3.9912  -11.7785    0.0000 C   0  0  0  0  0  0  0  0  0  0  0  0
    4.1804  -11.0957    0.0000 C   0  0  0  0  0  0  0  0  0  0  0  0
    3.6872  -10.5947    0.0000 C   0  0  0  0  0  0  0  0  0  0  0  0
    4.4849  -12.2825    0.0000 O   0  0  0  0  0  0  0  0  0  0  0  0
    4.2952  -12.9622    0.0000 C   0  0  0  0  0  0  0  0  0  0  0  0
    4.8662  -10.9180    0.0000 O   0  0  0  0  0  0  0  0  0  0  0  0
    5.3631  -11.4230    0.0000 C   0  0  0  0  0  0  0  0  0  0  0  0
  9  7  1  0
  6  8  2  0
 16 17  1  0
 17 18  1  0
 18 19  1  0
 19 15  1  0
  7  8  1  0
 17 20  2  0
  7 15  1  0
 19 21  2  0
  8  4  1  0
 18 22  1  0
  4  1  2  0
 22 23  1  0
  9 10  2  0
 23 24  1  0
 24 25  1  0
 10 11  1  0
 24 26  1  0
  2  3  2  0
 25 27  1  0
 11 12  2  0
 27 28  1  0
  3  6  1  0
 28 29  2  0
 12 13  1  0
 29 30  1  0
  1  2  1  0
 30 31  2  0
 13 14  2  0
 31 32  1  0
 14  9  1  0
 32 33  2  0
 33 28  1  0
 15 16  1  0
 31 34  1  0
 10  5  1  0
 34 35  1  0
  5  6  1  0
 32 36  1  0
  5 16  1  0
 36 37  1  0
M  END
>  <Classification>  (97) 
1

>  <pchembl>  (97) 
5.37

>  <InChI_steorem>  (97) 
InChI=1S/C31H32N2O4/c1-32(15-14-19-12-13-24(36-2)25(18-19)37-3)16-17-33-30(34)28-26-20-8-4-5-9-21(20)27(29(28)31(33)35)23-11-7-6-10-22(23)26/h4-13,18,26-29H,14-17H2,1-3H3

>  <source>  (97) 
ChEMBL25

>  <source_id>  (97) 
25

>  <optional_reference>  (97) 
10.1021/jm060056p

>  <optional_origin>  (97) 
None

>  <target>  (97) 
MDR1

$$$$

     RDKit          2D

 38 43  0  0  0  0  0  0  0  0999 V2000
   -4.6306   -5.5349    0.0000 C   0  0  0  0  0  0  0  0  0  0  0  0
   -4.6317   -6.3637    0.0000 C   0  0  0  0  0  0  0  0  0  0  0  0
   -3.9156   -6.7774    0.0000 C   0  0  0  0  0  0  0  0  0  0  0  0
   -3.9174   -5.1214    0.0000 C   0  0  0  0  0  0  0  0  0  0  0  0
   -2.2385   -6.0916    0.0000 C   0  0  0  0  0  0  0  0  0  0  0  0
   -3.1922   -6.3591    0.0000 C   0  0  0  0  0  0  0  0  0  0  0  0
   -2.2863   -5.2663    0.0000 C   0  0  0  0  0  0  0  0  0  0  0  0
   -3.2007   -5.5312    0.0000 C   0  0  0  0  0  0  0  0  0  0  0  0
   -1.5387   -5.7282    0.0000 C   0  0  0  0  0  0  0  0  0  0  0  0
   -1.4846   -6.5684    0.0000 C   0  0  0  0  0  0  0  0  0  0  0  0
   -0.7311   -6.9400    0.0000 C   0  0  0  0  0  0  0  0  0  0  0  0
   -0.0313   -6.4723    0.0000 C   0  0  0  0  0  0  0  0  0  0  0  0
   -0.0896   -5.6291    0.0000 C   0  0  0  0  0  0  0  0  0  0  0  0
   -0.8434   -5.2614    0.0000 C   0  0  0  0  0  0  0  0  0  0  0  0
   -2.1190   -4.3077    0.0000 C   0  0  0  0  0  0  0  0  0  0  0  0
   -1.9445   -4.9911    0.0000 C   0  0  0  0  0  0  0  0  0  0  0  0
   -1.2406   -5.0363    0.0000 C   0  0  0  0  0  0  0  0  0  0  0  0
   -0.9802   -4.3808    0.0000 N   0  0  0  0  0  0  0  0  0  0  0  0
   -1.5230   -3.9307    0.0000 C   0  0  0  0  0  0  0  0  0  0  0  0
   -0.5635   -4.8504    0.0000 O   0  0  0  0  0  0  0  0  0  0  0  0
   -1.4779   -3.2268    0.0000 O   0  0  0  0  0  0  0  0  0  0  0  0
   -0.2967   -4.2063    0.0000 C   0  0  0  0  0  0  0  0  0  0  0  0
    0.1962   -4.7109    0.0000 C   0  0  0  0  0  0  0  0  0  0  0  0
    0.8796   -4.5362    0.0000 C   0  0  0  0  0  0  0  0  0  0  0  0
    1.3725   -5.0409    0.0000 N   0  0  0  0  0  0  0  0  0  0  0  0
    2.0559   -4.8663    0.0000 C   0  0  0  0  0  0  0  0  0  0  0  0
    1.1819   -5.7200    0.0000 C   0  0  0  0  0  0  0  0  0  0  0  0
    2.5488   -5.3708    0.0000 C   0  0  0  0  0  0  0  0  0  0  0  0
    3.2322   -5.1963    0.0000 C   0  0  0  0  0  0  0  0  0  0  0  0
    3.7210   -5.7018    0.0000 C   0  0  0  0  0  0  0  0  0  0  0  0
    4.4038   -5.5277    0.0000 C   0  0  0  0  0  0  0  0  0  0  0  0
    4.5950   -4.8479    0.0000 C   0  0  0  0  0  0  0  0  0  0  0  0
    4.0979   -4.3423    0.0000 C   0  0  0  0  0  0  0  0  0  0  0  0
    3.4169   -4.5191    0.0000 C   0  0  0  0  0  0  0  0  0  0  0  0
    4.8960   -6.0320    0.0000 O   0  0  0  0  0  0  0  0  0  0  0  0
    5.2789   -4.6723    0.0000 O   0  0  0  0  0  0  0  0  0  0  0  0
    5.7730   -5.1768    0.0000 C   0  0  0  0  0  0  0  0  0  0  0  0
    5.5789   -5.8580    0.0000 C   0  0  0  0  0  0  0  0  0  0  0  0
  6  8  2  0
 16 17  1  0
 17 18  1  0
 18 19  1  0
 19 15  1  0
  7  8  1  0
 17 20  2  0
  7 15  1  0
 19 21  2  0
  8  4  1  0
 18 22  1  0
  4  1  2  0
 22 23  1  0
  9 10  2  0
 23 24  1  0
 24 25  1  0
 10 11  1  0
 25 26  1  0
  2  3  2  0
 25 27  1  0
 11 12  2  0
 26 28  1  0
  3  6  1  0
 28 29  1  0
 12 13  1  0
 29 30  2  0
  1  2  1  0
 30 31  1  0
 13 14  2  0
 31 32  2  0
 14  9  1  0
 32 33  1  0
 15 16  1  0
 33 34  2  0
 34 29  1  0
 10  5  1  0
 31 35  1  0
  5  6  1  0
 32 36  1  0
  5 16  1  0
 36 37  1  0
  9  7  1  0
 35 38  1  0
M  END
>  <Classification>  (98) 
1

>  <pchembl>  (98) 
5.24

>  <InChI_steorem>  (98) 
InChI=1S/C32H34N2O4/c1-33(18-15-20-13-14-25(37-2)26(19-20)38-3)16-8-17-34-31(35)29-27-21-9-4-5-10-22(21)28(30(29)32(34)36)24-12-7-6-11-23(24)27/h4-7,9-14,19,27-30H,8,15-18H2,1-3H3

>  <source>  (98) 
ChEMBL25

>  <source_id>  (98) 
25

>  <optional_reference>  (98) 
10.1021/jm060056p

>  <optional_origin>  (98) 
None

>  <target>  (98) 
MDR1

$$$$

     RDKit          2D

 39 44  0  0  0  0  0  0  0  0999 V2000
   -4.4460   -0.0960    0.0000 C   0  0  0  0  0  0  0  0  0  0  0  0
   -4.4471   -0.9255    0.0000 C   0  0  0  0  0  0  0  0  0  0  0  0
   -3.7305   -1.3394    0.0000 C   0  0  0  0  0  0  0  0  0  0  0  0
   -3.7323    0.3178    0.0000 C   0  0  0  0  0  0  0  0  0  0  0  0
   -2.0522   -0.6531    0.0000 C   0  0  0  0  0  0  0  0  0  0  0  0
   -3.0066   -0.9208    0.0000 C   0  0  0  0  0  0  0  0  0  0  0  0
   -2.1000    0.1728    0.0000 C   0  0  0  0  0  0  0  0  0  0  0  0
   -3.0151   -0.0924    0.0000 C   0  0  0  0  0  0  0  0  0  0  0  0
   -1.3518   -0.2894    0.0000 C   0  0  0  0  0  0  0  0  0  0  0  0
   -1.2977   -1.1302    0.0000 C   0  0  0  0  0  0  0  0  0  0  0  0
   -0.5437   -1.5021    0.0000 C   0  0  0  0  0  0  0  0  0  0  0  0
    0.1567   -1.0341    0.0000 C   0  0  0  0  0  0  0  0  0  0  0  0
    0.0983   -0.1904    0.0000 C   0  0  0  0  0  0  0  0  0  0  0  0
   -0.6561    0.1776    0.0000 C   0  0  0  0  0  0  0  0  0  0  0  0
   -1.9326    1.1320    0.0000 C   0  0  0  0  0  0  0  0  0  0  0  0
   -1.7579    0.4482    0.0000 C   0  0  0  0  0  0  0  0  0  0  0  0
   -1.0535    0.4029    0.0000 C   0  0  0  0  0  0  0  0  0  0  0  0
   -0.7929    1.0589    0.0000 N   0  0  0  0  0  0  0  0  0  0  0  0
   -1.3362    1.5094    0.0000 C   0  0  0  0  0  0  0  0  0  0  0  0
   -0.3759    0.5890    0.0000 O   0  0  0  0  0  0  0  0  0  0  0  0
   -1.2909    2.2138    0.0000 O   0  0  0  0  0  0  0  0  0  0  0  0
   -0.1090    1.2336    0.0000 C   0  0  0  0  0  0  0  0  0  0  0  0
    0.3843    0.7286    0.0000 C   0  0  0  0  0  0  0  0  0  0  0  0
    0.8772    0.2339    0.0000 C   0  0  0  0  0  0  0  0  0  0  0  0
    1.3701   -0.2608    0.0000 C   0  0  0  0  0  0  0  0  0  0  0  0
    2.0450   -0.0812    0.0000 N   0  0  0  0  0  0  0  0  0  0  0  0
    2.5380   -0.5759    0.0000 C   0  0  0  0  0  0  0  0  0  0  0  0
    2.2270    0.5930    0.0000 C   0  0  0  0  0  0  0  0  0  0  0  0
    2.9019    0.7725    0.0000 C   0  0  0  0  0  0  0  0  0  0  0  0
    3.0839    1.4467    0.0000 C   0  0  0  0  0  0  0  0  0  0  0  0
    3.7583    1.6228    0.0000 C   0  0  0  0  0  0  0  0  0  0  0  0
    3.9403    2.2964    0.0000 C   0  0  0  0  0  0  0  0  0  0  0  0
    3.4471    2.7918    0.0000 C   0  0  0  0  0  0  0  0  0  0  0  0
    2.7693    2.6092    0.0000 C   0  0  0  0  0  0  0  0  0  0  0  0
    2.5904    1.9360    0.0000 C   0  0  0  0  0  0  0  0  0  0  0  0
    3.6283    3.4670    0.0000 O   0  0  0  0  0  0  0  0  0  0  0  0
    4.3037    3.6477    0.0000 C   0  0  0  0  0  0  0  0  0  0  0  0
    4.6146    2.4754    0.0000 O   0  0  0  0  0  0  0  0  0  0  0  0
    5.1068    1.9809    0.0000 C   0  0  0  0  0  0  0  0  0  0  0  0
 16 17  1  0
 17 18  1  0
 18 19  1  0
 19 15  1  0
  7  8  1  0
 17 20  2  0
  7 15  1  0
 19 21  2  0
  8  4  2  0
 18 22  1  0
  4  1  1  0
 22 23  1  0
  9 10  2  0
 23 24  3  0
 24 25  1  0
 10 11  1  0
 25 26  1  0
  2  3  1  0
 26 27  1  0
 11 12  2  0
 26 28  1  0
  3  6  2  0
 28 29  1  0
 12 13  1  0
 29 30  1  0
  1  2  2  0
 30 31  2  0
 13 14  2  0
 31 32  1  0
 14  9  1  0
 32 33  2  0
 15 16  1  0
 33 34  1  0
 10  5  1  0
 34 35  2  0
 35 30  1  0
  5  6  1  0
 33 36  1  0
  5 16  1  0
 36 37  1  0
  9  7  1  0
 32 38  1  0
  6  8  1  0
 38 39  1  0
M  END
>  <Classification>  (99) 
1

>  <pchembl>  (99) 
5.59

>  <InChI_steorem>  (99) 
InChI=1S/C33H32N2O4/c1-34(19-16-21-14-15-26(38-2)27(20-21)39-3)17-8-9-18-35-32(36)30-28-22-10-4-5-11-23(22)29(31(30)33(35)37)25-13-7-6-12-24(25)28/h4-7,10-15,20,28-31H,16-19H2,1-3H3

>  <source>  (99) 
ChEMBL25

>  <source_id>  (99) 
25

>  <optional_reference>  (99) 
10.1021/jm060056p

>  <optional_origin>  (99) 
None

>  <target>  (99) 
MDR1

$$$$

     RDKit          2D

 46 47  0  0  0  0  0  0  0  0999 V2000
    1.8217   -2.2566    0.0000 N   0  0  0  0  0  0  0  0  0  0  0  0
   -1.0375    1.0375    0.0000 N   0  0  0  0  0  0  0  0  0  0  0  0
   -0.3230    1.4500    0.0000 C   0  0  0  0  0  0  0  0  0  0  0  0
    0.3914    1.0375    0.0000 C   0  0  0  0  0  0  0  0  0  0  0  0
    1.1059    1.4500    0.0000 N   0  0  0  0  0  0  0  0  0  0  0  0
    0.3914    0.2125    0.0000 O   0  0  0  0  0  0  0  0  0  0  0  0
    1.8204    1.0375    0.0000 C   0  0  0  0  0  0  0  0  0  0  0  0
    2.5349    1.4500    0.0000 C   0  0  0  0  0  0  0  0  0  0  0  0
    3.2493    1.0375    0.0000 O   0  0  0  0  0  0  0  0  0  0  0  0
    2.5349    2.2750    0.0000 O   0  0  0  0  0  0  0  0  0  0  0  0
    1.8204    0.2125    0.0000 C   0  0  0  0  0  0  0  0  0  0  0  0
    1.1059   -0.2000    0.0000 C   0  0  0  0  0  0  0  0  0  0  0  0
    1.1059   -1.0250    0.0000 C   0  0  0  0  0  0  0  0  0  0  0  0
   -0.3230    2.2750    0.0000 C   0  0  0  0  0  0  0  0  0  0  0  0
   -1.0375    2.6875    0.0000 C   0  0  0  0  0  0  0  0  0  0  0  0
   -1.0375    3.5125    0.0000 O   0  0  0  0  0  0  0  0  0  0  0  0
   -1.7520    2.2750    0.0000 O   0  0  0  0  0  0  0  0  0  0  0  0
   -2.4664    2.6875    0.0000 C   0  0  0  0  0  0  0  0  0  0  0  0
   -3.1809    2.2750    0.0000 C   0  0  0  0  0  0  0  0  0  0  0  0
   -3.8958    2.6889    0.0000 C   0  0  0  0  0  0  0  0  0  0  0  0
   -4.6098    2.2771    0.0000 C   0  0  0  0  0  0  0  0  0  0  0  0
   -4.6102    1.4512    0.0000 C   0  0  0  0  0  0  0  0  0  0  0  0
   -3.8907    1.0389    0.0000 C   0  0  0  0  0  0  0  0  0  0  0  0
   -3.1797    1.4531    0.0000 C   0  0  0  0  0  0  0  0  0  0  0  0
   -1.0375    0.2125    0.0000 C   0  0  0  0  0  0  0  0  0  0  0  0
   -1.7520   -0.2000    0.0000 O   0  0  0  0  0  0  0  0  0  0  0  0
   -0.3230   -0.2000    0.0000 O   0  0  0  0  0  0  0  0  0  0  0  0
   -1.7520   -1.0250    0.0000 C   0  0  0  0  0  0  0  0  0  0  0  0
   -1.7583   -1.8458    0.0000 C   0  0  0  0  0  0  0  0  0  0  0  0
   -0.9270   -1.0282    0.0000 C   0  0  0  0  0  0  0  0  0  0  0  0
   -2.5770   -1.0260    0.0000 C   0  0  0  0  0  0  0  0  0  0  0  0
    3.2493    0.2125    0.0000 C   0  0  0  0  0  0  0  0  0  0  0  0
    3.2417   -0.6083    0.0000 C   0  0  0  0  0  0  0  0  0  0  0  0
    4.0743    0.2087    0.0000 C   0  0  0  0  0  0  0  0  0  0  0  0
    2.4243    0.2122    0.0000 C   0  0  0  0  0  0  0  0  0  0  0  0
    1.8204   -1.4375    0.0000 C   0  0  0  0  0  0  0  0  0  0  0  0
    2.5462   -2.6514    0.0000 C   0  0  0  0  0  0  0  0  0  0  0  0
    3.2502   -2.2214    0.0000 O   0  0  0  0  0  0  0  0  0  0  0  0
    2.5665   -3.4761    0.0000 O   0  0  0  0  0  0  0  0  0  0  0  0
    3.9747   -2.6161    0.0000 C   0  0  0  0  0  0  0  0  0  0  0  0
    4.6787   -2.1861    0.0000 C   0  0  0  0  0  0  0  0  0  0  0  0
    5.4031   -2.5832    0.0000 C   0  0  0  0  0  0  0  0  0  0  0  0
    6.1067   -2.1539    0.0000 C   0  0  0  0  0  0  0  0  0  0  0  0
    6.0868   -1.3282    0.0000 C   0  0  0  0  0  0  0  0  0  0  0  0
    5.3573   -0.9338    0.0000 C   0  0  0  0  0  0  0  0  0  0  0  0
    4.6567   -1.3654    0.0000 C   0  0  0  0  0  0  0  0  0  0  0  0
 23 24  2  0
 24 19  1  0
 12 13  1  0
  2 25  1  0
  2  3  1  0
 25 26  1  0
  3 14  1  0
 25 27  2  0
  7  8  1  0
 26 28  1  0
 14 15  1  0
 28 29  1  0
  4  5  1  0
 28 30  1  0
 15 16  2  0
 28 31  1  0
  8  9  1  0
  9 32  1  0
 15 17  1  0
 32 33  1  0
 32 34  1  0
 17 18  1  0
 32 35  1  0
  8 10  2  0
 13 36  1  0
 36  1  1  0
 18 19  1  0
  1 37  1  0
  4  6  2  0
 37 38  1  0
 19 20  2  0
 37 39  2  0
  7 11  1  0
 38 40  1  0
 20 21  1  0
 40 41  1  0
  3  4  1  0
 41 42  2  0
 21 22  2  0
 42 43  1  0
 11 12  1  0
 43 44  2  0
 22 23  1  0
 44 45  1  0
  5  7  1  0
 45 46  2  0
 46 41  1  0
M  END
>  <Classification>  (100) 
1

>  <pchembl>  (100) 
5.85

>  <InChI_steorem>  (100) 
InChI=1S/C34H47N3O9/c1-33(2,3)45-30(40)26(19-13-14-20-35-31(41)44-23-25-17-11-8-12-18-25)36-29(39)27(37-32(42)46-34(4,5)6)21-28(38)43-22-24-15-9-7-10-16-24/h7-12,15-18,26-27H,13-14,19-23H2,1-6H3,(H,35,41)(H,36,39)(H,37,42)

>  <source>  (100) 
ChEMBL25

>  <source_id>  (100) 
25

>  <optional_reference>  (100) 
10.1021/jm100839w

>  <optional_origin>  (100) 
None

>  <target>  (100) 
MDR1

$$$$

     RDKit          2D

 35 38  0  0  0  0  0  0  0  0999 V2000
   -4.4181  -21.1125    0.0000 C   0  0  0  0  0  0  0  0  0  0  0  0
   -4.4193  -21.9398    0.0000 C   0  0  0  0  0  0  0  0  0  0  0  0
   -3.7044  -22.3527    0.0000 C   0  0  0  0  0  0  0  0  0  0  0  0
   -2.9880  -21.9394    0.0000 C   0  0  0  0  0  0  0  0  0  0  0  0
   -2.9909  -21.1088    0.0000 C   0  0  0  0  0  0  0  0  0  0  0  0
   -3.7062  -20.6997    0.0000 C   0  0  0  0  0  0  0  0  0  0  0  0
   -2.2779  -20.6936    0.0000 O   0  0  0  0  0  0  0  0  0  0  0  0
   -2.2729  -22.3507    0.0000 C   0  0  0  0  0  0  0  0  0  0  0  0
   -2.2716  -23.1757    0.0000 C   0  0  0  0  0  0  0  0  0  0  0  0
   -1.5591  -21.9371    0.0000 O   0  0  0  0  0  0  0  0  0  0  0  0
   -1.5619  -21.1034    0.0000 C   0  0  0  0  0  0  0  0  0  0  0  0
   -0.8490  -20.6883    0.0000 C   0  0  0  0  0  0  0  0  0  0  0  0
   -0.1330  -21.0981    0.0000 C   0  0  0  0  0  0  0  0  0  0  0  0
   -0.8521  -19.8633    0.0000 O   0  0  0  0  0  0  0  0  0  0  0  0
    0.5799  -20.6829    0.0000 N   0  0  0  0  0  0  0  0  0  0  0  0
    1.2919  -21.0936    0.0000 C   0  0  0  0  0  0  0  0  0  0  0  0
    2.0026  -20.6819    0.0000 C   0  0  0  0  0  0  0  0  0  0  0  0
    2.0038  -19.8565    0.0000 N   0  0  0  0  0  0  0  0  0  0  0  0
    1.2879  -19.4445    0.0000 C   0  0  0  0  0  0  0  0  0  0  0  0
    0.5709  -19.8579    0.0000 C   0  0  0  0  0  0  0  0  0  0  0  0
    2.7183  -19.4440    0.0000 C   0  0  0  0  0  0  0  0  0  0  0  0
    3.4294  -19.8597    0.0000 C   0  0  0  0  0  0  0  0  0  0  0  0
    4.1434  -19.4479    0.0000 C   0  0  0  0  0  0  0  0  0  0  0  0
    4.1439  -18.6220    0.0000 C   0  0  0  0  0  0  0  0  0  0  0  0
    3.4244  -18.2097    0.0000 C   0  0  0  0  0  0  0  0  0  0  0  0
    2.7133  -18.6239    0.0000 C   0  0  0  0  0  0  0  0  0  0  0  0
    3.4270  -20.6847    0.0000 C   0  0  0  0  0  0  0  0  0  0  0  0
    4.8577  -19.8608    0.0000 C   0  0  0  0  0  0  0  0  0  0  0  0
   -1.5565  -23.5871    0.0000 C   0  0  0  0  0  0  0  0  0  0  0  0
   -1.5552  -24.4121    0.0000 C   0  0  0  0  0  0  0  0  0  0  0  0
   -2.2676  -24.8228    0.0000 C   0  0  0  0  0  0  0  0  0  0  0  0
   -2.2666  -25.6471    0.0000 C   0  0  0  0  0  0  0  0  0  0  0  0
   -1.5510  -26.0593    0.0000 C   0  0  0  0  0  0  0  0  0  0  0  0
   -0.8348  -25.6412    0.0000 C   0  0  0  0  0  0  0  0  0  0  0  0
   -0.8392  -24.8184    0.0000 C   0  0  0  0  0  0  0  0  0  0  0  0
  8  9  1  0
  4  5  2  0
 15 20  1  0
 16 17  1  0
 17 18  1  0
 18 19  1  0
 19 20  1  0
  8 10  2  0
 18 21  1  0
  2  3  2  0
 21 22  2  0
  7 11  1  0
 22 23  1  0
  5  6  1  0
 23 24  2  0
 11 12  1  0
 24 25  1  0
  6  1  2  0
 25 26  2  0
 26 21  1  0
 12 13  1  0
 22 27  1  0
  1  2  1  0
 23 28  1  0
 12 14  1  0
  9 29  1  0
  5  7  1  0
 29 30  1  0
 13 15  1  0
 30 31  2  0
 15 16  1  0
 31 32  1  0
  3  4  1  0
 32 33  2  0
  4  8  1  0
 33 34  1  0
 34 35  2  0
 35 30  1  0
M  END
>  <Classification>  (101) 
1

>  <pchembl>  (101) 
8.25

>  <InChI_steorem>  (101) 
InChI=1S/C30H36N2O3/c1-23-9-8-13-28(24(23)2)32-19-17-31(18-20-32)21-26(33)22-35-30-14-7-6-12-27(30)29(34)16-15-25-10-4-3-5-11-25/h3-14,26,33H,15-22H2,1-2H3

>  <source>  (101) 
ChEMBL25

>  <source_id>  (101) 
25

>  <optional_reference>  (101) 
10.1021/jm201705f

>  <optional_origin>  (101) 
None

>  <target>  (101) 
MDR1

$$$$

     RDKit          2D

 48 54  0  0  0  0  0  0  0  0999 V2000
    5.1426  -10.8627    0.0000 C   0  0  0  0  0  0  0  0  0  0  0  0
    5.1426  -11.6924    0.0000 N   0  0  0  0  0  0  0  0  0  0  0  0
    5.8571  -12.1049    0.0000 C   0  0  0  0  0  0  0  0  0  0  0  0
    5.8571  -10.4456    0.0000 C   0  0  0  0  0  0  0  0  0  0  0  0
    6.5762  -10.8627    0.0000 C   0  0  0  0  0  0  0  0  0  0  0  0
    6.5745  -11.6905    0.0000 C   0  0  0  0  0  0  0  0  0  0  0  0
    7.2894  -12.1040    0.0000 C   0  0  0  0  0  0  0  0  0  0  0  0
    8.0065  -11.6908    0.0000 C   0  0  0  0  0  0  0  0  0  0  0  0
    8.0041  -10.8599    0.0000 C   0  0  0  0  0  0  0  0  0  0  0  0
    7.2885  -10.4502    0.0000 C   0  0  0  0  0  0  0  0  0  0  0  0
    4.4281  -12.1049    0.0000 C   0  0  0  0  0  0  0  0  0  0  0  0
    8.7214  -12.1026    0.0000 O   0  0  0  0  0  0  0  0  0  0  0  0
    9.4355  -11.6894    0.0000 C   0  0  0  0  0  0  0  0  0  0  0  0
   10.8605  -10.8671    0.0000 C   0  0  0  0  0  0  0  0  0  0  0  0
   10.1407  -10.4555    0.0000 C   0  0  0  0  0  0  0  0  0  0  0  0
    9.4300  -10.8704    0.0000 C   0  0  0  0  0  0  0  0  0  0  0  0
   10.1369   -9.6305    0.0000 O   0  0  0  0  0  0  0  0  0  0  0  0
   10.8495   -9.2148    0.0000 C   0  0  0  0  0  0  0  0  0  0  0  0
   11.5741  -10.4530    0.0000 O   0  0  0  0  0  0  0  0  0  0  0  0
   12.2896  -10.8638    0.0000 C   0  0  0  0  0  0  0  0  0  0  0  0
   10.8610  -11.6930    0.0000 C   0  0  0  0  0  0  0  0  0  0  0  0
   10.1419  -12.1038    0.0000 C   0  0  0  0  0  0  0  0  0  0  0  0
   10.1382  -12.9274    0.0000 C   0  0  0  0  0  0  0  0  0  0  0  0
   10.8517  -13.3463    0.0000 N   0  0  0  0  0  0  0  0  0  0  0  0
   11.5708  -12.9355    0.0000 C   0  0  0  0  0  0  0  0  0  0  0  0
   11.5762  -12.1058    0.0000 C   0  0  0  0  0  0  0  0  0  0  0  0
    5.8572  -12.9299    0.0000 C   0  0  0  0  0  0  0  0  0  0  0  0
    6.2610  -13.6357    0.0000 C   0  0  0  0  0  0  0  0  0  0  0  0
    5.8487  -14.3379    0.0000 C   0  0  0  0  0  0  0  0  0  0  0  0
    6.2519  -15.0433    0.0000 C   0  0  0  0  0  0  0  0  0  0  0  0
    7.0659  -15.0469    0.0000 C   0  0  0  0  0  0  0  0  0  0  0  0
    7.4751  -14.3394    0.0000 C   0  0  0  0  0  0  0  0  0  0  0  0
    7.0696  -13.6369    0.0000 C   0  0  0  0  0  0  0  0  0  0  0  0
    7.4765  -15.7624    0.0000 O   0  0  0  0  0  0  0  0  0  0  0  0
    8.2932  -15.6450    0.0000 C   0  0  0  0  0  0  0  0  0  0  0  0
    8.7996  -16.2951    0.0000 C   0  0  0  0  0  0  0  0  0  0  0  0
    9.6155  -16.1783    0.0000 C   0  0  0  0  0  0  0  0  0  0  0  0
    9.9230  -15.4118    0.0000 C   0  0  0  0  0  0  0  0  0  0  0  0
    9.4084  -14.7614    0.0000 C   0  0  0  0  0  0  0  0  0  0  0  0
    8.5944  -14.8816    0.0000 C   0  0  0  0  0  0  0  0  0  0  0  0
    9.4213  -13.3356    0.0000 C   0  0  0  0  0  0  0  0  0  0  0  0
    8.4911  -17.0603    0.0000 O   0  0  0  0  0  0  0  0  0  0  0  0
    7.6741  -17.1756    0.0000 C   0  0  0  0  0  0  0  0  0  0  0  0
    7.9981  -10.0331    0.0000 O   0  0  0  0  0  0  0  0  0  0  0  0
    7.2806   -9.6259    0.0000 C   0  0  0  0  0  0  0  0  0  0  0  0
    9.4236  -10.0423    0.0000 O   0  0  0  0  0  0  0  0  0  0  0  0
    8.7058   -9.6353    0.0000 C   0  0  0  0  0  0  0  0  0  0  0  0
   10.8469  -14.1713    0.0000 C   0  0  0  0  0  0  0  0  0  0  0  0
  8 12  1  0
 21 26  1  0
 22 23  1  0
 23 24  1  0
 24 25  1  0
 25 26  1  0
  5  6  2  0
  3 27  1  0
 12 13  1  0
 27 28  1  0
 13 22  2  0
 28 29  2  0
  1  4  1  0
 29 30  1  0
 21 14  2  0
 30 31  2  0
  6  7  1  0
 31 32  1  0
 14 15  1  0
 32 33  2  0
 33 28  1  0
  2  3  1  0
 31 34  1  0
 15 16  2  0
 34 35  1  0
 16 13  1  0
 35 36  1  0
  7  8  2  0
 36 37  2  0
 15 17  1  0
 37 38  1  0
  3  6  1  0
 38 39  2  0
 17 18  1  0
 39 40  1  0
 40 35  2  0
  8  9  1  0
 23 41  1  0
 41 39  1  0
 14 19  1  0
 36 42  1  0
  5  4  1  0
 42 43  1  0
 19 20  1  0
 21 22  1  0
  9 10  2  0
  9 44  1  0
 10  5  1  0
 44 45  1  0
 16 46  1  0
  2 11  1  0
 46 47  1  0
  1  2  1  0
 24 48  1  0
M  END
>  <Classification>  (102) 
1

>  <pchembl>  (102) 
6.52

>  <InChI_steorem>  (102) 
InChI=1S/C39H44N2O7/c1-40-16-14-25-21-32(43-4)34-22-28(25)29(40)18-23-8-11-26(12-9-23)47-33-20-24(10-13-31(33)42-3)19-30-35-27(15-17-41(30)2)36(44-5)38(45-6)39(46-7)37(35)48-34/h8-13,20-22,29-30H,14-19H2,1-7H3

>  <source>  (102) 
ChEMBL25

>  <source_id>  (102) 
25

>  <optional_reference>  (102) 
10.1021/acs.jnatprod.6b00597

>  <optional_origin>  (102) 
None

>  <target>  (102) 
MDR1

$$$$

     RDKit          2D

 22 24  0  0  0  0  0  0  0  0999 V2000
    9.2974  -13.9357    0.0000 C   0  0  0  0  0  0  0  0  0  0  0  0
   10.0122  -14.3485    0.0000 C   0  0  0  0  0  0  0  0  0  0  0  0
   10.7287  -13.9352    0.0000 C   0  0  0  0  0  0  0  0  0  0  0  0
   10.7258  -13.1047    0.0000 C   0  0  0  0  0  0  0  0  0  0  0  0
    9.2986  -13.1083    0.0000 C   0  0  0  0  0  0  0  0  0  0  0  0
   10.0063  -12.6931    0.0000 C   0  0  0  0  0  0  0  0  0  0  0  0
    9.8301  -11.8917    0.0000 C   0  0  0  0  0  0  0  0  0  0  0  0
    9.0135  -11.8115    0.0000 C   0  0  0  0  0  0  0  0  0  0  0  0
    8.6850  -12.5635    0.0000 O   0  0  0  0  0  0  0  0  0  0  0  0
   11.4438  -14.3466    0.0000 C   0  0  0  0  0  0  0  0  0  0  0  0
   11.4451  -15.1716    0.0000 O   0  0  0  0  0  0  0  0  0  0  0  0
   12.1576  -13.9329    0.0000 C   0  0  0  0  0  0  0  0  0  0  0  0
   12.8727  -14.3443    0.0000 C   0  0  0  0  0  0  0  0  0  0  0  0
   13.5865  -13.9307    0.0000 C   0  0  0  0  0  0  0  0  0  0  0  0
   12.8740  -15.1693    0.0000 O   0  0  0  0  0  0  0  0  0  0  0  0
   14.3004  -14.3434    0.0000 C   0  0  0  0  0  0  0  0  0  0  0  0
   15.0137  -13.9305    0.0000 C   0  0  0  0  0  0  0  0  0  0  0  0
   15.0128  -13.1046    0.0000 C   0  0  0  0  0  0  0  0  0  0  0  0
   14.2927  -12.6934    0.0000 C   0  0  0  0  0  0  0  0  0  0  0  0
   13.5823  -13.1087    0.0000 C   0  0  0  0  0  0  0  0  0  0  0  0
   11.4387  -12.6895    0.0000 O   0  0  0  0  0  0  0  0  0  0  0  0
   12.1547  -13.0993    0.0000 C   0  0  0  0  0  0  0  0  0  0  0  0
  5  6  2  0
 10 11  2  0
  1  2  2  0
 10 12  1  0
  5  1  1  0
 12 13  2  3
  2  3  1  0
 13 14  1  0
 13 15  1  0
  3  4  2  0
 14 16  2  0
  6  7  1  0
 16 17  1  0
  7  8  2  0
 17 18  2  0
  8  9  1  0
 18 19  1  0
  9  5  1  0
 19 20  2  0
 20 14  1  0
  4  6  1  0
  4 21  1  0
  3 10  1  0
 21 22  1  0
M  END
>  <Classification>  (103) 
0

>  <pchembl>  (103) 
4.06

>  <InChI_steorem>  (103) 
InChI=1S/C18H14O4/c1-21-18-13(7-8-17-14(18)9-10-22-17)16(20)11-15(19)12-5-3-2-4-6-12/h2-11,19H,1H3

>  <source>  (103) 
ChEMBL25

>  <source_id>  (103) 
25

>  <optional_reference>  (103) 
10.1039/C4MD00196F

>  <optional_origin>  (103) 
None

>  <target>  (103) 
MDR1

$$$$

     RDKit          2D

 28 31  0  0  0  0  0  0  0  0999 V2000
    7.7767  -18.6977    0.0000 C   0  0  0  0  0  0  0  0  0  0  0  0
    7.7756  -19.5249    0.0000 C   0  0  0  0  0  0  0  0  0  0  0  0
    8.4904  -19.9378    0.0000 C   0  0  0  0  0  0  0  0  0  0  0  0
    8.4886  -18.2850    0.0000 C   0  0  0  0  0  0  0  0  0  0  0  0
    9.2039  -18.6940    0.0000 C   0  0  0  0  0  0  0  0  0  0  0  0
    9.2073  -19.5270    0.0000 C   0  0  0  0  0  0  0  0  0  0  0  0
    9.9264  -19.9383    0.0000 C   0  0  0  0  0  0  0  0  0  0  0  0
   10.6467  -19.5211    0.0000 N   0  0  0  0  0  0  0  0  0  0  0  0
   10.6432  -18.6881    0.0000 C   0  0  0  0  0  0  0  0  0  0  0  0
    9.9195  -18.2723    0.0000 C   0  0  0  0  0  0  0  0  0  0  0  0
   11.3622  -19.9317    0.0000 C   0  0  0  0  0  0  0  0  0  0  0  0
   12.0754  -19.5172    0.0000 C   0  0  0  0  0  0  0  0  0  0  0  0
   12.7909  -19.9278    0.0000 C   0  0  0  0  0  0  0  0  0  0  0  0
   12.7895  -20.7528    0.0000 C   0  0  0  0  0  0  0  0  0  0  0  0
   13.5042  -21.1631    0.0000 C   0  0  0  0  0  0  0  0  0  0  0  0
   14.2185  -20.7487    0.0000 C   0  0  0  0  0  0  0  0  0  0  0  0
   14.2136  -19.9196    0.0000 C   0  0  0  0  0  0  0  0  0  0  0  0
   13.4983  -19.5128    0.0000 C   0  0  0  0  0  0  0  0  0  0  0  0
   14.9346  -21.1582    0.0000 N   0  0  0  0  0  0  0  0  0  0  0  0
   15.6472  -20.7429    0.0000 C   0  0  0  0  0  0  0  0  0  0  0  0
   15.6439  -19.9180    0.0000 O   0  0  0  0  0  0  0  0  0  0  0  0
   16.3633  -21.1524    0.0000 C   0  0  0  0  0  0  0  0  0  0  0  0
   16.3652  -21.9775    0.0000 C   0  0  0  0  0  0  0  0  0  0  0  0
   17.0804  -22.3871    0.0000 C   0  0  0  0  0  0  0  0  0  0  0  0
   17.7941  -21.9716    0.0000 C   0  0  0  0  0  0  0  0  0  0  0  0
   17.7881  -21.1425    0.0000 C   0  0  0  0  0  0  0  0  0  0  0  0
   17.0723  -20.7368    0.0000 C   0  0  0  0  0  0  0  0  0  0  0  0
   15.6521  -22.3922    0.0000 N   0  0  0  0  0  0  0  0  0  0  0  0
  3  6  2  0
 13 14  2  0
  1  2  2  0
 14 15  1  0
  5  4  2  0
 15 16  2  0
  4  1  1  0
 16 17  1  0
  5 10  1  0
 17 18  2  0
 18 13  1  0
  6  7  1  0
 16 19  1  0
  7  8  1  0
 19 20  1  0
  8  9  1  0
 20 21  2  0
  9 10  1  0
 20 22  1  0
  5  6  1  0
 22 23  2  0
  8 11  1  0
 23 24  1  0
 24 25  2  0
 11 12  1  0
 25 26  1  0
  2  3  1  0
 26 27  2  0
 27 22  1  0
 12 13  1  0
 23 28  1  0
M  END
>  <Classification>  (104) 
1

>  <pchembl>  (104) 
5.02

>  <InChI_steorem>  (104) 
InChI=1S/C24H25N3O/c25-23-8-4-3-7-22(23)24(28)26-21-11-9-18(10-12-21)13-15-27-16-14-19-5-1-2-6-20(19)17-27/h1-12H,13-17,25H2,(H,26,28)

>  <source>  (104) 
ChEMBL25

>  <source_id>  (104) 
25

>  <optional_reference>  (104) 
10.1016/j.bmc.2007.11.057

>  <optional_origin>  (104) 
None

>  <target>  (104) 
MDR1

$$$$

     RDKit          2D

 29 32  0  0  0  0  0  0  0  0999 V2000
    8.9688   -2.7289    0.0000 C   0  0  0  0  0  0  0  0  0  0  0  0
    8.9676   -3.5563    0.0000 C   0  0  0  0  0  0  0  0  0  0  0  0
    9.6825   -3.9691    0.0000 C   0  0  0  0  0  0  0  0  0  0  0  0
    9.6807   -2.3162    0.0000 C   0  0  0  0  0  0  0  0  0  0  0  0
   10.3959   -2.7253    0.0000 C   0  0  0  0  0  0  0  0  0  0  0  0
   10.3994   -3.5584    0.0000 C   0  0  0  0  0  0  0  0  0  0  0  0
   11.1185   -3.9696    0.0000 C   0  0  0  0  0  0  0  0  0  0  0  0
   11.8388   -3.5525    0.0000 N   0  0  0  0  0  0  0  0  0  0  0  0
   11.8354   -2.7194    0.0000 C   0  0  0  0  0  0  0  0  0  0  0  0
   11.1117   -2.3035    0.0000 C   0  0  0  0  0  0  0  0  0  0  0  0
   12.5544   -3.9629    0.0000 C   0  0  0  0  0  0  0  0  0  0  0  0
   13.2677   -3.5486    0.0000 C   0  0  0  0  0  0  0  0  0  0  0  0
   13.9833   -3.9590    0.0000 C   0  0  0  0  0  0  0  0  0  0  0  0
   13.9819   -4.7841    0.0000 C   0  0  0  0  0  0  0  0  0  0  0  0
   14.6966   -5.1946    0.0000 C   0  0  0  0  0  0  0  0  0  0  0  0
   15.4109   -4.7801    0.0000 C   0  0  0  0  0  0  0  0  0  0  0  0
   15.4060   -3.9508    0.0000 C   0  0  0  0  0  0  0  0  0  0  0  0
   14.6906   -3.5442    0.0000 C   0  0  0  0  0  0  0  0  0  0  0  0
   16.1269   -5.1897    0.0000 N   0  0  0  0  0  0  0  0  0  0  0  0
   16.8397   -4.7743    0.0000 C   0  0  0  0  0  0  0  0  0  0  0  0
   17.5558   -5.1839    0.0000 N   0  0  0  0  0  0  0  0  0  0  0  0
   16.8364   -3.9493    0.0000 O   0  0  0  0  0  0  0  0  0  0  0  0
   18.2685   -4.7685    0.0000 C   0  0  0  0  0  0  0  0  0  0  0  0
   18.9829   -5.1791    0.0000 C   0  0  0  0  0  0  0  0  0  0  0  0
   19.6951   -4.7644    0.0000 C   0  0  0  0  0  0  0  0  0  0  0  0
   19.6922   -3.9385    0.0000 C   0  0  0  0  0  0  0  0  0  0  0  0
   18.9712   -3.5292    0.0000 C   0  0  0  0  0  0  0  0  0  0  0  0
   18.2618   -3.9461    0.0000 C   0  0  0  0  0  0  0  0  0  0  0  0
   18.9852   -6.0040    0.0000 N   0  0  0  0  0  0  0  0  0  0  0  0
 13 14  2  0
  1  2  2  0
 14 15  1  0
  5  4  2  0
 15 16  2  0
  4  1  1  0
 16 17  1  0
  5 10  1  0
 17 18  2  0
 18 13  1  0
  6  7  1  0
 16 19  1  0
  7  8  1  0
 19 20  1  0
  8  9  1  0
 20 21  1  0
  9 10  1  0
 20 22  2  0
  5  6  1  0
 21 23  1  0
  8 11  1  0
 23 24  2  0
 24 25  1  0
 11 12  1  0
 25 26  2  0
  2  3  1  0
 26 27  1  0
 12 13  1  0
 27 28  2  0
 28 23  1  0
  3  6  2  0
 24 29  1  0
M  END
>  <Classification>  (105) 
0

>  <pchembl>  (105) 
4.72

>  <InChI_steorem>  (105) 
InChI=1S/C24H26N4O/c25-22-7-3-4-8-23(22)27-24(29)26-21-11-9-18(10-12-21)13-15-28-16-14-19-5-1-2-6-20(19)17-28/h1-12H,13-17,25H2,(H2,26,27,29)

>  <source>  (105) 
ChEMBL25

>  <source_id>  (105) 
25

>  <optional_reference>  (105) 
10.1016/j.bmc.2009.01.072

>  <optional_origin>  (105) 
None

>  <target>  (105) 
MDR1

$$$$

     RDKit          2D

 30 33  0  0  0  0  0  0  0  0999 V2000
   -5.4299  -12.1026    0.0000 C   0  0  0  0  0  0  0  0  0  0  0  0
   -5.4311  -12.9299    0.0000 C   0  0  0  0  0  0  0  0  0  0  0  0
   -4.7163  -13.3428    0.0000 C   0  0  0  0  0  0  0  0  0  0  0  0
   -4.7181  -11.6900    0.0000 C   0  0  0  0  0  0  0  0  0  0  0  0
   -4.0029  -12.0990    0.0000 C   0  0  0  0  0  0  0  0  0  0  0  0
   -3.9994  -12.9320    0.0000 C   0  0  0  0  0  0  0  0  0  0  0  0
   -3.2804  -13.3433    0.0000 C   0  0  0  0  0  0  0  0  0  0  0  0
   -2.5601  -12.9261    0.0000 N   0  0  0  0  0  0  0  0  0  0  0  0
   -2.5635  -12.0931    0.0000 C   0  0  0  0  0  0  0  0  0  0  0  0
   -3.2872  -11.6773    0.0000 C   0  0  0  0  0  0  0  0  0  0  0  0
   -1.8446  -13.3366    0.0000 C   0  0  0  0  0  0  0  0  0  0  0  0
   -1.1313  -12.9222    0.0000 C   0  0  0  0  0  0  0  0  0  0  0  0
   -0.4157  -13.3327    0.0000 C   0  0  0  0  0  0  0  0  0  0  0  0
   -0.4171  -14.1577    0.0000 C   0  0  0  0  0  0  0  0  0  0  0  0
    0.2976  -14.5681    0.0000 C   0  0  0  0  0  0  0  0  0  0  0  0
    1.0118  -14.1537    0.0000 C   0  0  0  0  0  0  0  0  0  0  0  0
    1.0069  -13.3245    0.0000 C   0  0  0  0  0  0  0  0  0  0  0  0
    0.2916  -12.9178    0.0000 C   0  0  0  0  0  0  0  0  0  0  0  0
    1.7278  -14.5632    0.0000 N   0  0  0  0  0  0  0  0  0  0  0  0
    2.4405  -14.1479    0.0000 C   0  0  0  0  0  0  0  0  0  0  0  0
    2.4372  -13.3230    0.0000 O   0  0  0  0  0  0  0  0  0  0  0  0
    3.1566  -14.5574    0.0000 C   0  0  0  0  0  0  0  0  0  0  0  0
    3.1585  -15.3825    0.0000 C   0  0  0  0  0  0  0  0  0  0  0  0
    3.8737  -15.7920    0.0000 C   0  0  0  0  0  0  0  0  0  0  0  0
    4.5874  -15.3766    0.0000 C   0  0  0  0  0  0  0  0  0  0  0  0
    4.5814  -14.5474    0.0000 C   0  0  0  0  0  0  0  0  0  0  0  0
    3.8656  -14.1417    0.0000 C   0  0  0  0  0  0  0  0  0  0  0  0
    2.4419  -15.8016    0.0000 N   0  0  0  0  0  0  0  0  0  0  0  0
    2.4443  -16.6265    0.0000 O   0  0  0  0  0  0  0  0  0  0  0  0
    1.7263  -15.3912    0.0000 O   0  0  0  0  0  0  0  0  0  0  0  0
  1  2  2  0
 14 15  2  0
  5  4  2  0
 15 16  1  0
  4  1  1  0
 16 17  2  0
  5 10  1  0
 17 18  1  0
 18 13  2  0
  6  7  1  0
 16 19  1  0
  7  8  1  0
 19 20  1  0
  8  9  1  0
 20 21  2  0
  9 10  1  0
 20 22  1  0
  5  6  1  0
 22 23  2  0
  8 11  1  0
 23 24  1  0
 24 25  2  0
 11 12  1  0
 25 26  1  0
  2  3  1  0
 26 27  2  0
 27 22  1  0
 12 13  1  0
  3  6  2  0
 13 14  1  0
 28 29  2  0
 28 30  1  0
 23 28  1  0
M  CHG  2  28   1  30  -1
M  END
>  <Classification>  (106) 
0

>  <pchembl>  (106) 
4.87

>  <InChI_steorem>  (106) 
InChI=1S/C24H23N3O3/c28-24(22-7-3-4-8-23(22)27(29)30)25-21-11-9-18(10-12-21)13-15-26-16-14-19-5-1-2-6-20(19)17-26/h1-12H,13-17H2,(H,25,28)

>  <source>  (106) 
ChEMBL25

>  <source_id>  (106) 
25

>  <optional_reference>  (106) 
10.1016/j.bmc.2007.11.057

>  <optional_origin>  (106) 
None

>  <target>  (106) 
MDR1

$$$$

     RDKit          2D

 31 34  0  0  0  0  0  0  0  0999 V2000
   -5.8676    3.5747    0.0000 C   0  0  0  0  0  0  0  0  0  0  0  0
   -5.8688    2.7474    0.0000 C   0  0  0  0  0  0  0  0  0  0  0  0
   -5.1539    2.3346    0.0000 C   0  0  0  0  0  0  0  0  0  0  0  0
   -5.1557    3.9874    0.0000 C   0  0  0  0  0  0  0  0  0  0  0  0
   -4.4405    3.5784    0.0000 C   0  0  0  0  0  0  0  0  0  0  0  0
   -4.4370    2.7453    0.0000 C   0  0  0  0  0  0  0  0  0  0  0  0
   -3.7180    2.3341    0.0000 C   0  0  0  0  0  0  0  0  0  0  0  0
   -2.9976    2.7512    0.0000 N   0  0  0  0  0  0  0  0  0  0  0  0
   -3.0010    3.5843    0.0000 C   0  0  0  0  0  0  0  0  0  0  0  0
   -3.7248    4.0075    0.0000 C   0  0  0  0  0  0  0  0  0  0  0  0
   -2.2821    2.3407    0.0000 C   0  0  0  0  0  0  0  0  0  0  0  0
   -1.5688    2.7551    0.0000 C   0  0  0  0  0  0  0  0  0  0  0  0
   -0.8532    2.3446    0.0000 C   0  0  0  0  0  0  0  0  0  0  0  0
   -0.8546    1.5196    0.0000 C   0  0  0  0  0  0  0  0  0  0  0  0
   -0.1399    1.1092    0.0000 C   0  0  0  0  0  0  0  0  0  0  0  0
    0.5743    1.5237    0.0000 C   0  0  0  0  0  0  0  0  0  0  0  0
    0.5694    2.3528    0.0000 C   0  0  0  0  0  0  0  0  0  0  0  0
   -0.1459    2.7595    0.0000 C   0  0  0  0  0  0  0  0  0  0  0  0
    1.2904    1.1141    0.0000 N   0  0  0  0  0  0  0  0  0  0  0  0
    2.0031    1.5295    0.0000 C   0  0  0  0  0  0  0  0  0  0  0  0
    2.7193    1.1199    0.0000 N   0  0  0  0  0  0  0  0  0  0  0  0
    1.9998    2.3544    0.0000 O   0  0  0  0  0  0  0  0  0  0  0  0
    3.4319    1.5353    0.0000 C   0  0  0  0  0  0  0  0  0  0  0  0
    4.1462    1.1247    0.0000 C   0  0  0  0  0  0  0  0  0  0  0  0
    4.8585    1.5394    0.0000 C   0  0  0  0  0  0  0  0  0  0  0  0
    4.8556    2.3652    0.0000 C   0  0  0  0  0  0  0  0  0  0  0  0
    4.1345    2.7745    0.0000 C   0  0  0  0  0  0  0  0  0  0  0  0
    3.4252    2.3575    0.0000 C   0  0  0  0  0  0  0  0  0  0  0  0
    4.1514    0.2980    0.0000 N   0  0  0  0  0  0  0  0  0  0  0  0
    4.8670   -0.1125    0.0000 O   0  0  0  0  0  0  0  0  0  0  0  0
    3.4382   -0.1165    0.0000 O   0  0  0  0  0  0  0  0  0  0  0  0
 14 15  2  0
  5  4  1  0
 15 16  1  0
  4  1  2  0
 16 17  2  0
  5 10  1  0
 17 18  1  0
 18 13  2  0
  6  7  1  0
 16 19  1  0
  7  8  1  0
 19 20  1  0
  8  9  1  0
 20 21  1  0
  9 10  1  0
 20 22  2  0
  5  6  2  0
 21 23  1  0
  8 11  1  0
 23 24  2  0
 24 25  1  0
 11 12  1  0
 25 26  2  0
  2  3  2  0
 26 27  1  0
 12 13  1  0
 27 28  2  0
 28 23  1  0
  3  6  1  0
 13 14  1  0
  1  2  1  0
 29 30  2  0
 29 31  1  0
 24 29  1  0
M  CHG  2  29   1  31  -1
M  END
>  <Classification>  (107) 
1

>  <pchembl>  (107) 
6.11

>  <InChI_steorem>  (107) 
InChI=1S/C24H24N4O3/c29-24(26-22-7-3-4-8-23(22)28(30)31)25-21-11-9-18(10-12-21)13-15-27-16-14-19-5-1-2-6-20(19)17-27/h1-12H,13-17H2,(H2,25,26,29)

>  <source>  (107) 
ChEMBL25

>  <source_id>  (107) 
25

>  <optional_reference>  (107) 
10.1016/j.bmc.2009.01.072

>  <optional_origin>  (107) 
None

>  <target>  (107) 
MDR1

$$$$

     RDKit          2D

 32 35  0  0  0  0  0  0  0  0999 V2000
   -5.1175  -23.9929    0.0000 C   0  0  0  0  0  0  0  0  0  0  0  0
   -5.1187  -24.8202    0.0000 C   0  0  0  0  0  0  0  0  0  0  0  0
   -4.4039  -25.2329    0.0000 C   0  0  0  0  0  0  0  0  0  0  0  0
   -4.4057  -23.5801    0.0000 C   0  0  0  0  0  0  0  0  0  0  0  0
   -3.6904  -23.9893    0.0000 C   0  0  0  0  0  0  0  0  0  0  0  0
   -3.6869  -24.8222    0.0000 C   0  0  0  0  0  0  0  0  0  0  0  0
   -2.9679  -25.2334    0.0000 C   0  0  0  0  0  0  0  0  0  0  0  0
   -2.2476  -24.8163    0.0000 N   0  0  0  0  0  0  0  0  0  0  0  0
   -2.2510  -23.9834    0.0000 C   0  0  0  0  0  0  0  0  0  0  0  0
   -2.9747  -23.5675    0.0000 C   0  0  0  0  0  0  0  0  0  0  0  0
   -1.5321  -25.2268    0.0000 C   0  0  0  0  0  0  0  0  0  0  0  0
   -0.8188  -24.8124    0.0000 C   0  0  0  0  0  0  0  0  0  0  0  0
   -0.1033  -25.2229    0.0000 C   0  0  0  0  0  0  0  0  0  0  0  0
   -0.1047  -26.0479    0.0000 C   0  0  0  0  0  0  0  0  0  0  0  0
    0.6100  -26.4584    0.0000 C   0  0  0  0  0  0  0  0  0  0  0  0
    1.3242  -26.0439    0.0000 C   0  0  0  0  0  0  0  0  0  0  0  0
    1.3193  -25.2147    0.0000 C   0  0  0  0  0  0  0  0  0  0  0  0
    0.6040  -24.8081    0.0000 C   0  0  0  0  0  0  0  0  0  0  0  0
    2.0402  -26.4535    0.0000 N   0  0  0  0  0  0  0  0  0  0  0  0
    2.7530  -26.0381    0.0000 C   0  0  0  0  0  0  0  0  0  0  0  0
    2.7497  -25.2132    0.0000 O   0  0  0  0  0  0  0  0  0  0  0  0
    3.4691  -26.4477    0.0000 C   0  0  0  0  0  0  0  0  0  0  0  0
    3.4710  -27.2728    0.0000 C   0  0  0  0  0  0  0  0  0  0  0  0
    4.1862  -27.6822    0.0000 C   0  0  0  0  0  0  0  0  0  0  0  0
    4.8999  -27.2669    0.0000 C   0  0  0  0  0  0  0  0  0  0  0  0
    4.8939  -26.4377    0.0000 C   0  0  0  0  0  0  0  0  0  0  0  0
    4.1781  -26.0319    0.0000 C   0  0  0  0  0  0  0  0  0  0  0  0
    2.7579  -27.6873    0.0000 N   0  0  0  0  0  0  0  0  0  0  0  0
   -5.8320  -23.5806    0.0000 O   0  0  0  0  0  0  0  0  0  0  0  0
   -6.5462  -23.9932    0.0000 C   0  0  0  0  0  0  0  0  0  0  0  0
   -5.8334  -25.2320    0.0000 O   0  0  0  0  0  0  0  0  0  0  0  0
   -6.5474  -24.8190    0.0000 C   0  0  0  0  0  0  0  0  0  0  0  0
  5  4  1  0
 15 16  2  0
  4  1  2  0
 16 17  1  0
  5 10  1  0
 17 18  2  0
 18 13  1  0
  6  7  1  0
 16 19  1  0
  7  8  1  0
 19 20  1  0
  8  9  1  0
 20 21  2  0
  9 10  1  0
 20 22  1  0
  5  6  2  0
 22 23  2  0
  8 11  1  0
 23 24  1  0
 24 25  2  0
 11 12  1  0
 25 26  1  0
  2  3  2  0
 26 27  2  0
 27 22  1  0
 12 13  1  0
 23 28  1  0
  3  6  1  0
  1 29  1  0
 13 14  2  0
 29 30  1  0
  1  2  1  0
  2 31  1  0
 14 15  1  0
 31 32  1  0
M  END
>  <Classification>  (108) 
0

>  <pchembl>  (108) 
4.95

>  <InChI_steorem>  (108) 
InChI=1S/C26H29N3O3/c1-31-24-15-19-12-14-29(17-20(19)16-25(24)32-2)13-11-18-7-9-21(10-8-18)28-26(30)22-5-3-4-6-23(22)27/h3-10,15-16H,11-14,17,27H2,1-2H3,(H,28,30)

>  <source>  (108) 
ChEMBL25

>  <source_id>  (108) 
25

>  <optional_reference>  (108) 
10.1016/j.bmc.2007.11.057

>  <optional_origin>  (108) 
None

>  <target>  (108) 
MDR1

$$$$

     RDKit          2D

 32 35  0  0  0  0  0  0  0  0999 V2000
    8.6808  -24.4470    0.0000 C   0  0  0  0  0  0  0  0  0  0  0  0
    8.6796  -25.2742    0.0000 C   0  0  0  0  0  0  0  0  0  0  0  0
    9.3944  -25.6870    0.0000 C   0  0  0  0  0  0  0  0  0  0  0  0
    9.3926  -24.0343    0.0000 C   0  0  0  0  0  0  0  0  0  0  0  0
   10.1079  -24.4433    0.0000 C   0  0  0  0  0  0  0  0  0  0  0  0
   10.1114  -25.2763    0.0000 C   0  0  0  0  0  0  0  0  0  0  0  0
   10.8304  -25.6875    0.0000 C   0  0  0  0  0  0  0  0  0  0  0  0
   11.5507  -25.2704    0.0000 N   0  0  0  0  0  0  0  0  0  0  0  0
   11.5473  -24.4374    0.0000 C   0  0  0  0  0  0  0  0  0  0  0  0
   10.8236  -24.0216    0.0000 C   0  0  0  0  0  0  0  0  0  0  0  0
   12.2662  -25.6810    0.0000 C   0  0  0  0  0  0  0  0  0  0  0  0
   12.9795  -25.2665    0.0000 C   0  0  0  0  0  0  0  0  0  0  0  0
   13.6950  -25.6771    0.0000 C   0  0  0  0  0  0  0  0  0  0  0  0
   13.6936  -26.5020    0.0000 C   0  0  0  0  0  0  0  0  0  0  0  0
   14.4083  -26.9124    0.0000 C   0  0  0  0  0  0  0  0  0  0  0  0
   15.1225  -26.4979    0.0000 C   0  0  0  0  0  0  0  0  0  0  0  0
   15.1176  -25.6689    0.0000 C   0  0  0  0  0  0  0  0  0  0  0  0
   14.4023  -25.2621    0.0000 C   0  0  0  0  0  0  0  0  0  0  0  0
   15.8386  -26.9075    0.0000 N   0  0  0  0  0  0  0  0  0  0  0  0
   16.5513  -26.4922    0.0000 C   0  0  0  0  0  0  0  0  0  0  0  0
   16.5480  -25.6673    0.0000 O   0  0  0  0  0  0  0  0  0  0  0  0
   17.2674  -26.9017    0.0000 C   0  0  0  0  0  0  0  0  0  0  0  0
   17.2693  -27.7268    0.0000 C   0  0  0  0  0  0  0  0  0  0  0  0
   17.9845  -28.1363    0.0000 C   0  0  0  0  0  0  0  0  0  0  0  0
   18.6982  -27.7209    0.0000 C   0  0  0  0  0  0  0  0  0  0  0  0
   18.6922  -26.8918    0.0000 C   0  0  0  0  0  0  0  0  0  0  0  0
   17.9764  -26.4861    0.0000 C   0  0  0  0  0  0  0  0  0  0  0  0
    7.9663  -24.0347    0.0000 O   0  0  0  0  0  0  0  0  0  0  0  0
    7.2545  -24.4473    0.0000 C   0  0  0  0  0  0  0  0  0  0  0  0
    7.9649  -25.6861    0.0000 O   0  0  0  0  0  0  0  0  0  0  0  0
    7.2556  -25.2731    0.0000 C   0  0  0  0  0  0  0  0  0  0  0  0
   19.4148  -28.1295    0.0000 N   0  0  0  0  0  0  0  0  0  0  0  0
  5  4  1  0
 15 16  2  0
  4  1  2  0
 16 17  1  0
  5 10  1  0
 17 18  2  0
 18 13  1  0
  6  7  1  0
 16 19  1  0
  7  8  1  0
 19 20  1  0
  8  9  1  0
 20 21  2  0
  9 10  1  0
 20 22  1  0
  5  6  2  0
 22 23  2  0
  8 11  1  0
 23 24  1  0
 24 25  2  0
 11 12  1  0
 25 26  1  0
  2  3  2  0
 26 27  2  0
 27 22  1  0
 12 13  1  0
  1 28  1  0
  3  6  1  0
 28 29  1  0
 13 14  2  0
  2 30  1  0
  1  2  1  0
 30 31  1  0
 14 15  1  0
 25 32  1  0
M  END
>  <Classification>  (109) 
1

>  <pchembl>  (109) 
5.15

>  <InChI_steorem>  (109) 
InChI=1S/C26H29N3O3/c1-31-24-15-20-12-14-29(17-21(20)16-25(24)32-2)13-11-18-3-9-23(10-4-18)28-26(30)19-5-7-22(27)8-6-19/h3-10,15-16H,11-14,17,27H2,1-2H3,(H,28,30)

>  <source>  (109) 
ChEMBL25

>  <source_id>  (109) 
25

>  <optional_reference>  (109) 
10.1016/j.bmc.2007.11.057

>  <optional_origin>  (109) 
None

>  <target>  (109) 
MDR1

$$$$

     RDKit          2D

 33 36  0  0  0  0  0  0  0  0999 V2000
   -4.8889   -6.9208    0.0000 C   0  0  0  0  0  0  0  0  0  0  0  0
   -4.8901   -7.7482    0.0000 C   0  0  0  0  0  0  0  0  0  0  0  0
   -4.1753   -8.1610    0.0000 C   0  0  0  0  0  0  0  0  0  0  0  0
   -4.1771   -6.5080    0.0000 C   0  0  0  0  0  0  0  0  0  0  0  0
   -3.4617   -6.9172    0.0000 C   0  0  0  0  0  0  0  0  0  0  0  0
   -3.4583   -7.7502    0.0000 C   0  0  0  0  0  0  0  0  0  0  0  0
   -2.7391   -8.1615    0.0000 C   0  0  0  0  0  0  0  0  0  0  0  0
   -2.0187   -7.7443    0.0000 N   0  0  0  0  0  0  0  0  0  0  0  0
   -2.0221   -6.9113    0.0000 C   0  0  0  0  0  0  0  0  0  0  0  0
   -2.7459   -6.4954    0.0000 C   0  0  0  0  0  0  0  0  0  0  0  0
   -1.3031   -8.1549    0.0000 C   0  0  0  0  0  0  0  0  0  0  0  0
   -0.5898   -7.7404    0.0000 C   0  0  0  0  0  0  0  0  0  0  0  0
    0.1258   -8.1510    0.0000 C   0  0  0  0  0  0  0  0  0  0  0  0
    0.1245   -8.9761    0.0000 C   0  0  0  0  0  0  0  0  0  0  0  0
    0.8392   -9.3866    0.0000 C   0  0  0  0  0  0  0  0  0  0  0  0
    1.5536   -8.9721    0.0000 C   0  0  0  0  0  0  0  0  0  0  0  0
    1.5486   -8.1428    0.0000 C   0  0  0  0  0  0  0  0  0  0  0  0
    0.8333   -7.7361    0.0000 C   0  0  0  0  0  0  0  0  0  0  0  0
    2.2697   -9.3817    0.0000 N   0  0  0  0  0  0  0  0  0  0  0  0
    2.9825   -8.9663    0.0000 C   0  0  0  0  0  0  0  0  0  0  0  0
    3.6986   -9.3759    0.0000 N   0  0  0  0  0  0  0  0  0  0  0  0
    2.9791   -8.1413    0.0000 O   0  0  0  0  0  0  0  0  0  0  0  0
    4.4114   -8.9605    0.0000 C   0  0  0  0  0  0  0  0  0  0  0  0
    5.1258   -9.3710    0.0000 C   0  0  0  0  0  0  0  0  0  0  0  0
    5.8381   -8.9563    0.0000 C   0  0  0  0  0  0  0  0  0  0  0  0
    5.8352   -8.1304    0.0000 C   0  0  0  0  0  0  0  0  0  0  0  0
    5.1140   -7.7210    0.0000 C   0  0  0  0  0  0  0  0  0  0  0  0
    4.4047   -8.1381    0.0000 C   0  0  0  0  0  0  0  0  0  0  0  0
    5.1281  -10.1960    0.0000 N   0  0  0  0  0  0  0  0  0  0  0  0
   -5.6035   -6.5085    0.0000 O   0  0  0  0  0  0  0  0  0  0  0  0
   -6.3179   -6.9211    0.0000 C   0  0  0  0  0  0  0  0  0  0  0  0
   -5.6049   -8.1601    0.0000 O   0  0  0  0  0  0  0  0  0  0  0  0
   -6.3190   -7.7470    0.0000 C   0  0  0  0  0  0  0  0  0  0  0  0
 15 16  2  0
  4  1  2  0
 16 17  1  0
  5 10  1  0
 17 18  2  0
 18 13  1  0
  6  7  1  0
 16 19  1  0
  7  8  1  0
 19 20  1  0
  8  9  1  0
 20 21  1  0
  9 10  1  0
 20 22  2  0
  5  6  2  0
 21 23  1  0
  8 11  1  0
 23 24  2  0
 24 25  1  0
 11 12  1  0
 25 26  2  0
  2  3  2  0
 26 27  1  0
 12 13  1  0
 27 28  2  0
 28 23  1  0
  3  6  1  0
 24 29  1  0
 13 14  2  0
  1 30  1  0
  1  2  1  0
 30 31  1  0
 14 15  1  0
  2 32  1  0
  5  4  1  0
 32 33  1  0
M  END
>  <Classification>  (110) 
0

>  <pchembl>  (110) 
4.68

>  <InChI_steorem>  (110) 
InChI=1S/C26H30N4O3/c1-32-24-15-19-12-14-30(17-20(19)16-25(24)33-2)13-11-18-7-9-21(10-8-18)28-26(31)29-23-6-4-3-5-22(23)27/h3-10,15-16H,11-14,17,27H2,1-2H3,(H2,28,29,31)

>  <source>  (110) 
ChEMBL25

>  <source_id>  (110) 
25

>  <optional_reference>  (110) 
10.1016/j.bmc.2009.01.072

>  <optional_origin>  (110) 
None

>  <target>  (110) 
MDR1

$$$$

     RDKit          2D

 33 36  0  0  0  0  0  0  0  0999 V2000
    9.5527   -8.1291    0.0000 C   0  0  0  0  0  0  0  0  0  0  0  0
    9.5516   -8.9565    0.0000 C   0  0  0  0  0  0  0  0  0  0  0  0
   10.2664   -9.3694    0.0000 C   0  0  0  0  0  0  0  0  0  0  0  0
   10.2646   -7.7164    0.0000 C   0  0  0  0  0  0  0  0  0  0  0  0
   10.9800   -8.1255    0.0000 C   0  0  0  0  0  0  0  0  0  0  0  0
   10.9834   -8.9586    0.0000 C   0  0  0  0  0  0  0  0  0  0  0  0
   11.7026   -9.3699    0.0000 C   0  0  0  0  0  0  0  0  0  0  0  0
   12.4230   -8.9527    0.0000 N   0  0  0  0  0  0  0  0  0  0  0  0
   12.4195   -8.1196    0.0000 C   0  0  0  0  0  0  0  0  0  0  0  0
   11.6957   -7.7037    0.0000 C   0  0  0  0  0  0  0  0  0  0  0  0
   13.1386   -9.3632    0.0000 C   0  0  0  0  0  0  0  0  0  0  0  0
   13.8519   -8.9488    0.0000 C   0  0  0  0  0  0  0  0  0  0  0  0
   14.5675   -9.3593    0.0000 C   0  0  0  0  0  0  0  0  0  0  0  0
   14.5661  -10.1844    0.0000 C   0  0  0  0  0  0  0  0  0  0  0  0
   15.2809  -10.5949    0.0000 C   0  0  0  0  0  0  0  0  0  0  0  0
   15.9952  -10.1804    0.0000 C   0  0  0  0  0  0  0  0  0  0  0  0
   15.9903   -9.3511    0.0000 C   0  0  0  0  0  0  0  0  0  0  0  0
   15.2750   -8.9444    0.0000 C   0  0  0  0  0  0  0  0  0  0  0  0
   16.7114  -10.5900    0.0000 N   0  0  0  0  0  0  0  0  0  0  0  0
   17.4241  -10.1746    0.0000 C   0  0  0  0  0  0  0  0  0  0  0  0
   18.1403  -10.5842    0.0000 N   0  0  0  0  0  0  0  0  0  0  0  0
   17.4208   -9.3496    0.0000 O   0  0  0  0  0  0  0  0  0  0  0  0
   18.8531  -10.1688    0.0000 C   0  0  0  0  0  0  0  0  0  0  0  0
   19.5674  -10.5794    0.0000 C   0  0  0  0  0  0  0  0  0  0  0  0
   20.2798  -10.1647    0.0000 C   0  0  0  0  0  0  0  0  0  0  0  0
   20.2769   -9.3388    0.0000 C   0  0  0  0  0  0  0  0  0  0  0  0
   19.5557   -8.9294    0.0000 C   0  0  0  0  0  0  0  0  0  0  0  0
   18.8463   -9.3464    0.0000 C   0  0  0  0  0  0  0  0  0  0  0  0
    8.8382   -7.7168    0.0000 O   0  0  0  0  0  0  0  0  0  0  0  0
    8.1238   -8.1295    0.0000 C   0  0  0  0  0  0  0  0  0  0  0  0
    8.8368   -9.3684    0.0000 O   0  0  0  0  0  0  0  0  0  0  0  0
    8.1226   -8.9554    0.0000 C   0  0  0  0  0  0  0  0  0  0  0  0
   20.9891   -8.9224    0.0000 N   0  0  0  0  0  0  0  0  0  0  0  0
 15 16  2  0
  4  1  2  0
 16 17  1  0
  5 10  1  0
 17 18  2  0
 18 13  1  0
  6  7  1  0
 16 19  1  0
  7  8  1  0
 19 20  1  0
  8  9  1  0
 20 21  1  0
  9 10  1  0
 20 22  2  0
  5  6  2  0
 21 23  1  0
  8 11  1  0
 23 24  2  0
 24 25  1  0
 11 12  1  0
 25 26  2  0
  2  3  2  0
 26 27  1  0
 12 13  1  0
 27 28  2  0
 28 23  1  0
  3  6  1  0
  1 29  1  0
 13 14  2  0
 29 30  1  0
  1  2  1  0
  2 31  1  0
 14 15  1  0
 31 32  1  0
  5  4  1  0
 26 33  1  0
M  END
>  <Classification>  (111) 
0

>  <pchembl>  (111) 
4.51

>  <InChI_steorem>  (111) 
InChI=1S/C26H30N4O3/c1-32-24-15-19-12-14-30(17-20(19)16-25(24)33-2)13-11-18-3-7-22(8-4-18)28-26(31)29-23-9-5-21(27)6-10-23/h3-10,15-16H,11-14,17,27H2,1-2H3,(H2,28,29,31)

>  <source>  (111) 
ChEMBL25

>  <source_id>  (111) 
25

>  <optional_reference>  (111) 
10.1016/j.bmc.2009.01.072

>  <optional_origin>  (111) 
None

>  <target>  (111) 
MDR1

$$$$

     RDKit          2D

 34 37  0  0  0  0  0  0  0  0999 V2000
   -4.7133  -17.3020    0.0000 C   0  0  0  0  0  0  0  0  0  0  0  0
   -4.7145  -18.1293    0.0000 C   0  0  0  0  0  0  0  0  0  0  0  0
   -3.9998  -18.5421    0.0000 C   0  0  0  0  0  0  0  0  0  0  0  0
   -4.0016  -16.8893    0.0000 C   0  0  0  0  0  0  0  0  0  0  0  0
   -3.2863  -17.2984    0.0000 C   0  0  0  0  0  0  0  0  0  0  0  0
   -3.2829  -18.1314    0.0000 C   0  0  0  0  0  0  0  0  0  0  0  0
   -2.5638  -18.5426    0.0000 C   0  0  0  0  0  0  0  0  0  0  0  0
   -1.8435  -18.1255    0.0000 N   0  0  0  0  0  0  0  0  0  0  0  0
   -1.8469  -17.2925    0.0000 C   0  0  0  0  0  0  0  0  0  0  0  0
   -2.5706  -16.8766    0.0000 C   0  0  0  0  0  0  0  0  0  0  0  0
   -1.1280  -18.5359    0.0000 C   0  0  0  0  0  0  0  0  0  0  0  0
   -0.4147  -18.1216    0.0000 C   0  0  0  0  0  0  0  0  0  0  0  0
    0.3008  -18.5320    0.0000 C   0  0  0  0  0  0  0  0  0  0  0  0
    0.2995  -19.3570    0.0000 C   0  0  0  0  0  0  0  0  0  0  0  0
    1.0141  -19.7675    0.0000 C   0  0  0  0  0  0  0  0  0  0  0  0
    1.7284  -19.3530    0.0000 C   0  0  0  0  0  0  0  0  0  0  0  0
    1.7234  -18.5238    0.0000 C   0  0  0  0  0  0  0  0  0  0  0  0
    1.0082  -18.1172    0.0000 C   0  0  0  0  0  0  0  0  0  0  0  0
    2.4444  -19.7626    0.0000 N   0  0  0  0  0  0  0  0  0  0  0  0
    3.1571  -19.3472    0.0000 C   0  0  0  0  0  0  0  0  0  0  0  0
    3.1537  -18.5223    0.0000 O   0  0  0  0  0  0  0  0  0  0  0  0
    3.8731  -19.7568    0.0000 C   0  0  0  0  0  0  0  0  0  0  0  0
    3.8751  -20.5819    0.0000 C   0  0  0  0  0  0  0  0  0  0  0  0
    4.5903  -20.9913    0.0000 C   0  0  0  0  0  0  0  0  0  0  0  0
    5.3040  -20.5760    0.0000 C   0  0  0  0  0  0  0  0  0  0  0  0
    5.2980  -19.7468    0.0000 C   0  0  0  0  0  0  0  0  0  0  0  0
    4.5822  -19.3410    0.0000 C   0  0  0  0  0  0  0  0  0  0  0  0
   -5.4278  -16.8897    0.0000 O   0  0  0  0  0  0  0  0  0  0  0  0
   -6.1480  -17.3024    0.0000 C   0  0  0  0  0  0  0  0  0  0  0  0
   -5.4292  -18.5411    0.0000 O   0  0  0  0  0  0  0  0  0  0  0  0
   -6.1468  -18.1282    0.0000 C   0  0  0  0  0  0  0  0  0  0  0  0
    6.0232  -20.9879    0.0000 N   0  0  0  0  0  0  0  0  0  0  0  0
    6.7354  -20.5716    0.0000 O   0  0  0  0  0  0  0  0  0  0  0  0
    6.0276  -21.8127    0.0000 O   0  0  0  0  0  0  0  0  0  0  0  0
  4  1  2  0
 16 17  1  0
  5 10  1  0
 17 18  2  0
 18 13  1  0
  6  7  1  0
 16 19  1  0
  7  8  1  0
 19 20  1  0
  8  9  1  0
 20 21  2  0
  9 10  1  0
 20 22  1  0
  5  6  2  0
 22 23  2  0
  8 11  1  0
 23 24  1  0
 24 25  2  0
 11 12  1  0
 25 26  1  0
  2  3  2  0
 26 27  2  0
 27 22  1  0
 12 13  1  0
  1 28  1  0
  3  6  1  0
 28 29  1  0
 13 14  2  0
  2 30  1  0
  1  2  1  0
 30 31  1  0
 14 15  1  0
  5  4  1  0
 15 16  2  0
 32 33  2  0
 32 34  1  0
 25 32  1  0
M  CHG  2  32   1  34  -1
M  END
>  <Classification>  (112) 
1

>  <pchembl>  (112) 
5.86

>  <InChI_steorem>  (112) 
InChI=1S/C26H27N3O5/c1-33-24-15-20-12-14-28(17-21(20)16-25(24)34-2)13-11-18-3-7-22(8-4-18)27-26(30)19-5-9-23(10-6-19)29(31)32/h3-10,15-16H,11-14,17H2,1-2H3,(H,27,30)

>  <source>  (112) 
ChEMBL25

>  <source_id>  (112) 
25

>  <optional_reference>  (112) 
10.1016/j.bmc.2007.11.057

>  <optional_origin>  (112) 
None

>  <target>  (112) 
MDR1

$$$$

     RDKit          2D

 34 37  0  0  0  0  0  0  0  0999 V2000
    9.5932  -12.8567    0.0000 C   0  0  0  0  0  0  0  0  0  0  0  0
    9.5920  -13.6840    0.0000 C   0  0  0  0  0  0  0  0  0  0  0  0
   10.3068  -14.0968    0.0000 C   0  0  0  0  0  0  0  0  0  0  0  0
   10.3050  -12.4440    0.0000 C   0  0  0  0  0  0  0  0  0  0  0  0
   11.0202  -12.8531    0.0000 C   0  0  0  0  0  0  0  0  0  0  0  0
   11.0237  -13.6860    0.0000 C   0  0  0  0  0  0  0  0  0  0  0  0
   11.7428  -14.0973    0.0000 C   0  0  0  0  0  0  0  0  0  0  0  0
   12.4631  -13.6801    0.0000 N   0  0  0  0  0  0  0  0  0  0  0  0
   12.4597  -12.8472    0.0000 C   0  0  0  0  0  0  0  0  0  0  0  0
   11.7360  -12.4314    0.0000 C   0  0  0  0  0  0  0  0  0  0  0  0
   13.1786  -14.0907    0.0000 C   0  0  0  0  0  0  0  0  0  0  0  0
   13.8919  -13.6762    0.0000 C   0  0  0  0  0  0  0  0  0  0  0  0
   14.6074  -14.0868    0.0000 C   0  0  0  0  0  0  0  0  0  0  0  0
   14.6060  -14.9118    0.0000 C   0  0  0  0  0  0  0  0  0  0  0  0
   15.3207  -15.3222    0.0000 C   0  0  0  0  0  0  0  0  0  0  0  0
   16.0349  -14.9078    0.0000 C   0  0  0  0  0  0  0  0  0  0  0  0
   16.0300  -14.0786    0.0000 C   0  0  0  0  0  0  0  0  0  0  0  0
   15.3147  -13.6719    0.0000 C   0  0  0  0  0  0  0  0  0  0  0  0
   16.7509  -15.3173    0.0000 N   0  0  0  0  0  0  0  0  0  0  0  0
   17.4637  -14.9020    0.0000 C   0  0  0  0  0  0  0  0  0  0  0  0
   17.4604  -14.0771    0.0000 O   0  0  0  0  0  0  0  0  0  0  0  0
   18.1798  -15.3115    0.0000 C   0  0  0  0  0  0  0  0  0  0  0  0
   18.1817  -16.1366    0.0000 C   0  0  0  0  0  0  0  0  0  0  0  0
   18.8969  -16.5461    0.0000 C   0  0  0  0  0  0  0  0  0  0  0  0
   19.6106  -16.1307    0.0000 C   0  0  0  0  0  0  0  0  0  0  0  0
   19.6046  -15.3015    0.0000 C   0  0  0  0  0  0  0  0  0  0  0  0
   18.8888  -14.8958    0.0000 C   0  0  0  0  0  0  0  0  0  0  0  0
    8.8787  -12.4445    0.0000 O   0  0  0  0  0  0  0  0  0  0  0  0
    8.1645  -12.8570    0.0000 C   0  0  0  0  0  0  0  0  0  0  0  0
    8.8773  -14.0959    0.0000 O   0  0  0  0  0  0  0  0  0  0  0  0
    8.1633  -13.6828    0.0000 C   0  0  0  0  0  0  0  0  0  0  0  0
   17.4651  -16.5556    0.0000 N   0  0  0  0  0  0  0  0  0  0  0  0
   17.4675  -17.3805    0.0000 O   0  0  0  0  0  0  0  0  0  0  0  0
   16.7494  -16.1453    0.0000 O   0  0  0  0  0  0  0  0  0  0  0  0
  4  1  2  0
 16 17  1  0
  5 10  1  0
 17 18  2  0
 18 13  1  0
  6  7  1  0
 16 19  1  0
  7  8  1  0
 19 20  1  0
  8  9  1  0
 20 21  2  0
  9 10  1  0
 20 22  1  0
  5  6  2  0
 22 23  2  0
  8 11  1  0
 23 24  1  0
 24 25  2  0
 11 12  1  0
 25 26  1  0
  2  3  2  0
 26 27  2  0
 27 22  1  0
 12 13  1  0
  1 28  1  0
  3  6  1  0
 28 29  1  0
 13 14  2  0
  2 30  1  0
  1  2  1  0
 30 31  1  0
 14 15  1  0
  5  4  1  0
 15 16  2  0
 32 33  2  0
 32 34  1  0
 23 32  1  0
M  CHG  2  32   1  34  -1
M  END
>  <Classification>  (113) 
1

>  <pchembl>  (113) 
5.26

>  <InChI_steorem>  (113) 
InChI=1S/C26H27N3O5/c1-33-24-15-19-12-14-28(17-20(19)16-25(24)34-2)13-11-18-7-9-21(10-8-18)27-26(30)22-5-3-4-6-23(22)29(31)32/h3-10,15-16H,11-14,17H2,1-2H3,(H,27,30)

>  <source>  (113) 
ChEMBL25

>  <source_id>  (113) 
25

>  <optional_reference>  (113) 
10.1016/j.bmc.2007.11.057

>  <optional_origin>  (113) 
None

>  <target>  (113) 
MDR1

$$$$

     RDKit          2D

 35 38  0  0  0  0  0  0  0  0999 V2000
   10.1292   -5.8000    0.0000 C   0  0  0  0  0  0  0  0  0  0  0  0
   12.2667   -7.0375    0.0000 N   0  0  0  0  0  0  0  0  0  0  0  0
   17.9792   -8.6875    0.0000 C   0  0  0  0  0  0  0  0  0  0  0  0
   17.2667   -8.2750    0.0000 C   0  0  0  0  0  0  0  0  0  0  0  0
   10.8458   -6.2125    0.0000 C   0  0  0  0  0  0  0  0  0  0  0  0
   15.8417   -7.4500    0.0000 C   0  0  0  0  0  0  0  0  0  0  0  0
    9.7167   -6.5125    0.0000 C   0  0  0  0  0  0  0  0  0  0  0  0
    9.4083   -5.3875    0.0000 C   0  0  0  0  0  0  0  0  0  0  0  0
   17.2583   -7.4500    0.0000 C   0  0  0  0  0  0  0  0  0  0  0  0
   16.5458   -8.6875    0.0000 C   0  0  0  0  0  0  0  0  0  0  0  0
   16.5458   -7.0375    0.0000 C   0  0  0  0  0  0  0  0  0  0  0  0
   15.8333   -8.2750    0.0000 C   0  0  0  0  0  0  0  0  0  0  0  0
   10.8458   -7.0375    0.0000 C   0  0  0  0  0  0  0  0  0  0  0  0
   11.5542   -5.7958    0.0000 C   0  0  0  0  0  0  0  0  0  0  0  0
   12.2667   -6.2125    0.0000 C   0  0  0  0  0  0  0  0  0  0  0  0
   11.5542   -7.4458    0.0000 C   0  0  0  0  0  0  0  0  0  0  0  0
   10.5417   -5.0875    0.0000 O   0  0  0  0  0  0  0  0  0  0  0  0
   15.1208   -7.0375    0.0000 C   0  0  0  0  0  0  0  0  0  0  0  0
   12.9833   -7.4500    0.0000 C   0  0  0  0  0  0  0  0  0  0  0  0
   15.1208   -6.2125    0.0000 O   0  0  0  0  0  0  0  0  0  0  0  0
   13.6958   -7.0375    0.0000 C   0  0  0  0  0  0  0  0  0  0  0  0
   18.6917   -9.1000    0.0000 C   0  0  0  0  0  0  0  0  0  0  0  0
   17.5667   -9.4083    0.0000 C   0  0  0  0  0  0  0  0  0  0  0  0
   18.3958   -7.9750    0.0000 C   0  0  0  0  0  0  0  0  0  0  0  0
   14.4083   -7.4500    0.0000 C   0  0  0  0  0  0  0  0  0  0  0  0
    8.6958   -5.8000    0.0000 C   0  0  0  0  0  0  0  0  0  0  0  0
    9.4083   -4.5500    0.0000 C   0  0  0  0  0  0  0  0  0  0  0  0
    8.8917   -6.5125    0.0000 C   0  0  0  0  0  0  0  0  0  0  0  0
   10.1333   -7.2250    0.0000 C   0  0  0  0  0  0  0  0  0  0  0  0
    7.9708   -5.3833    0.0000 C   0  0  0  0  0  0  0  0  0  0  0  0
    9.7167   -7.9458    0.0000 C   0  0  0  0  0  0  0  0  0  0  0  0
    8.4792   -7.2250    0.0000 C   0  0  0  0  0  0  0  0  0  0  0  0
    8.6958   -4.1375    0.0000 C   0  0  0  0  0  0  0  0  0  0  0  0
    8.8833   -7.9458    0.0000 C   0  0  0  0  0  0  0  0  0  0  0  0
    7.9792   -4.5500    0.0000 C   0  0  0  0  0  0  0  0  0  0  0  0
  2 15  1  0
  3  4  1  0
  4 10  2  0
  5  1  1  0
  6 18  1  0
  7  1  1  0
  8  1  1  0
  9 11  2  0
 10 12  1  0
 11  6  1  0
 12  6  2  0
 13  5  1  0
 14  5  1  0
 15 14  1  0
 16 13  1  0
 17  1  1  0
 18 25  1  0
 19  2  1  0
 20 18  1  0
 21 19  1  0
 22  3  1  0
 23  3  1  0
 24  3  1  0
 25 21  1  0
 26  8  2  0
 27  8  1  0
 28  7  2  0
 29  7  1  0
 30 26  1  0
 31 29  2  0
 32 28  1  0
 33 27  2  0
 34 31  1  0
 35 33  1  0
 16  2  1  0
 30 35  2  0
 32 34  2  0
  9  4  1  0
M  END
>  <Classification>  (114) 
1

>  <pchembl>  (114) 
5.85

>  <InChI_steorem>  (114) 
InChI=1S/C32H41NO2/c1-31(2,3)26-18-16-25(17-19-26)30(34)15-10-22-33-23-20-29(21-24-33)32(35,27-11-6-4-7-12-27)28-13-8-5-9-14-28/h4-9,11-14,16-19,29-30,34-35H,10,15,20-24H2,1-3H3

>  <source>  (114) 
ChEMBL25

>  <source_id>  (114) 
25

>  <optional_reference>  (114) 
10.1021/jm021012t

>  <optional_origin>  (114) 
None

>  <target>  (114) 
MDR1

$$$$

     RDKit          2D

 35 38  0  0  0  0  0  0  0  0999 V2000
   -5.3341   -2.1288    0.0000 C   0  0  0  0  0  0  0  0  0  0  0  0
   -5.3352   -2.9561    0.0000 C   0  0  0  0  0  0  0  0  0  0  0  0
   -4.6205   -3.3690    0.0000 C   0  0  0  0  0  0  0  0  0  0  0  0
   -4.6223   -1.7162    0.0000 C   0  0  0  0  0  0  0  0  0  0  0  0
   -3.9070   -2.1252    0.0000 C   0  0  0  0  0  0  0  0  0  0  0  0
   -3.9036   -2.9582    0.0000 C   0  0  0  0  0  0  0  0  0  0  0  0
   -3.1845   -3.3695    0.0000 C   0  0  0  0  0  0  0  0  0  0  0  0
   -2.4642   -2.9523    0.0000 N   0  0  0  0  0  0  0  0  0  0  0  0
   -2.4677   -2.1193    0.0000 C   0  0  0  0  0  0  0  0  0  0  0  0
   -3.1914   -1.7035    0.0000 C   0  0  0  0  0  0  0  0  0  0  0  0
   -1.7487   -3.3628    0.0000 C   0  0  0  0  0  0  0  0  0  0  0  0
   -1.0355   -2.9484    0.0000 C   0  0  0  0  0  0  0  0  0  0  0  0
   -0.3200   -3.3589    0.0000 C   0  0  0  0  0  0  0  0  0  0  0  0
   -0.3214   -4.1839    0.0000 C   0  0  0  0  0  0  0  0  0  0  0  0
    0.3934   -4.5943    0.0000 C   0  0  0  0  0  0  0  0  0  0  0  0
    1.1076   -4.1799    0.0000 C   0  0  0  0  0  0  0  0  0  0  0  0
    1.1027   -3.3507    0.0000 C   0  0  0  0  0  0  0  0  0  0  0  0
    0.3875   -2.9440    0.0000 C   0  0  0  0  0  0  0  0  0  0  0  0
    1.8237   -4.5894    0.0000 N   0  0  0  0  0  0  0  0  0  0  0  0
    2.5363   -4.1741    0.0000 C   0  0  0  0  0  0  0  0  0  0  0  0
    3.2524   -4.5836    0.0000 N   0  0  0  0  0  0  0  0  0  0  0  0
    2.5330   -3.3492    0.0000 O   0  0  0  0  0  0  0  0  0  0  0  0
    3.9651   -4.1683    0.0000 C   0  0  0  0  0  0  0  0  0  0  0  0
    4.6793   -4.5788    0.0000 C   0  0  0  0  0  0  0  0  0  0  0  0
    5.3916   -4.1642    0.0000 C   0  0  0  0  0  0  0  0  0  0  0  0
    5.3887   -3.3384    0.0000 C   0  0  0  0  0  0  0  0  0  0  0  0
    4.6676   -2.9290    0.0000 C   0  0  0  0  0  0  0  0  0  0  0  0
    3.9583   -3.3460    0.0000 C   0  0  0  0  0  0  0  0  0  0  0  0
   -6.0500   -1.7166    0.0000 O   0  0  0  0  0  0  0  0  0  0  0  0
   -6.7688   -2.1292    0.0000 C   0  0  0  0  0  0  0  0  0  0  0  0
   -6.0569   -3.3680    0.0000 O   0  0  0  0  0  0  0  0  0  0  0  0
   -6.7677   -2.9550    0.0000 C   0  0  0  0  0  0  0  0  0  0  0  0
    6.1026   -2.9203    0.0000 N   0  0  0  0  0  0  0  0  0  0  0  0
    6.0982   -2.0954    0.0000 O   0  0  0  0  0  0  0  0  0  0  0  0
    6.8192   -3.3289    0.0000 O   0  0  0  0  0  0  0  0  0  0  0  0
 16 17  1  0
  5 10  1  0
 17 18  2  0
 18 13  1  0
  6  7  1  0
 16 19  1  0
  7  8  1  0
 19 20  1  0
  8  9  1  0
 20 21  1  0
  9 10  1  0
 20 22  2  0
  5  6  1  0
 21 23  1  0
  8 11  1  0
 23 24  2  0
 24 25  1  0
 11 12  1  0
 25 26  2  0
  2  3  1  0
 26 27  1  0
 12 13  1  0
 27 28  2  0
 28 23  1  0
  3  6  2  0
  1 29  1  0
 13 14  2  0
 29 30  1  0
  1  2  2  0
  2 31  1  0
 14 15  1  0
 31 32  1  0
  5  4  2  0
 15 16  2  0
  4  1  1  0
 33 34  2  0
 33 35  1  0
 26 33  1  0
M  CHG  2  33   1  35  -1
M  END
>  <Classification>  (115) 
1

>  <pchembl>  (115) 
5.82

>  <InChI_steorem>  (115) 
InChI=1S/C26H28N4O5/c1-34-24-15-19-12-14-29(17-20(19)16-25(24)35-2)13-11-18-3-5-21(6-4-18)27-26(31)28-22-7-9-23(10-8-22)30(32)33/h3-10,15-16H,11-14,17H2,1-2H3,(H2,27,28,31)

>  <source>  (115) 
ChEMBL25

>  <source_id>  (115) 
25

>  <optional_reference>  (115) 
10.1016/j.bmc.2009.01.072

>  <optional_origin>  (115) 
None

>  <target>  (115) 
MDR1

$$$$

     RDKit          2D

 35 38  0  0  0  0  0  0  0  0999 V2000
    9.1861    3.3875    0.0000 C   0  0  0  0  0  0  0  0  0  0  0  0
    9.1849    2.5602    0.0000 C   0  0  0  0  0  0  0  0  0  0  0  0
    9.8997    2.1473    0.0000 C   0  0  0  0  0  0  0  0  0  0  0  0
    9.8979    3.8003    0.0000 C   0  0  0  0  0  0  0  0  0  0  0  0
   10.6133    3.3912    0.0000 C   0  0  0  0  0  0  0  0  0  0  0  0
   10.6167    2.5581    0.0000 C   0  0  0  0  0  0  0  0  0  0  0  0
   11.3359    2.1468    0.0000 C   0  0  0  0  0  0  0  0  0  0  0  0
   12.0563    2.5640    0.0000 N   0  0  0  0  0  0  0  0  0  0  0  0
   12.0529    3.3971    0.0000 C   0  0  0  0  0  0  0  0  0  0  0  0
   11.3291    3.8130    0.0000 C   0  0  0  0  0  0  0  0  0  0  0  0
   12.7719    2.1534    0.0000 C   0  0  0  0  0  0  0  0  0  0  0  0
   13.4852    2.5679    0.0000 C   0  0  0  0  0  0  0  0  0  0  0  0
   14.2008    2.1573    0.0000 C   0  0  0  0  0  0  0  0  0  0  0  0
   14.1995    1.3322    0.0000 C   0  0  0  0  0  0  0  0  0  0  0  0
   14.9142    0.9218    0.0000 C   0  0  0  0  0  0  0  0  0  0  0  0
   15.6286    1.3363    0.0000 C   0  0  0  0  0  0  0  0  0  0  0  0
   15.6236    2.1655    0.0000 C   0  0  0  0  0  0  0  0  0  0  0  0
   14.9083    2.5723    0.0000 C   0  0  0  0  0  0  0  0  0  0  0  0
   16.3447    0.9267    0.0000 N   0  0  0  0  0  0  0  0  0  0  0  0
   17.0575    1.3421    0.0000 C   0  0  0  0  0  0  0  0  0  0  0  0
   17.7736    0.9325    0.0000 N   0  0  0  0  0  0  0  0  0  0  0  0
   17.0541    2.1671    0.0000 O   0  0  0  0  0  0  0  0  0  0  0  0
   18.4864    1.3479    0.0000 C   0  0  0  0  0  0  0  0  0  0  0  0
   19.2008    0.9373    0.0000 C   0  0  0  0  0  0  0  0  0  0  0  0
   19.9131    1.3520    0.0000 C   0  0  0  0  0  0  0  0  0  0  0  0
   19.9102    2.1779    0.0000 C   0  0  0  0  0  0  0  0  0  0  0  0
   19.1890    2.5873    0.0000 C   0  0  0  0  0  0  0  0  0  0  0  0
   18.4797    2.1702    0.0000 C   0  0  0  0  0  0  0  0  0  0  0  0
   19.2060    0.1105    0.0000 N   0  0  0  0  0  0  0  0  0  0  0  0
   19.9216   -0.3000    0.0000 O   0  0  0  0  0  0  0  0  0  0  0  0
   18.4927   -0.3040    0.0000 O   0  0  0  0  0  0  0  0  0  0  0  0
    8.4715    3.7999    0.0000 O   0  0  0  0  0  0  0  0  0  0  0  0
    7.7571    3.3872    0.0000 C   0  0  0  0  0  0  0  0  0  0  0  0
    8.4701    2.1482    0.0000 O   0  0  0  0  0  0  0  0  0  0  0  0
    7.7560    2.5613    0.0000 C   0  0  0  0  0  0  0  0  0  0  0  0
 16 17  1  0
  5 10  1  0
 17 18  2  0
 18 13  1  0
  6  7  1  0
 16 19  1  0
  7  8  1  0
 19 20  1  0
  8  9  1  0
 20 21  1  0
  9 10  1  0
 20 22  2  0
  5  6  1  0
 21 23  1  0
  8 11  1  0
 23 24  2  0
 24 25  1  0
 11 12  1  0
 25 26  2  0
  2  3  1  0
 26 27  1  0
 12 13  1  0
 27 28  2  0
 28 23  1  0
  3  6  2  0
 13 14  2  0
  1  2  2  0
 29 30  2  0
 29 31  1  0
 24 29  1  0
 14 15  1  0
  1 32  1  0
  5  4  2  0
 32 33  1  0
 15 16  2  0
  2 34  1  0
  4  1  1  0
 34 35  1  0
M  CHG  2  29   1  31  -1
M  END
>  <Classification>  (116) 
1

>  <pchembl>  (116) 
6.48

>  <InChI_steorem>  (116) 
InChI=1S/C26H28N4O5/c1-34-24-15-19-12-14-29(17-20(19)16-25(24)35-2)13-11-18-7-9-21(10-8-18)27-26(31)28-22-5-3-4-6-23(22)30(32)33/h3-10,15-16H,11-14,17H2,1-2H3,(H2,27,28,31)

>  <source>  (116) 
ChEMBL25

>  <source_id>  (116) 
25

>  <optional_reference>  (116) 
10.1016/j.bmc.2009.01.072

>  <optional_origin>  (116) 
None

>  <target>  (116) 
MDR1

$$$$

     RDKit          2D

 44 48  0  0  0  0  0  0  0  0999 V2000
   10.1687    4.6830    0.0000 C   0  0  0  0  0  0  0  0  0  0  0  0
   10.1675    3.8474    0.0000 C   0  0  0  0  0  0  0  0  0  0  0  0
   10.8824    3.4346    0.0000 C   0  0  0  0  0  0  0  0  0  0  0  0
   10.8806    5.0952    0.0000 C   0  0  0  0  0  0  0  0  0  0  0  0
   11.5958    4.6794    0.0000 C   0  0  0  0  0  0  0  0  0  0  0  0
   11.5993    3.8453    0.0000 C   0  0  0  0  0  0  0  0  0  0  0  0
   12.3184    3.4341    0.0000 C   0  0  0  0  0  0  0  0  0  0  0  0
   13.0387    3.8512    0.0000 N   0  0  0  0  0  0  0  0  0  0  0  0
   13.0353    4.6901    0.0000 C   0  0  0  0  0  0  0  0  0  0  0  0
   12.3116    5.1076    0.0000 C   0  0  0  0  0  0  0  0  0  0  0  0
   13.7543    3.4407    0.0000 C   0  0  0  0  0  0  0  0  0  0  0  0
   14.4676    3.8551    0.0000 C   0  0  0  0  0  0  0  0  0  0  0  0
   15.1832    3.4446    0.0000 C   0  0  0  0  0  0  0  0  0  0  0  0
   15.1818    2.6195    0.0000 C   0  0  0  0  0  0  0  0  0  0  0  0
   15.8965    2.2092    0.0000 C   0  0  0  0  0  0  0  0  0  0  0  0
   16.6108    2.6236    0.0000 C   0  0  0  0  0  0  0  0  0  0  0  0
   16.6059    3.4528    0.0000 C   0  0  0  0  0  0  0  0  0  0  0  0
   15.8906    3.8595    0.0000 C   0  0  0  0  0  0  0  0  0  0  0  0
   17.3269    2.2141    0.0000 N   0  0  0  0  0  0  0  0  0  0  0  0
   18.0396    2.6294    0.0000 C   0  0  0  0  0  0  0  0  0  0  0  0
   18.0363    3.4544    0.0000 O   0  0  0  0  0  0  0  0  0  0  0  0
    9.4542    5.0873    0.0000 O   0  0  0  0  0  0  0  0  0  0  0  0
    8.7399    4.6750    0.0000 C   0  0  0  0  0  0  0  0  0  0  0  0
    9.4528    3.4355    0.0000 O   0  0  0  0  0  0  0  0  0  0  0  0
    8.7387    3.8485    0.0000 C   0  0  0  0  0  0  0  0  0  0  0  0
   18.7557    2.2199    0.0000 C   0  0  0  0  0  0  0  0  0  0  0  0
   18.7577    1.3947    0.0000 C   0  0  0  0  0  0  0  0  0  0  0  0
   19.4729    0.9851    0.0000 C   0  0  0  0  0  0  0  0  0  0  0  0
   20.1867    1.4006    0.0000 C   0  0  0  0  0  0  0  0  0  0  0  0
   20.1807    2.2298    0.0000 C   0  0  0  0  0  0  0  0  0  0  0  0
   19.4648    2.6355    0.0000 C   0  0  0  0  0  0  0  0  0  0  0  0
   18.0445    0.9800    0.0000 N   0  0  0  0  0  0  0  0  0  0  0  0
   18.0469    0.1551    0.0000 C   0  0  0  0  0  0  0  0  0  0  0  0
   17.3338   -0.2595    0.0000 C   0  0  0  0  0  0  0  0  0  0  0  0
   18.7626   -0.2552    0.0000 O   0  0  0  0  0  0  0  0  0  0  0  0
   16.6203    0.1546    0.0000 C   0  0  0  0  0  0  0  0  0  0  0  0
   15.9076   -0.2594    0.0000 C   0  0  0  0  0  0  0  0  0  0  0  0
   15.9096   -1.0852    0.0000 C   0  0  0  0  0  0  0  0  0  0  0  0
   16.6303   -1.4953    0.0000 C   0  0  0  0  0  0  0  0  0  0  0  0
   17.3401   -1.0790    0.0000 C   0  0  0  0  0  0  0  0  0  0  0  0
   16.6357   -2.3202    0.0000 O   0  0  0  0  0  0  0  0  0  0  0  0
   15.1970   -1.5007    0.0000 O   0  0  0  0  0  0  0  0  0  0  0  0
   14.4808   -1.0913    0.0000 C   0  0  0  0  0  0  0  0  0  0  0  0
   15.9239   -2.7374    0.0000 C   0  0  0  0  0  0  0  0  0  0  0  0
 20 21  2  0
  9 10  1  0
  1 22  1  0
  5  6  1  0
 22 23  1  0
  8 11  1  0
  2 24  1  0
 24 25  1  0
 11 12  1  0
 20 26  1  0
  2  3  1  0
 26 27  1  0
 12 13  1  0
 27 28  2  0
  3  6  2  0
 28 29  1  0
 13 14  2  0
 29 30  2  0
  1  2  2  0
 30 31  1  0
 31 26  2  0
 14 15  1  0
 27 32  1  0
  5  4  2  0
 32 33  1  0
 15 16  2  0
 33 34  1  0
  4  1  1  0
 33 35  2  0
 16 17  1  0
 34 36  2  0
  5 10  1  0
 36 37  1  0
 17 18  2  0
 37 38  2  0
 18 13  1  0
 38 39  1  0
  6  7  1  0
 39 40  2  0
 40 34  1  0
 16 19  1  0
 39 41  1  0
  7  8  1  0
 38 42  1  0
 19 20  1  0
 42 43  1  0
  8  9  1  0
 41 44  1  0
M  END
>  <Classification>  (117) 
1

>  <pchembl>  (117) 
6.47

>  <InChI_steorem>  (117) 
InChI=1S/C35H37N3O6/c1-41-30-14-11-25(20-31(30)42-2)34(39)37-29-8-6-5-7-28(29)35(40)36-27-12-9-23(10-13-27)15-17-38-18-16-24-19-32(43-3)33(44-4)21-26(24)22-38/h5-14,19-21H,15-18,22H2,1-4H3,(H,36,40)(H,37,39)

>  <source>  (117) 
ChEMBL25

>  <source_id>  (117) 
25

>  <optional_reference>  (117) 
10.1016/j.bmc.2007.07.024

>  <optional_origin>  (117) 
None

>  <target>  (117) 
MDR1

$$$$

     RDKit          2D

 20 22  0  0  0  0  0  0  0  0999 V2000
   -3.6867  -11.1176    0.0000 O   0  0  0  0  0  0  0  0  0  0  0  0
   -3.6648   -9.7859    0.0000 C   0  0  0  0  0  0  0  0  0  0  0  0
   -4.1565  -10.4440    0.0000 C   0  0  0  0  0  0  0  0  0  0  0  0
   -2.8847  -10.0542    0.0000 C   0  0  0  0  0  0  0  0  0  0  0  0
   -2.9004  -10.8811    0.0000 C   0  0  0  0  0  0  0  0  0  0  0  0
   -2.1962  -11.3059    0.0000 C   0  0  0  0  0  0  0  0  0  0  0  0
   -2.1647   -9.6521    0.0000 C   0  0  0  0  0  0  0  0  0  0  0  0
   -1.4558  -10.0815    0.0000 C   0  0  0  0  0  0  0  0  0  0  0  0
   -1.4703  -10.9117    0.0000 C   0  0  0  0  0  0  0  0  0  0  0  0
   -0.7624  -11.3370    0.0000 O   0  0  0  0  0  0  0  0  0  0  0  0
   -0.0356  -10.9367    0.0000 C   0  0  0  0  0  0  0  0  0  0  0  0
   -0.0211  -10.1065    0.0000 C   0  0  0  0  0  0  0  0  0  0  0  0
   -0.7335   -9.6765    0.0000 C   0  0  0  0  0  0  0  0  0  0  0  0
    0.6688  -11.3612    0.0000 O   0  0  0  0  0  0  0  0  0  0  0  0
   -2.2147  -12.1281    0.0000 O   0  0  0  0  0  0  0  0  0  0  0  0
   -2.9360  -12.5230    0.0000 C   0  0  0  0  0  0  0  0  0  0  0  0
   -2.9546  -13.3452    0.0000 C   0  0  0  0  0  0  0  0  0  0  0  0
   -3.6759  -13.7403    0.0000 C   0  0  0  0  0  0  0  0  0  0  0  0
   -3.6944  -14.5625    0.0000 C   0  0  0  0  0  0  0  0  0  0  0  0
   -4.3787  -13.3131    0.0000 C   0  0  0  0  0  0  0  0  0  0  0  0
  1  5  1  0
  4  2  1  0
  2  3  2  0
  8 13  1  0
  9 10  1  0
 10 11  1  0
 11 12  1  0
 12 13  2  0
  4  7  2  0
 11 14  2  0
  5  6  2  0
  6 15  1  0
  6  9  1  0
 15 16  1  0
  8  7  1  0
 16 17  1  0
  8  9  2  0
 17 18  2  3
  3  1  1  0
 18 19  1  0
  4  5  1  0
 18 20  1  0
M  END
>  <Classification>  (118) 
0

>  <pchembl>  (118) 
4.55

>  <InChI_steorem>  (118) 
InChI=1S/C16H14O4/c1-10(2)5-7-19-16-14-12(6-8-18-14)9-11-3-4-13(17)20-15(11)16/h3-6,8-9H,7H2,1-2H3

>  <source>  (118) 
ChEMBL25

>  <source_id>  (118) 
25

>  <optional_reference>  (118) 
10.1039/C4MD00196F

>  <optional_origin>  (118) 
None

>  <target>  (118) 
MDR1

$$$$

     RDKit          2D

 57 60  0  0  0  0  0  0  0  0999 V2000
    8.4799   -6.6165    0.0000 C   0  0  0  0  0  0  0  0  0  0  0  0
    8.4786   -7.4439    0.0000 C   0  0  0  0  0  0  0  0  0  0  0  0
    9.1914   -7.8567    0.0000 C   0  0  0  0  0  0  0  0  0  0  0  0
    9.1894   -6.2039    0.0000 C   0  0  0  0  0  0  0  0  0  0  0  0
    9.9073   -6.6125    0.0000 C   0  0  0  0  0  0  0  0  0  0  0  0
    9.9064   -7.4459    0.0000 C   0  0  0  0  0  0  0  0  0  0  0  0
   10.6238   -7.8611    0.0000 C   0  0  0  0  0  0  0  0  0  0  0  0
   11.3466   -7.4475    0.0000 C   0  0  0  0  0  0  0  0  0  0  0  0
   11.3475   -6.6140    0.0000 C   0  0  0  0  0  0  0  0  0  0  0  0
   10.6255   -6.1943    0.0000 O   0  0  0  0  0  0  0  0  0  0  0  0
    7.7652   -6.2047    0.0000 O   0  0  0  0  0  0  0  0  0  0  0  0
    9.1899   -8.6815    0.0000 O   0  0  0  0  0  0  0  0  0  0  0  0
   12.0626   -6.2032    0.0000 C   0  0  0  0  0  0  0  0  0  0  0  0
   12.0599   -7.8617    0.0000 O   0  0  0  0  0  0  0  0  0  0  0  0
   12.0578   -8.6864    0.0000 C   0  0  0  0  0  0  0  0  0  0  0  0
   12.7711   -9.1006    0.0000 C   0  0  0  0  0  0  0  0  0  0  0  0
   11.3425   -9.0971    0.0000 O   0  0  0  0  0  0  0  0  0  0  0  0
   12.7716   -6.6204    0.0000 C   0  0  0  0  0  0  0  0  0  0  0  0
   13.4862   -6.2102    0.0000 C   0  0  0  0  0  0  0  0  0  0  0  0
   13.4884   -5.3846    0.0000 C   0  0  0  0  0  0  0  0  0  0  0  0
   12.7700   -4.9708    0.0000 C   0  0  0  0  0  0  0  0  0  0  0  0
   12.0582   -5.3834    0.0000 C   0  0  0  0  0  0  0  0  0  0  0  0
   12.7688   -4.1460    0.0000 O   0  0  0  0  0  0  0  0  0  0  0  0
   14.2030   -4.9727    0.0000 O   0  0  0  0  0  0  0  0  0  0  0  0
   14.1995   -6.6245    0.0000 O   0  0  0  0  0  0  0  0  0  0  0  0
   12.7656   -9.9259    0.0000 C   0  0  0  0  0  0  0  0  0  0  0  0
   13.4779  -10.3399    0.0000 C   0  0  0  0  0  0  0  0  0  0  0  0
   14.1942   -9.9293    0.0000 C   0  0  0  0  0  0  0  0  0  0  0  0
   14.1936   -9.1003    0.0000 C   0  0  0  0  0  0  0  0  0  0  0  0
   13.4806   -8.6900    0.0000 C   0  0  0  0  0  0  0  0  0  0  0  0
   14.9075   -8.6871    0.0000 O   0  0  0  0  0  0  0  0  0  0  0  0
   14.9080  -10.3426    0.0000 O   0  0  0  0  0  0  0  0  0  0  0  0
   13.4755  -11.1647    0.0000 O   0  0  0  0  0  0  0  0  0  0  0  0
    7.7646   -5.3800    0.0000 C   0  0  0  0  0  0  0  0  0  0  0  0
    8.4749   -9.0926    0.0000 C   0  0  0  0  0  0  0  0  0  0  0  0
   12.0539   -3.7347    0.0000 C   0  0  0  0  0  0  0  0  0  0  0  0
   14.2036   -4.1480    0.0000 C   0  0  0  0  0  0  0  0  0  0  0  0
   14.9148   -6.2139    0.0000 C   0  0  0  0  0  0  0  0  0  0  0  0
   15.6221   -9.0988    0.0000 C   0  0  0  0  0  0  0  0  0  0  0  0
   14.9071  -11.1674    0.0000 C   0  0  0  0  0  0  0  0  0  0  0  0
   12.7601  -11.5750    0.0000 C   0  0  0  0  0  0  0  0  0  0  0  0
    8.4767   -4.9666    0.0000 O   0  0  0  0  0  0  0  0  0  0  0  0
    7.0481   -4.9678    0.0000 C   0  0  0  0  0  0  0  0  0  0  0  0
    7.7613   -8.6812    0.0000 O   0  0  0  0  0  0  0  0  0  0  0  0
    8.4733   -9.9195    0.0000 C   0  0  0  0  0  0  0  0  0  0  0  0
   12.0515   -2.9117    0.0000 O   0  0  0  0  0  0  0  0  0  0  0  0
   11.3390   -4.1498    0.0000 C   0  0  0  0  0  0  0  0  0  0  0  0
   14.9156   -3.7352    0.0000 O   0  0  0  0  0  0  0  0  0  0  0  0
   13.4870   -3.7341    0.0000 C   0  0  0  0  0  0  0  0  0  0  0  0
   15.6283   -6.6279    0.0000 O   0  0  0  0  0  0  0  0  0  0  0  0
   14.9172   -5.3889    0.0000 C   0  0  0  0  0  0  0  0  0  0  0  0
   15.6258   -9.9236    0.0000 O   0  0  0  0  0  0  0  0  0  0  0  0
   16.3387   -8.6857    0.0000 C   0  0  0  0  0  0  0  0  0  0  0  0
   14.1934  -11.5794    0.0000 O   0  0  0  0  0  0  0  0  0  0  0  0
   15.6220  -11.5811    0.0000 C   0  0  0  0  0  0  0  0  0  0  0  0
   12.0478  -11.1630    0.0000 O   0  0  0  0  0  0  0  0  0  0  0  0
   12.7584  -12.4022    0.0000 C   0  0  0  0  0  0  0  0  0  0  0  0
  9 13  1  0
 27 28  2  0
  3  6  2  0
 28 29  1  0
  8 14  1  0
 29 30  2  0
 30 16  1  0
  1  2  2  0
 29 31  1  0
 14 15  1  0
 28 32  1  0
  5  4  2  0
 27 33  1  0
 15 16  1  0
 11 34  1  0
  4  1  1  0
 12 35  1  0
 15 17  2  0
 23 36  1  0
  5 10  1  0
 24 37  1  0
 13 18  2  0
 25 38  1  0
  6  7  1  0
 31 39  1  0
 18 19  1  0
 32 40  1  0
  7  8  1  0
 33 41  1  0
 19 20  2  0
  8  9  1  0
 34 42  2  0
 34 43  1  0
 20 21  1  0
  9 10  1  0
 35 44  2  0
 35 45  1  0
 21 22  2  0
 22 13  1  0
 36 46  2  0
 36 47  1  0
  5  6  1  0
 21 23  1  0
 37 48  2  0
 37 49  1  0
  1 11  1  0
 20 24  1  0
 38 50  2  0
 38 51  1  0
 19 25  1  0
 39 52  2  0
 39 53  1  0
  3 12  1  0
 16 26  2  0
 40 54  2  0
 40 55  1  0
  2  3  1  0
 26 27  1  0
 41 56  2  0
 41 57  1  0
M  END
>  <Classification>  (119) 
1

>  <pchembl>  (119) 
6.75

>  <InChI_steorem>  (119) 
InChI=1S/C38H34O19/c1-16(39)48-26-13-28(49-17(2)40)27-15-34(57-38(47)25-11-32(52-20(5)43)37(55-23(8)46)33(12-25)53-21(6)44)35(56-29(27)14-26)24-9-30(50-18(3)41)36(54-22(7)45)31(10-24)51-19(4)42/h9-14,34-35H,15H2,1-8H3

>  <source>  (119) 
ChEMBL25

>  <source_id>  (119) 
25

>  <optional_reference>  (119) 
10.1021/acs.jmedchem.5b00085

>  <optional_origin>  (119) 
None

>  <target>  (119) 
MDR1

$$$$

     RDKit          2D

 24 24  0  0  0  0  0  0  0  0999 V2000
   -3.2151    1.2375    0.0000 N   0  0  0  0  0  0  0  0  0  0  0  0
   -3.9296    0.8250    0.0000 C   0  0  0  0  0  0  0  0  0  0  0  0
   -4.6441    1.2375    0.0000 O   0  0  0  0  0  0  0  0  0  0  0  0
   -3.9296    0.0000    0.0000 N   0  0  0  0  0  0  0  0  0  0  0  0
   -4.6441   -1.2375    0.0000 C   0  0  0  0  0  0  0  0  0  0  0  0
   -4.6441   -0.4125    0.0000 C   0  0  0  0  0  0  0  0  0  0  0  0
   -5.3585    0.0000    0.0000 C   0  0  0  0  0  0  0  0  0  0  0  0
   -2.5006    0.8250    0.0000 C   0  0  0  0  0  0  0  0  0  0  0  0
   -1.7862    1.2375    0.0000 C   0  0  0  0  0  0  0  0  0  0  0  0
   -1.0717    0.8250    0.0000 C   0  0  0  0  0  0  0  0  0  0  0  0
   -0.3572    1.2375    0.0000 C   0  0  0  0  0  0  0  0  0  0  0  0
    0.3572    0.8250    0.0000 C   0  0  0  0  0  0  0  0  0  0  0  0
    0.3572    0.0000    0.0000 C   0  0  0  0  0  0  0  0  0  0  0  0
   -0.3572   -0.4125    0.0000 C   0  0  0  0  0  0  0  0  0  0  0  0
   -1.0717    0.0000    0.0000 C   0  0  0  0  0  0  0  0  0  0  0  0
    1.0717   -0.4125    0.0000 O   0  0  0  0  0  0  0  0  0  0  0  0
    1.7862    0.0000    0.0000 C   0  0  0  0  0  0  0  0  0  0  0  0
    2.5006   -0.4125    0.0000 C   0  0  0  0  0  0  0  0  0  0  0  0
    3.2151    0.0000    0.0000 C   0  0  0  0  0  0  0  0  0  0  0  0
    3.9296   -0.4125    0.0000 N   0  0  0  0  0  0  0  0  0  0  0  0
    4.6441    0.8250    0.0000 C   0  0  0  0  0  0  0  0  0  0  0  0
    4.6441    0.0000    0.0000 C   0  0  0  0  0  0  0  0  0  0  0  0
    5.3585   -0.4125    0.0000 C   0  0  0  0  0  0  0  0  0  0  0  0
    2.5006   -1.2375    0.0000 O   0  0  0  0  0  0  0  0  0  0  0  0
  1  2  1  0
  2  3  2  0
  2  4  1  0
  5  6  1  0
  6  7  1  0
  4  6  1  0
  8  9  1  0
 10 11  2  0
 11 12  1  0
 12 13  2  0
 13 14  1  0
 14 15  2  0
 10 15  1  0
 17 18  1  0
 18 19  1  0
 16 17  1  0
 21 22  1  0
 22 23  1  0
 20 22  1  0
 19 20  1  0
 18 24  1  0
 13 16  1  0
  9 10  1  0
  1  8  1  0
M  END
>  <Classification>  (120) 
1

>  <pchembl>  (120) 
5.26

>  <InChI_steorem>  (120) 
InChI=1S/C18H31N3O3/c1-13(2)20-11-16(22)12-24-17-7-5-15(6-8-17)9-10-19-18(23)21-14(3)4/h5-8,13-14,16,20,22H,9-12H2,1-4H3,(H2,19,21,23)

>  <source>  (120) 
ChEMBL25

>  <source_id>  (120) 
25

>  <optional_reference>  (120) 
10.1021/jm020941h

>  <optional_origin>  (120) 
None

>  <target>  (120) 
MDR1

$$$$

     RDKit          2D

 25 26  0  0  0  0  0  0  0  0999 V2000
   16.3412  -22.7134    0.0000 C   0  0  0  0  0  0  0  0  0  0  0  0
   15.6332  -21.4814    0.0000 C   0  0  0  0  0  0  0  0  0  0  0  0
   15.6332  -22.3028    0.0000 C   0  0  0  0  0  0  0  0  0  0  0  0
   17.0540  -22.3028    0.0000 C   0  0  0  0  0  0  0  0  0  0  0  0
   16.3412  -21.0660    0.0000 C   0  0  0  0  0  0  0  0  0  0  0  0
   17.0540  -21.4814    0.0000 N   0  0  0  0  0  0  0  0  0  0  0  0
   14.4649  -22.9204    0.0000 C   0  0  0  0  0  0  0  0  0  0  0  0
   14.9110  -21.0660    0.0000 C   0  0  0  0  0  0  0  0  0  0  0  0
   16.3412  -23.5441    0.0000 C   0  0  0  0  0  0  0  0  0  0  0  0
   14.4296  -23.7400    0.0000 C   0  0  0  0  0  0  0  0  0  0  0  0
   13.7012  -24.1257    0.0000 C   0  0  0  0  0  0  0  0  0  0  0  0
   14.9110  -20.2401    0.0000 O   0  0  0  0  0  0  0  0  0  0  0  0
   15.6332  -23.9501    0.0000 O   0  0  0  0  0  0  0  0  0  0  0  0
   15.2240  -24.4600    0.0000 Cl  0  0  0  0  0  0  0  0  0  0  0  0
   14.1982  -21.4814    0.0000 O   0  0  0  0  0  0  0  0  0  0  0  0
   17.0540  -23.9501    0.0000 O   0  0  0  0  0  0  0  0  0  0  0  0
   13.7617  -22.4833    0.0000 C   0  0  0  0  0  0  0  0  0  0  0  0
   17.7714  -22.7134    0.0000 C   0  0  0  0  0  0  0  0  0  0  0  0
   16.3412  -20.2401    0.0000 C   0  0  0  0  0  0  0  0  0  0  0  0
   13.6719  -24.9540    0.0000 Cl  0  0  0  0  0  0  0  0  0  0  0  0
   13.0321  -22.8598    0.0000 C   0  0  0  0  0  0  0  0  0  0  0  0
   13.0027  -23.6880    0.0000 C   0  0  0  0  0  0  0  0  0  0  0  0
   17.0540  -24.7761    0.0000 C   0  0  0  0  0  0  0  0  0  0  0  0
   16.3412  -25.1915    0.0000 C   0  0  0  0  0  0  0  0  0  0  0  0
   13.4607  -21.0596    0.0000 C   0  0  0  0  0  0  0  0  0  0  0  0
  2  3  1  0
  3  1  1  0
  4  1  2  0
  5  2  2  0
  6  4  1  0
  7  3  1  0
  8  2  1  0
  9  1  1  0
 10  7  2  0
 11 10  1  0
 12  8  2  0
 13  9  2  0
 14 10  1  0
 15  8  1  0
 16  9  1  0
 17  7  1  0
 18  4  1  0
 19  5  1  0
 20 11  1  0
 21 17  2  0
 22 21  1  0
 23 16  1  0
 24 23  1  0
  6  5  1  0
 22 11  2  0
 15 25  1  0
M  END
>  <Classification>  (121) 
0

>  <pchembl>  (121) 
4.49

>  <InChI_steorem>  (121) 
InChI=1S/C18H19Cl2NO4/c1-5-25-18(23)14-10(3)21-9(2)13(17(22)24-4)15(14)11-7-6-8-12(19)16(11)20/h6-8,15,21H,5H2,1-4H3

>  <source>  (121) 
ChEMBL25

>  <source_id>  (121) 
25

>  <optional_reference>  (121) 
10.1006/bbrc.2001.6000

>  <optional_origin>  (121) 
None

>  <target>  (121) 
MDR1

$$$$

     RDKit          2D

 25 27  0  0  0  0  0  0  0  0999 V2000
   -4.4278  -17.0600    0.0000 C   0  0  0  0  0  0  0  0  0  0  0  0
   -4.4290  -17.8869    0.0000 C   0  0  0  0  0  0  0  0  0  0  0  0
   -3.7146  -18.2994    0.0000 C   0  0  0  0  0  0  0  0  0  0  0  0
   -3.7164  -16.6475    0.0000 C   0  0  0  0  0  0  0  0  0  0  0  0
   -3.0015  -17.0564    0.0000 C   0  0  0  0  0  0  0  0  0  0  0  0
   -3.0027  -17.8889    0.0000 C   0  0  0  0  0  0  0  0  0  0  0  0
   -2.2863  -18.3039    0.0000 C   0  0  0  0  0  0  0  0  0  0  0  0
   -1.5640  -17.8910    0.0000 C   0  0  0  0  0  0  0  0  0  0  0  0
   -1.5628  -17.0584    0.0000 C   0  0  0  0  0  0  0  0  0  0  0  0
   -2.2839  -16.6389    0.0000 O   0  0  0  0  0  0  0  0  0  0  0  0
   -0.8512  -18.3052    0.0000 O   0  0  0  0  0  0  0  0  0  0  0  0
   -0.8535  -19.1297    0.0000 C   0  0  0  0  0  0  0  0  0  0  0  0
   -2.2886  -19.1284    0.0000 O   0  0  0  0  0  0  0  0  0  0  0  0
   -0.8478  -16.6480    0.0000 C   0  0  0  0  0  0  0  0  0  0  0  0
   -0.1362  -17.0662    0.0000 C   0  0  0  0  0  0  0  0  0  0  0  0
    0.5783  -16.6565    0.0000 C   0  0  0  0  0  0  0  0  0  0  0  0
    0.5808  -15.8311    0.0000 C   0  0  0  0  0  0  0  0  0  0  0  0
   -0.1372  -15.4173    0.0000 C   0  0  0  0  0  0  0  0  0  0  0  0
   -0.8489  -15.8295    0.0000 C   0  0  0  0  0  0  0  0  0  0  0  0
    1.2912  -17.0708    0.0000 O   0  0  0  0  0  0  0  0  0  0  0  0
    1.2953  -15.4197    0.0000 O   0  0  0  0  0  0  0  0  0  0  0  0
    2.0088  -15.8327    0.0000 C   0  0  0  0  0  0  0  0  0  0  0  0
   -3.7149  -19.1239    0.0000 O   0  0  0  0  0  0  0  0  0  0  0  0
   -5.1419  -16.6480    0.0000 O   0  0  0  0  0  0  0  0  0  0  0  0
   -5.1421  -15.8235    0.0000 C   0  0  0  0  0  0  0  0  0  0  0  0
 11 12  1  0
  2  3  1  0
  7 13  2  0
  3  6  2  0
  9 14  1  0
  1  2  2  0
 14 15  2  0
  5  4  2  0
 15 16  1  0
  4  1  1  0
 16 17  2  0
  5 10  1  0
 17 18  1  0
  6  7  1  0
 18 19  2  0
 19 14  1  0
  7  8  1  0
 16 20  1  0
  8  9  2  0
 17 21  1  0
  9 10  1  0
 21 22  1  0
  5  6  1  0
  3 23  1  0
  8 11  1  0
  1 24  1  0
 24 25  1  0
M  END
>  <Classification>  (122) 
0

>  <pchembl>  (122) 
4.89

>  <InChI_steorem>  (122) 
InChI=1S/C18H16O7/c1-22-10-7-12(20)15-14(8-10)25-17(18(24-3)16(15)21)9-4-5-13(23-2)11(19)6-9/h4-8,19-20H,1-3H3

>  <source>  (122) 
ChEMBL25

>  <source_id>  (122) 
25

>  <optional_reference>  (122) 
10.1016/j.bmc.2010.12.043

>  <optional_origin>  (122) 
None

>  <target>  (122) 
MDR1

$$$$

     RDKit          2D

 28 29  0  0  0  0  0  0  0  0999 V2000
   10.7296   -3.3366    0.0000 C   0  0  0  0  0  0  0  0  0  0  0  0
   10.7296   -4.1662    0.0000 N   0  0  0  0  0  0  0  0  0  0  0  0
   11.4441   -4.5787    0.0000 C   0  0  0  0  0  0  0  0  0  0  0  0
   12.1631   -4.1662    0.0000 C   0  0  0  0  0  0  0  0  0  0  0  0
   12.1631   -3.3366    0.0000 C   0  0  0  0  0  0  0  0  0  0  0  0
   11.4441   -2.9196    0.0000 C   0  0  0  0  0  0  0  0  0  0  0  0
   10.0141   -2.9259    0.0000 C   0  0  0  0  0  0  0  0  0  0  0  0
   11.4428   -2.0946    0.0000 C   0  0  0  0  0  0  0  0  0  0  0  0
   12.1567   -1.6811    0.0000 O   0  0  0  0  0  0  0  0  0  0  0  0
   10.7278   -1.6831    0.0000 O   0  0  0  0  0  0  0  0  0  0  0  0
   10.7267   -0.8581    0.0000 C   0  0  0  0  0  0  0  0  0  0  0  0
   10.0116   -0.4466    0.0000 C   0  0  0  0  0  0  0  0  0  0  0  0
   11.4406   -0.4446    0.0000 C   0  0  0  0  0  0  0  0  0  0  0  0
   11.4475   -5.4009    0.0000 C   0  0  0  0  0  0  0  0  0  0  0  0
   11.4464   -6.2259    0.0000 N   0  0  0  0  0  0  0  0  0  0  0  0
   12.8780   -2.9249    0.0000 C   0  0  0  0  0  0  0  0  0  0  0  0
   13.5916   -3.3398    0.0000 C   0  0  0  0  0  0  0  0  0  0  0  0
   14.3059   -2.9287    0.0000 C   0  0  0  0  0  0  0  0  0  0  0  0
   14.3072   -2.1029    0.0000 C   0  0  0  0  0  0  0  0  0  0  0  0
   13.5882   -1.6898    0.0000 C   0  0  0  0  0  0  0  0  0  0  0  0
   12.8767   -2.1032    0.0000 C   0  0  0  0  0  0  0  0  0  0  0  0
   15.0205   -3.3430    0.0000 N   0  0  0  0  0  0  0  0  0  0  0  0
   15.7356   -2.9316    0.0000 O   0  0  0  0  0  0  0  0  0  0  0  0
   15.0193   -4.1680    0.0000 O   0  0  0  0  0  0  0  0  0  0  0  0
   12.8770   -4.5797    0.0000 C   0  0  0  0  0  0  0  0  0  0  0  0
   12.8758   -5.4047    0.0000 O   0  0  0  0  0  0  0  0  0  0  0  0
   13.5920   -4.1682    0.0000 O   0  0  0  0  0  0  0  0  0  0  0  0
   13.5897   -5.8182    0.0000 C   0  0  0  0  0  0  0  0  0  0  0  0
  1  7  1  0
 14 15  3  0
  3 14  1  0
  1  2  1  0
  5 16  1  0
  6  8  1  0
 16 17  2  0
  1  6  2  0
 17 18  1  0
  8  9  2  0
 18 19  2  0
  2  3  1  0
 19 20  1  0
  8 10  1  0
 20 21  2  0
 21 16  1  0
  3  4  2  0
 10 11  1  0
  4  5  1  0
 22 23  2  0
 22 24  1  0
 18 22  1  0
 11 12  1  0
  4 25  1  0
  5  6  1  0
 25 26  1  0
 11 13  1  0
 25 27  2  0
 26 28  1  0
M  CHG  2  22   1  24  -1
M  END
>  <Classification>  (123) 
0

>  <pchembl>  (123) 
4.75

>  <InChI_steorem>  (123) 
InChI=1S/C19H19N3O6/c1-10(2)28-19(24)15-11(3)21-14(9-20)17(18(23)27-4)16(15)12-6-5-7-13(8-12)22(25)26/h5-8,10,16,21H,1-4H3

>  <source>  (123) 
ChEMBL25

>  <source_id>  (123) 
25

>  <optional_reference>  (123) 
10.1016/s0928-0987(02)00082-9

>  <optional_origin>  (123) 
None

>  <target>  (123) 
MDR1

$$$$

     RDKit          2D

 28 31  0  0  0  0  0  0  0  0999 V2000
   -5.5757  -12.8400    0.0000 C   0  0  0  0  0  0  0  0  0  0  0  0
   -5.5769  -13.6673    0.0000 C   0  0  0  0  0  0  0  0  0  0  0  0
   -4.8622  -14.0802    0.0000 C   0  0  0  0  0  0  0  0  0  0  0  0
   -4.8640  -12.4274    0.0000 C   0  0  0  0  0  0  0  0  0  0  0  0
   -4.1487  -12.8364    0.0000 C   0  0  0  0  0  0  0  0  0  0  0  0
   -4.1453  -13.6694    0.0000 C   0  0  0  0  0  0  0  0  0  0  0  0
   -3.4262  -14.0807    0.0000 C   0  0  0  0  0  0  0  0  0  0  0  0
   -2.7059  -13.6635    0.0000 N   0  0  0  0  0  0  0  0  0  0  0  0
   -2.7093  -12.8305    0.0000 C   0  0  0  0  0  0  0  0  0  0  0  0
   -3.4330  -12.4147    0.0000 C   0  0  0  0  0  0  0  0  0  0  0  0
   -1.9904  -14.0740    0.0000 C   0  0  0  0  0  0  0  0  0  0  0  0
   -1.2771  -13.6596    0.0000 C   0  0  0  0  0  0  0  0  0  0  0  0
   -0.5616  -14.0701    0.0000 C   0  0  0  0  0  0  0  0  0  0  0  0
   -0.5629  -14.8951    0.0000 C   0  0  0  0  0  0  0  0  0  0  0  0
    0.1517  -15.3055    0.0000 C   0  0  0  0  0  0  0  0  0  0  0  0
    0.8660  -14.8911    0.0000 C   0  0  0  0  0  0  0  0  0  0  0  0
    0.8610  -14.0619    0.0000 C   0  0  0  0  0  0  0  0  0  0  0  0
    0.1458  -13.6552    0.0000 C   0  0  0  0  0  0  0  0  0  0  0  0
    1.5820  -15.3006    0.0000 N   0  0  0  0  0  0  0  0  0  0  0  0
    2.2947  -14.8853    0.0000 C   0  0  0  0  0  0  0  0  0  0  0  0
    3.0107  -15.2948    0.0000 C   0  0  0  0  0  0  0  0  0  0  0  0
    2.2913  -14.0604    0.0000 O   0  0  0  0  0  0  0  0  0  0  0  0
    3.0127  -16.1199    0.0000 C   0  0  0  0  0  0  0  0  0  0  0  0
    3.7279  -16.5294    0.0000 C   0  0  0  0  0  0  0  0  0  0  0  0
    4.4416  -16.1140    0.0000 C   0  0  0  0  0  0  0  0  0  0  0  0
    4.4356  -15.2848    0.0000 C   0  0  0  0  0  0  0  0  0  0  0  0
    3.7198  -14.8791    0.0000 C   0  0  0  0  0  0  0  0  0  0  0  0
    5.1582  -16.5226    0.0000 N   0  0  0  0  0  0  0  0  0  0  0  0
  3  6  2  0
 13 14  2  0
  1  2  2  0
 14 15  1  0
  5  4  2  0
 15 16  2  0
  4  1  1  0
 16 17  1  0
  5 10  1  0
 17 18  2  0
 18 13  1  0
  6  7  1  0
 16 19  1  0
  7  8  1  0
 19 20  1  0
  8  9  1  0
 20 21  1  0
  9 10  1  0
 20 22  2  0
  5  6  1  0
 21 23  2  0
  8 11  1  0
 23 24  1  0
 24 25  2  0
 11 12  1  0
 25 26  1  0
  2  3  1  0
 26 27  2  0
 27 21  1  0
 12 13  1  0
 25 28  1  0
M  END
>  <Classification>  (124) 
1

>  <pchembl>  (124) 
5.38

>  <InChI_steorem>  (124) 
InChI=1S/C24H25N3O/c25-22-9-7-20(8-10-22)24(28)26-23-11-5-18(6-12-23)13-15-27-16-14-19-3-1-2-4-21(19)17-27/h1-12H,13-17,25H2,(H,26,28)

>  <source>  (124) 
ChEMBL25

>  <source_id>  (124) 
25

>  <optional_reference>  (124) 
10.1016/j.bmc.2007.11.057

>  <optional_origin>  (124) 
None

>  <target>  (124) 
MDR1

$$$$

     RDKit          2D

 30 33  0  0  0  0  0  0  0  0999 V2000
   -5.3216   -9.4946    0.0000 C   0  0  0  0  0  0  0  0  0  0  0  0
   -5.3227  -10.3219    0.0000 C   0  0  0  0  0  0  0  0  0  0  0  0
   -4.6080  -10.7347    0.0000 C   0  0  0  0  0  0  0  0  0  0  0  0
   -4.6098   -9.0819    0.0000 C   0  0  0  0  0  0  0  0  0  0  0  0
   -3.8945   -9.4910    0.0000 C   0  0  0  0  0  0  0  0  0  0  0  0
   -3.8911  -10.3239    0.0000 C   0  0  0  0  0  0  0  0  0  0  0  0
   -3.1720  -10.7352    0.0000 C   0  0  0  0  0  0  0  0  0  0  0  0
   -2.4517  -10.3180    0.0000 N   0  0  0  0  0  0  0  0  0  0  0  0
   -2.4552   -9.4851    0.0000 C   0  0  0  0  0  0  0  0  0  0  0  0
   -3.1789   -9.0693    0.0000 C   0  0  0  0  0  0  0  0  0  0  0  0
   -1.7362  -10.7286    0.0000 C   0  0  0  0  0  0  0  0  0  0  0  0
   -1.0230  -10.3141    0.0000 C   0  0  0  0  0  0  0  0  0  0  0  0
   -0.3075  -10.7247    0.0000 C   0  0  0  0  0  0  0  0  0  0  0  0
   -0.3089  -11.5497    0.0000 C   0  0  0  0  0  0  0  0  0  0  0  0
    0.4059  -11.9601    0.0000 C   0  0  0  0  0  0  0  0  0  0  0  0
    1.1201  -11.5457    0.0000 C   0  0  0  0  0  0  0  0  0  0  0  0
    1.1152  -10.7165    0.0000 C   0  0  0  0  0  0  0  0  0  0  0  0
    0.4000  -10.3098    0.0000 C   0  0  0  0  0  0  0  0  0  0  0  0
    1.8362  -11.9552    0.0000 N   0  0  0  0  0  0  0  0  0  0  0  0
    2.5488  -11.5399    0.0000 C   0  0  0  0  0  0  0  0  0  0  0  0
    3.2649  -11.9494    0.0000 C   0  0  0  0  0  0  0  0  0  0  0  0
    2.5455  -10.7150    0.0000 O   0  0  0  0  0  0  0  0  0  0  0  0
    3.2668  -12.7745    0.0000 C   0  0  0  0  0  0  0  0  0  0  0  0
    3.9820  -13.1840    0.0000 C   0  0  0  0  0  0  0  0  0  0  0  0
    4.6957  -12.7686    0.0000 C   0  0  0  0  0  0  0  0  0  0  0  0
    4.6897  -11.9394    0.0000 C   0  0  0  0  0  0  0  0  0  0  0  0
    3.9739  -11.5337    0.0000 C   0  0  0  0  0  0  0  0  0  0  0  0
    5.4149  -13.1805    0.0000 N   0  0  0  0  0  0  0  0  0  0  0  0
    6.1270  -12.7642    0.0000 O   0  0  0  0  0  0  0  0  0  0  0  0
    5.4193  -14.0054    0.0000 O   0  0  0  0  0  0  0  0  0  0  0  0
  1  2  2  0
 14 15  2  0
  5  4  2  0
 15 16  1  0
  4  1  1  0
 16 17  2  0
  5 10  1  0
 17 18  1  0
 18 13  2  0
  6  7  1  0
 16 19  1  0
  7  8  1  0
 19 20  1  0
  8  9  1  0
 20 21  1  0
  9 10  1  0
 20 22  2  0
  5  6  1  0
 21 23  2  0
  8 11  1  0
 23 24  1  0
 24 25  2  0
 11 12  1  0
 25 26  1  0
  2  3  1  0
 26 27  2  0
 27 21  1  0
 12 13  1  0
  3  6  2  0
 13 14  1  0
 28 29  2  0
 28 30  1  0
 25 28  1  0
M  CHG  2  28   1  30  -1
M  END
>  <Classification>  (125) 
1

>  <pchembl>  (125) 
5.3

>  <InChI_steorem>  (125) 
InChI=1S/C24H23N3O3/c28-24(20-7-11-23(12-8-20)27(29)30)25-22-9-5-18(6-10-22)13-15-26-16-14-19-3-1-2-4-21(19)17-26/h1-12H,13-17H2,(H,25,28)

>  <source>  (125) 
ChEMBL25

>  <source_id>  (125) 
25

>  <optional_reference>  (125) 
10.1016/j.bmc.2007.11.057

>  <optional_origin>  (125) 
None

>  <target>  (125) 
MDR1

$$$$

     RDKit          2D

 31 34  0  0  0  0  0  0  0  0999 V2000
    7.1770   -3.9454    0.0000 C   0  0  0  0  0  0  0  0  0  0  0  0
    7.1759   -4.7727    0.0000 C   0  0  0  0  0  0  0  0  0  0  0  0
    7.8906   -5.1855    0.0000 C   0  0  0  0  0  0  0  0  0  0  0  0
    7.8888   -3.5326    0.0000 C   0  0  0  0  0  0  0  0  0  0  0  0
    8.6041   -3.9418    0.0000 C   0  0  0  0  0  0  0  0  0  0  0  0
    8.6075   -4.7747    0.0000 C   0  0  0  0  0  0  0  0  0  0  0  0
    9.3267   -5.1860    0.0000 C   0  0  0  0  0  0  0  0  0  0  0  0
   10.0470   -4.7688    0.0000 N   0  0  0  0  0  0  0  0  0  0  0  0
   10.0435   -3.9359    0.0000 C   0  0  0  0  0  0  0  0  0  0  0  0
    9.3198   -3.5200    0.0000 C   0  0  0  0  0  0  0  0  0  0  0  0
   10.7625   -5.1794    0.0000 C   0  0  0  0  0  0  0  0  0  0  0  0
   11.4757   -4.7649    0.0000 C   0  0  0  0  0  0  0  0  0  0  0  0
   12.1913   -5.1755    0.0000 C   0  0  0  0  0  0  0  0  0  0  0  0
   12.1899   -6.0005    0.0000 C   0  0  0  0  0  0  0  0  0  0  0  0
   12.9046   -6.4110    0.0000 C   0  0  0  0  0  0  0  0  0  0  0  0
   13.6188   -5.9965    0.0000 C   0  0  0  0  0  0  0  0  0  0  0  0
   13.6139   -5.1673    0.0000 C   0  0  0  0  0  0  0  0  0  0  0  0
   12.8987   -4.7606    0.0000 C   0  0  0  0  0  0  0  0  0  0  0  0
   14.3350   -6.4061    0.0000 N   0  0  0  0  0  0  0  0  0  0  0  0
   15.0476   -5.9907    0.0000 C   0  0  0  0  0  0  0  0  0  0  0  0
   15.7637   -6.4003    0.0000 C   0  0  0  0  0  0  0  0  0  0  0  0
   15.0443   -5.1658    0.0000 O   0  0  0  0  0  0  0  0  0  0  0  0
   15.7656   -7.2254    0.0000 C   0  0  0  0  0  0  0  0  0  0  0  0
   16.4808   -7.6348    0.0000 N   0  0  0  0  0  0  0  0  0  0  0  0
   16.4727   -5.9845    0.0000 C   0  0  0  0  0  0  0  0  0  0  0  0
   17.1886   -6.3903    0.0000 C   0  0  0  0  0  0  0  0  0  0  0  0
   17.1915   -7.2183    0.0000 C   0  0  0  0  0  0  0  0  0  0  0  0
    6.4625   -3.5331    0.0000 O   0  0  0  0  0  0  0  0  0  0  0  0
    6.4623   -2.7082    0.0000 C   0  0  0  0  0  0  0  0  0  0  0  0
    6.4611   -5.1846    0.0000 O   0  0  0  0  0  0  0  0  0  0  0  0
    5.7470   -4.7715    0.0000 C   0  0  0  0  0  0  0  0  0  0  0  0
 14 15  2  0
  5  4  1  0
 15 16  1  0
  4  1  2  0
 16 17  2  0
  5 10  1  0
 17 18  1  0
 18 13  2  0
  6  7  1  0
 16 19  1  0
  7  8  1  0
 19 20  1  0
  8  9  1  0
 20 21  1  0
  9 10  1  0
 20 22  2  0
  5  6  2  0
 21 23  2  0
  8 11  1  0
 23 24  1  0
 24 27  2  0
 26 25  2  0
 25 21  1  0
 11 12  1  0
  2  3  2  0
 26 27  1  0
 12 13  1  0
  1 28  1  0
  3  6  1  0
 28 29  1  0
 13 14  1  0
  2 30  1  0
  1  2  1  0
 30 31  1  0
M  END
>  <Classification>  (126) 
1

>  <pchembl>  (126) 
5.5

>  <InChI_steorem>  (126) 
InChI=1S/C25H27N3O3/c1-30-23-14-19-10-13-28(17-21(19)15-24(23)31-2)12-9-18-5-7-22(8-6-18)27-25(29)20-4-3-11-26-16-20/h3-8,11,14-16H,9-10,12-13,17H2,1-2H3,(H,27,29)

>  <source>  (126) 
ChEMBL25

>  <source_id>  (126) 
25

>  <optional_reference>  (126) 
10.1016/j.bmc.2007.11.057

>  <optional_origin>  (126) 
None

>  <target>  (126) 
MDR1

$$$$

     RDKit          2D

 31 35  0  0  0  0  0  0  0  0999 V2000
   -5.6963  -16.4720    0.0000 C   0  0  0  0  0  0  0  0  0  0  0  0
   -5.6974  -17.2991    0.0000 C   0  0  0  0  0  0  0  0  0  0  0  0
   -4.9827  -17.7119    0.0000 C   0  0  0  0  0  0  0  0  0  0  0  0
   -4.9845  -16.0592    0.0000 C   0  0  0  0  0  0  0  0  0  0  0  0
   -4.2692  -16.4683    0.0000 C   0  0  0  0  0  0  0  0  0  0  0  0
   -4.2658  -17.3012    0.0000 C   0  0  0  0  0  0  0  0  0  0  0  0
   -3.5467  -17.7124    0.0000 C   0  0  0  0  0  0  0  0  0  0  0  0
   -2.8265  -17.2953    0.0000 N   0  0  0  0  0  0  0  0  0  0  0  0
   -2.8300  -16.4624    0.0000 C   0  0  0  0  0  0  0  0  0  0  0  0
   -3.5536  -16.0465    0.0000 C   0  0  0  0  0  0  0  0  0  0  0  0
   -2.1110  -17.7058    0.0000 C   0  0  0  0  0  0  0  0  0  0  0  0
   -1.3978  -17.2914    0.0000 C   0  0  0  0  0  0  0  0  0  0  0  0
   -0.6824  -17.7019    0.0000 C   0  0  0  0  0  0  0  0  0  0  0  0
   -0.6838  -18.5269    0.0000 C   0  0  0  0  0  0  0  0  0  0  0  0
    0.0309  -18.9372    0.0000 C   0  0  0  0  0  0  0  0  0  0  0  0
    0.7451  -18.5228    0.0000 C   0  0  0  0  0  0  0  0  0  0  0  0
    0.7402  -17.6937    0.0000 C   0  0  0  0  0  0  0  0  0  0  0  0
    0.0250  -17.2870    0.0000 C   0  0  0  0  0  0  0  0  0  0  0  0
    1.4611  -18.9323    0.0000 N   0  0  0  0  0  0  0  0  0  0  0  0
    2.1737  -18.5170    0.0000 C   0  0  0  0  0  0  0  0  0  0  0  0
    2.8898  -18.9265    0.0000 C   0  0  0  0  0  0  0  0  0  0  0  0
    2.1704  -17.6921    0.0000 O   0  0  0  0  0  0  0  0  0  0  0  0
    2.8917  -19.7516    0.0000 C   0  0  0  0  0  0  0  0  0  0  0  0
    3.6068  -20.1611    0.0000 N   0  0  0  0  0  0  0  0  0  0  0  0
    3.5987  -18.5109    0.0000 C   0  0  0  0  0  0  0  0  0  0  0  0
    4.3145  -18.9166    0.0000 C   0  0  0  0  0  0  0  0  0  0  0  0
    4.3174  -19.7446    0.0000 C   0  0  0  0  0  0  0  0  0  0  0  0
    5.0348  -20.1542    0.0000 C   0  0  0  0  0  0  0  0  0  0  0  0
    5.7497  -19.7370    0.0000 C   0  0  0  0  0  0  0  0  0  0  0  0
    5.7427  -18.9059    0.0000 C   0  0  0  0  0  0  0  0  0  0  0  0
    5.0248  -18.5000    0.0000 C   0  0  0  0  0  0  0  0  0  0  0  0
 14 15  2  0
  5  4  1  0
 15 16  1  0
  4  1  2  0
 16 17  2  0
  5 10  1  0
 17 18  1  0
 18 13  2  0
  6  7  1  0
 16 19  1  0
  7  8  1  0
 19 20  1  0
  8  9  1  0
 20 21  1  0
  9 10  1  0
 20 22  2  0
  5  6  2  0
 21 23  2  0
  8 11  1  0
 23 24  1  0
 24 27  2  0
 26 25  2  0
 25 21  1  0
 11 12  1  0
  2  3  2  0
 26 27  1  0
 12 13  1  0
 27 28  1  0
  3  6  1  0
 28 29  2  0
 13 14  1  0
 29 30  1  0
  1  2  1  0
 30 31  2  0
 31 26  1  0
M  END
>  <Classification>  (127) 
1

>  <pchembl>  (127) 
6.38

>  <InChI_steorem>  (127) 
InChI=1S/C27H25N3O/c31-27(24-17-22-6-3-4-8-26(22)28-18-24)29-25-11-9-20(10-12-25)13-15-30-16-14-21-5-1-2-7-23(21)19-30/h1-12,17-18H,13-16,19H2,(H,29,31)

>  <source>  (127) 
ChEMBL25

>  <source_id>  (127) 
25

>  <optional_reference>  (127) 
10.1016/j.bmc.2007.11.057

>  <optional_origin>  (127) 
None

>  <target>  (127) 
MDR1

$$$$

     RDKit          2D

 32 35  0  0  0  0  0  0  0  0999 V2000
    5.7398   -7.3536    0.0000 C   0  0  0  0  0  0  0  0  0  0  0  0
    5.7387   -8.1810    0.0000 C   0  0  0  0  0  0  0  0  0  0  0  0
    6.4535   -8.5938    0.0000 C   0  0  0  0  0  0  0  0  0  0  0  0
    6.4517   -6.9409    0.0000 C   0  0  0  0  0  0  0  0  0  0  0  0
    7.1670   -7.3500    0.0000 C   0  0  0  0  0  0  0  0  0  0  0  0
    7.1704   -8.1831    0.0000 C   0  0  0  0  0  0  0  0  0  0  0  0
    7.8896   -8.5943    0.0000 C   0  0  0  0  0  0  0  0  0  0  0  0
    8.6099   -8.1772    0.0000 N   0  0  0  0  0  0  0  0  0  0  0  0
    8.6064   -7.3441    0.0000 C   0  0  0  0  0  0  0  0  0  0  0  0
    7.8827   -6.9282    0.0000 C   0  0  0  0  0  0  0  0  0  0  0  0
    9.3255   -8.5876    0.0000 C   0  0  0  0  0  0  0  0  0  0  0  0
   10.0387   -8.1733    0.0000 C   0  0  0  0  0  0  0  0  0  0  0  0
   10.7543   -8.5837    0.0000 C   0  0  0  0  0  0  0  0  0  0  0  0
   10.7529   -9.4088    0.0000 C   0  0  0  0  0  0  0  0  0  0  0  0
   11.4676   -9.8193    0.0000 C   0  0  0  0  0  0  0  0  0  0  0  0
   12.1819   -9.4048    0.0000 C   0  0  0  0  0  0  0  0  0  0  0  0
   12.1770   -8.5755    0.0000 C   0  0  0  0  0  0  0  0  0  0  0  0
   11.4617   -8.1689    0.0000 C   0  0  0  0  0  0  0  0  0  0  0  0
   12.8981   -9.8144    0.0000 N   0  0  0  0  0  0  0  0  0  0  0  0
   13.6107   -9.3990    0.0000 C   0  0  0  0  0  0  0  0  0  0  0  0
   14.3269   -9.8086    0.0000 C   0  0  0  0  0  0  0  0  0  0  0  0
   13.6074   -8.5740    0.0000 O   0  0  0  0  0  0  0  0  0  0  0  0
   14.3288  -10.6337    0.0000 C   0  0  0  0  0  0  0  0  0  0  0  0
   15.0440  -11.0432    0.0000 C   0  0  0  0  0  0  0  0  0  0  0  0
   15.0359   -9.3928    0.0000 C   0  0  0  0  0  0  0  0  0  0  0  0
   15.7518   -9.7986    0.0000 C   0  0  0  0  0  0  0  0  0  0  0  0
   15.7547  -10.6266    0.0000 C   0  0  0  0  0  0  0  0  0  0  0  0
    5.0254   -6.9413    0.0000 O   0  0  0  0  0  0  0  0  0  0  0  0
    5.0252   -6.1164    0.0000 C   0  0  0  0  0  0  0  0  0  0  0  0
    5.0240   -8.5928    0.0000 O   0  0  0  0  0  0  0  0  0  0  0  0
    4.3098   -8.1799    0.0000 C   0  0  0  0  0  0  0  0  0  0  0  0
   16.4638   -9.3820    0.0000 Br  0  0  0  0  0  0  0  0  0  0  0  0
  5  4  1  0
 15 16  2  0
  4  1  2  0
 16 17  1  0
  5 10  1  0
 17 18  2  0
 18 13  1  0
  6  7  1  0
 16 19  1  0
  7  8  1  0
 19 20  1  0
  8  9  1  0
 20 21  1  0
  9 10  1  0
 20 22  2  0
  5  6  2  0
 21 23  2  0
  8 11  1  0
 23 24  1  0
 24 27  2  0
 26 25  2  0
 25 21  1  0
 11 12  1  0
  2  3  2  0
 26 27  1  0
 12 13  1  0
  1 28  1  0
  3  6  1  0
 28 29  1  0
 13 14  2  0
  2 30  1  0
  1  2  1  0
 30 31  1  0
 14 15  1  0
 26 32  1  0
M  END
>  <Classification>  (128) 
1

>  <pchembl>  (128) 
5.49

>  <InChI_steorem>  (128) 
InChI=1S/C26H27BrN2O3/c1-31-24-15-19-11-13-29(17-21(19)16-25(24)32-2)12-10-18-6-8-23(9-7-18)28-26(30)20-4-3-5-22(27)14-20/h3-9,14-16H,10-13,17H2,1-2H3,(H,28,30)

>  <source>  (128) 
ChEMBL25

>  <source_id>  (128) 
25

>  <optional_reference>  (128) 
10.1016/j.bmc.2007.11.057

>  <optional_origin>  (128) 
None

>  <target>  (128) 
MDR1

$$$$

     RDKit          2D

 32 35  0  0  0  0  0  0  0  0999 V2000
   -6.3561   -8.8530    0.0000 C   0  0  0  0  0  0  0  0  0  0  0  0
   -6.3549   -9.6803    0.0000 C   0  0  0  0  0  0  0  0  0  0  0  0
   -5.6371  -10.0932    0.0000 C   0  0  0  0  0  0  0  0  0  0  0  0
   -5.6389   -8.4404    0.0000 C   0  0  0  0  0  0  0  0  0  0  0  0
   -4.9236   -8.8494    0.0000 C   0  0  0  0  0  0  0  0  0  0  0  0
   -4.9202   -9.6824    0.0000 C   0  0  0  0  0  0  0  0  0  0  0  0
   -4.2011  -10.0937    0.0000 C   0  0  0  0  0  0  0  0  0  0  0  0
   -3.4808   -9.6765    0.0000 N   0  0  0  0  0  0  0  0  0  0  0  0
   -3.4842   -8.8435    0.0000 C   0  0  0  0  0  0  0  0  0  0  0  0
   -4.2079   -8.4277    0.0000 C   0  0  0  0  0  0  0  0  0  0  0  0
   -2.7653  -10.0870    0.0000 C   0  0  0  0  0  0  0  0  0  0  0  0
   -2.0520   -9.6726    0.0000 C   0  0  0  0  0  0  0  0  0  0  0  0
   -1.3365  -10.0831    0.0000 C   0  0  0  0  0  0  0  0  0  0  0  0
   -1.3378  -10.9081    0.0000 C   0  0  0  0  0  0  0  0  0  0  0  0
   -0.6232  -11.3185    0.0000 C   0  0  0  0  0  0  0  0  0  0  0  0
    0.0911  -10.9041    0.0000 C   0  0  0  0  0  0  0  0  0  0  0  0
    0.0861  -10.0749    0.0000 C   0  0  0  0  0  0  0  0  0  0  0  0
   -0.6291   -9.6682    0.0000 C   0  0  0  0  0  0  0  0  0  0  0  0
    0.8071  -11.3136    0.0000 N   0  0  0  0  0  0  0  0  0  0  0  0
    1.5198  -10.8983    0.0000 C   0  0  0  0  0  0  0  0  0  0  0  0
    2.2358  -11.3078    0.0000 C   0  0  0  0  0  0  0  0  0  0  0  0
    1.5164  -10.0734    0.0000 O   0  0  0  0  0  0  0  0  0  0  0  0
    2.2378  -12.1329    0.0000 C   0  0  0  0  0  0  0  0  0  0  0  0
    2.9530  -12.5424    0.0000 C   0  0  0  0  0  0  0  0  0  0  0  0
    2.9449  -10.8921    0.0000 C   0  0  0  0  0  0  0  0  0  0  0  0
    3.6607  -11.2978    0.0000 C   0  0  0  0  0  0  0  0  0  0  0  0
    3.6637  -12.1258    0.0000 C   0  0  0  0  0  0  0  0  0  0  0  0
   -7.0664   -8.4408    0.0000 O   0  0  0  0  0  0  0  0  0  0  0  0
   -7.0662   -7.6159    0.0000 C   0  0  0  0  0  0  0  0  0  0  0  0
   -7.0734  -10.0922    0.0000 O   0  0  0  0  0  0  0  0  0  0  0  0
   -7.7841   -9.6792    0.0000 C   0  0  0  0  0  0  0  0  0  0  0  0
    4.3801  -12.5347    0.0000 Br  0  0  0  0  0  0  0  0  0  0  0  0
  5  4  1  0
 15 16  2  0
  4  1  2  0
 16 17  1  0
  5 10  1  0
 17 18  2  0
 18 13  1  0
  6  7  1  0
 16 19  1  0
  7  8  1  0
 19 20  1  0
  8  9  1  0
 20 21  1  0
  9 10  1  0
 20 22  2  0
  5  6  2  0
 21 23  2  0
  8 11  1  0
 23 24  1  0
 24 27  2  0
 26 25  2  0
 25 21  1  0
 11 12  1  0
  2  3  2  0
 26 27  1  0
 12 13  1  0
  1 28  1  0
  3  6  1  0
 28 29  1  0
 13 14  2  0
  2 30  1  0
  1  2  1  0
 30 31  1  0
 14 15  1  0
 27 32  1  0
M  END
>  <Classification>  (129) 
1

>  <pchembl>  (129) 
5.61

>  <InChI_steorem>  (129) 
InChI=1S/C26H27BrN2O3/c1-31-24-15-20-12-14-29(17-21(20)16-25(24)32-2)13-11-18-3-9-23(10-4-18)28-26(30)19-5-7-22(27)8-6-19/h3-10,15-16H,11-14,17H2,1-2H3,(H,28,30)

>  <source>  (129) 
ChEMBL25

>  <source_id>  (129) 
25

>  <optional_reference>  (129) 
10.1016/j.bmc.2007.11.057

>  <optional_origin>  (129) 
None

>  <target>  (129) 
MDR1

$$$$

     RDKit          2D

 32 35  0  0  0  0  0  0  0  0999 V2000
   -6.4144   -5.2910    0.0000 C   0  0  0  0  0  0  0  0  0  0  0  0
   -6.4133   -6.1182    0.0000 C   0  0  0  0  0  0  0  0  0  0  0  0
   -5.6954   -6.5311    0.0000 C   0  0  0  0  0  0  0  0  0  0  0  0
   -5.6972   -4.8783    0.0000 C   0  0  0  0  0  0  0  0  0  0  0  0
   -4.9819   -5.2874    0.0000 C   0  0  0  0  0  0  0  0  0  0  0  0
   -4.9785   -6.1203    0.0000 C   0  0  0  0  0  0  0  0  0  0  0  0
   -4.2594   -6.5316    0.0000 C   0  0  0  0  0  0  0  0  0  0  0  0
   -3.5391   -6.1145    0.0000 N   0  0  0  0  0  0  0  0  0  0  0  0
   -3.5426   -5.2815    0.0000 C   0  0  0  0  0  0  0  0  0  0  0  0
   -4.2663   -4.8656    0.0000 C   0  0  0  0  0  0  0  0  0  0  0  0
   -2.8236   -6.5249    0.0000 C   0  0  0  0  0  0  0  0  0  0  0  0
   -2.1103   -6.1106    0.0000 C   0  0  0  0  0  0  0  0  0  0  0  0
   -1.3948   -6.5210    0.0000 C   0  0  0  0  0  0  0  0  0  0  0  0
   -1.3962   -7.3460    0.0000 C   0  0  0  0  0  0  0  0  0  0  0  0
   -0.6815   -7.7564    0.0000 C   0  0  0  0  0  0  0  0  0  0  0  0
    0.0327   -7.3420    0.0000 C   0  0  0  0  0  0  0  0  0  0  0  0
    0.0278   -6.5128    0.0000 C   0  0  0  0  0  0  0  0  0  0  0  0
   -0.6874   -6.1062    0.0000 C   0  0  0  0  0  0  0  0  0  0  0  0
    0.7488   -7.7515    0.0000 N   0  0  0  0  0  0  0  0  0  0  0  0
    1.4614   -7.3362    0.0000 C   0  0  0  0  0  0  0  0  0  0  0  0
    2.1775   -7.7457    0.0000 C   0  0  0  0  0  0  0  0  0  0  0  0
    1.4581   -6.5113    0.0000 O   0  0  0  0  0  0  0  0  0  0  0  0
    2.1794   -8.5708    0.0000 C   0  0  0  0  0  0  0  0  0  0  0  0
    2.8946   -8.9803    0.0000 C   0  0  0  0  0  0  0  0  0  0  0  0
    2.8865   -7.3300    0.0000 C   0  0  0  0  0  0  0  0  0  0  0  0
    3.6024   -7.7358    0.0000 C   0  0  0  0  0  0  0  0  0  0  0  0
    3.6053   -8.5637    0.0000 C   0  0  0  0  0  0  0  0  0  0  0  0
   -7.1248   -4.8787    0.0000 O   0  0  0  0  0  0  0  0  0  0  0  0
   -7.1246   -4.0538    0.0000 C   0  0  0  0  0  0  0  0  0  0  0  0
   -7.1317   -6.5301    0.0000 O   0  0  0  0  0  0  0  0  0  0  0  0
   -7.8425   -6.1171    0.0000 C   0  0  0  0  0  0  0  0  0  0  0  0
    2.8805   -6.5052    0.0000 Br  0  0  0  0  0  0  0  0  0  0  0  0
  5  4  1  0
 15 16  2  0
  4  1  2  0
 16 17  1  0
  5 10  1  0
 17 18  2  0
 18 13  1  0
  6  7  1  0
 16 19  1  0
  7  8  1  0
 19 20  1  0
  8  9  1  0
 20 21  1  0
  9 10  1  0
 20 22  2  0
  5  6  2  0
 21 23  2  0
  8 11  1  0
 23 24  1  0
 24 27  2  0
 26 25  2  0
 25 21  1  0
 11 12  1  0
  2  3  2  0
 26 27  1  0
 12 13  1  0
  1 28  1  0
  3  6  1  0
 28 29  1  0
 13 14  2  0
  2 30  1  0
  1  2  1  0
 30 31  1  0
 14 15  1  0
 25 32  1  0
M  END
>  <Classification>  (130) 
1

>  <pchembl>  (130) 
5.46

>  <InChI_steorem>  (130) 
InChI=1S/C26H27BrN2O3/c1-31-24-15-19-12-14-29(17-20(19)16-25(24)32-2)13-11-18-7-9-21(10-8-18)28-26(30)22-5-3-4-6-23(22)27/h3-10,15-16H,11-14,17H2,1-2H3,(H,28,30)

>  <source>  (130) 
ChEMBL25

>  <source_id>  (130) 
25

>  <optional_reference>  (130) 
10.1016/j.bmc.2007.11.057

>  <optional_origin>  (130) 
None

>  <target>  (130) 
MDR1

$$$$

     RDKit          2D

 33 36  0  0  0  0  0  0  0  0999 V2000
   -3.4431    1.5959    0.0000 C   0  0  0  0  0  0  0  0  0  0  0  0
   -3.4443    0.7685    0.0000 C   0  0  0  0  0  0  0  0  0  0  0  0
   -2.7294    0.3556    0.0000 C   0  0  0  0  0  0  0  0  0  0  0  0
   -2.7312    2.0086    0.0000 C   0  0  0  0  0  0  0  0  0  0  0  0
   -2.0159    1.5995    0.0000 C   0  0  0  0  0  0  0  0  0  0  0  0
   -2.0124    0.7664    0.0000 C   0  0  0  0  0  0  0  0  0  0  0  0
   -1.2933    0.3551    0.0000 C   0  0  0  0  0  0  0  0  0  0  0  0
   -0.5729    0.7723    0.0000 N   0  0  0  0  0  0  0  0  0  0  0  0
   -0.5763    1.6054    0.0000 C   0  0  0  0  0  0  0  0  0  0  0  0
   -1.3001    2.0213    0.0000 C   0  0  0  0  0  0  0  0  0  0  0  0
    0.1427    0.3618    0.0000 C   0  0  0  0  0  0  0  0  0  0  0  0
    0.8561    0.7762    0.0000 C   0  0  0  0  0  0  0  0  0  0  0  0
    1.5717    0.3657    0.0000 C   0  0  0  0  0  0  0  0  0  0  0  0
    1.5703   -0.4594    0.0000 C   0  0  0  0  0  0  0  0  0  0  0  0
    2.2851   -0.8699    0.0000 C   0  0  0  0  0  0  0  0  0  0  0  0
    2.9994   -0.4554    0.0000 C   0  0  0  0  0  0  0  0  0  0  0  0
    2.9945    0.3739    0.0000 C   0  0  0  0  0  0  0  0  0  0  0  0
    2.2792    0.7806    0.0000 C   0  0  0  0  0  0  0  0  0  0  0  0
    3.7155   -0.8650    0.0000 N   0  0  0  0  0  0  0  0  0  0  0  0
    4.4283   -0.4496    0.0000 C   0  0  0  0  0  0  0  0  0  0  0  0
    5.1444   -0.8592    0.0000 C   0  0  0  0  0  0  0  0  0  0  0  0
    4.4250    0.3754    0.0000 O   0  0  0  0  0  0  0  0  0  0  0  0
   -4.1577    2.0082    0.0000 O   0  0  0  0  0  0  0  0  0  0  0  0
   -4.1579    2.8332    0.0000 C   0  0  0  0  0  0  0  0  0  0  0  0
   -4.1591    0.3566    0.0000 O   0  0  0  0  0  0  0  0  0  0  0  0
   -4.8732    0.7696    0.0000 C   0  0  0  0  0  0  0  0  0  0  0  0
    5.8572   -0.4438    0.0000 O   0  0  0  0  0  0  0  0  0  0  0  0
    6.5734   -0.8534    0.0000 C   0  0  0  0  0  0  0  0  0  0  0  0
    6.5714   -1.6761    0.0000 C   0  0  0  0  0  0  0  0  0  0  0  0
    7.2867   -2.0856    0.0000 C   0  0  0  0  0  0  0  0  0  0  0  0
    8.0005   -1.6702    0.0000 C   0  0  0  0  0  0  0  0  0  0  0  0
    7.9945   -0.8409    0.0000 C   0  0  0  0  0  0  0  0  0  0  0  0
    7.2786   -0.4351    0.0000 C   0  0  0  0  0  0  0  0  0  0  0  0
 15 16  2  0
  4  1  2  0
 16 17  1  0
  5 10  1  0
 17 18  2  0
 18 13  1  0
  6  7  1  0
 16 19  1  0
  7  8  1  0
 19 20  1  0
  8  9  1  0
 20 21  1  0
  9 10  1  0
 20 22  2  0
  5  6  2  0
  1 23  1  0
  8 11  1  0
 23 24  1  0
  2 25  1  0
 11 12  1  0
 25 26  1  0
  2  3  2  0
 21 27  1  0
 12 13  1  0
 27 28  1  0
  3  6  1  0
 28 29  2  0
 13 14  2  0
 29 30  1  0
  1  2  1  0
 30 31  2  0
 14 15  1  0
 31 32  1  0
  5  4  1  0
 32 33  2  0
 33 28  1  0
M  END
>  <Classification>  (131) 
1

>  <pchembl>  (131) 
5.51

>  <InChI_steorem>  (131) 
InChI=1S/C27H30N2O4/c1-31-25-16-21-13-15-29(18-22(21)17-26(25)32-2)14-12-20-8-10-23(11-9-20)28-27(30)19-33-24-6-4-3-5-7-24/h3-11,16-17H,12-15,18-19H2,1-2H3,(H,28,30)

>  <source>  (131) 
ChEMBL25

>  <source_id>  (131) 
25

>  <optional_reference>  (131) 
10.1016/j.bmc.2009.01.072

>  <optional_origin>  (131) 
None

>  <target>  (131) 
MDR1

$$$$

     RDKit          2D

 33 36  0  0  0  0  0  0  0  0999 V2000
   -4.5014  -17.6041    0.0000 C   0  0  0  0  0  0  0  0  0  0  0  0
   -4.5026  -18.4315    0.0000 C   0  0  0  0  0  0  0  0  0  0  0  0
   -3.7878  -18.8444    0.0000 C   0  0  0  0  0  0  0  0  0  0  0  0
   -3.7896  -17.1914    0.0000 C   0  0  0  0  0  0  0  0  0  0  0  0
   -3.0742  -17.6005    0.0000 C   0  0  0  0  0  0  0  0  0  0  0  0
   -3.0708  -18.4336    0.0000 C   0  0  0  0  0  0  0  0  0  0  0  0
   -2.3516  -18.8449    0.0000 C   0  0  0  0  0  0  0  0  0  0  0  0
   -1.6312  -18.4277    0.0000 N   0  0  0  0  0  0  0  0  0  0  0  0
   -1.6346  -17.5946    0.0000 C   0  0  0  0  0  0  0  0  0  0  0  0
   -2.3584  -17.1787    0.0000 C   0  0  0  0  0  0  0  0  0  0  0  0
   -0.9156  -18.8382    0.0000 C   0  0  0  0  0  0  0  0  0  0  0  0
   -0.2023  -18.4238    0.0000 C   0  0  0  0  0  0  0  0  0  0  0  0
    0.5133  -18.8343    0.0000 C   0  0  0  0  0  0  0  0  0  0  0  0
    0.5120  -19.6594    0.0000 C   0  0  0  0  0  0  0  0  0  0  0  0
    1.2267  -20.0699    0.0000 C   0  0  0  0  0  0  0  0  0  0  0  0
    1.9411  -19.6554    0.0000 C   0  0  0  0  0  0  0  0  0  0  0  0
    1.9361  -18.8261    0.0000 C   0  0  0  0  0  0  0  0  0  0  0  0
    1.2208  -18.4194    0.0000 C   0  0  0  0  0  0  0  0  0  0  0  0
    2.6572  -20.0650    0.0000 N   0  0  0  0  0  0  0  0  0  0  0  0
    3.3700  -19.6496    0.0000 C   0  0  0  0  0  0  0  0  0  0  0  0
    4.0861  -20.0592    0.0000 C   0  0  0  0  0  0  0  0  0  0  0  0
    3.3666  -18.8246    0.0000 O   0  0  0  0  0  0  0  0  0  0  0  0
    4.0881  -20.8844    0.0000 C   0  0  0  0  0  0  0  0  0  0  0  0
    4.8034  -21.2939    0.0000 C   0  0  0  0  0  0  0  0  0  0  0  0
   -5.2160  -17.1918    0.0000 O   0  0  0  0  0  0  0  0  0  0  0  0
   -5.2162  -16.3668    0.0000 C   0  0  0  0  0  0  0  0  0  0  0  0
   -5.2174  -18.8434    0.0000 O   0  0  0  0  0  0  0  0  0  0  0  0
   -5.9315  -18.4304    0.0000 C   0  0  0  0  0  0  0  0  0  0  0  0
    4.8044  -22.1170    0.0000 C   0  0  0  0  0  0  0  0  0  0  0  0
    5.5188  -22.5264    0.0000 C   0  0  0  0  0  0  0  0  0  0  0  0
    6.2321  -22.1117    0.0000 C   0  0  0  0  0  0  0  0  0  0  0  0
    6.2265  -21.2832    0.0000 C   0  0  0  0  0  0  0  0  0  0  0  0
    5.5114  -20.8775    0.0000 C   0  0  0  0  0  0  0  0  0  0  0  0
 15 16  2  0
  4  1  2  0
 16 17  1  0
  5 10  1  0
 17 18  2  0
 18 13  1  0
  6  7  1  0
 16 19  1  0
  7  8  1  0
 19 20  1  0
  8  9  1  0
 20 21  1  0
  9 10  1  0
 20 22  2  0
  5  6  2  0
 21 23  2  3
  8 11  1  0
 23 24  1  0
  1 25  1  0
 11 12  1  0
 25 26  1  0
  2  3  2  0
  2 27  1  0
 12 13  1  0
 27 28  1  0
  3  6  1  0
 24 29  2  0
 13 14  2  0
 29 30  1  0
  1  2  1  0
 30 31  2  0
 14 15  1  0
 31 32  1  0
  5  4  1  0
 32 33  2  0
 33 24  1  0
M  END
>  <Classification>  (132) 
1

>  <pchembl>  (132) 
5.85

>  <InChI_steorem>  (132) 
InChI=1S/C28H30N2O3/c1-32-26-18-23-15-17-30(20-24(23)19-27(26)33-2)16-14-22-8-11-25(12-9-22)29-28(31)13-10-21-6-4-3-5-7-21/h3-13,18-19H,14-17,20H2,1-2H3,(H,29,31)

>  <source>  (132) 
ChEMBL25

>  <source_id>  (132) 
25

>  <optional_reference>  (132) 
10.1016/j.bmc.2009.01.072

>  <optional_origin>  (132) 
None

>  <target>  (132) 
MDR1

$$$$

     RDKit          2D

 33 36  0  0  0  0  0  0  0  0999 V2000
    8.0559  -16.7812    0.0000 C   0  0  0  0  0  0  0  0  0  0  0  0
    8.0547  -17.6085    0.0000 C   0  0  0  0  0  0  0  0  0  0  0  0
    8.7695  -18.0213    0.0000 C   0  0  0  0  0  0  0  0  0  0  0  0
    8.7677  -16.3685    0.0000 C   0  0  0  0  0  0  0  0  0  0  0  0
    9.4829  -16.7776    0.0000 C   0  0  0  0  0  0  0  0  0  0  0  0
    9.4864  -17.6105    0.0000 C   0  0  0  0  0  0  0  0  0  0  0  0
   10.2054  -18.0218    0.0000 C   0  0  0  0  0  0  0  0  0  0  0  0
   10.9258  -17.6046    0.0000 N   0  0  0  0  0  0  0  0  0  0  0  0
   10.9224  -16.7717    0.0000 C   0  0  0  0  0  0  0  0  0  0  0  0
   10.1986  -16.3559    0.0000 C   0  0  0  0  0  0  0  0  0  0  0  0
   11.6413  -18.0152    0.0000 C   0  0  0  0  0  0  0  0  0  0  0  0
   12.3546  -17.6007    0.0000 C   0  0  0  0  0  0  0  0  0  0  0  0
   13.0701  -18.0113    0.0000 C   0  0  0  0  0  0  0  0  0  0  0  0
   13.0687  -18.8363    0.0000 C   0  0  0  0  0  0  0  0  0  0  0  0
   13.7834  -19.2467    0.0000 C   0  0  0  0  0  0  0  0  0  0  0  0
   14.4976  -18.8323    0.0000 C   0  0  0  0  0  0  0  0  0  0  0  0
   14.4927  -18.0031    0.0000 C   0  0  0  0  0  0  0  0  0  0  0  0
   13.7775  -17.5964    0.0000 C   0  0  0  0  0  0  0  0  0  0  0  0
   15.2136  -19.2418    0.0000 N   0  0  0  0  0  0  0  0  0  0  0  0
   15.9263  -18.8265    0.0000 C   0  0  0  0  0  0  0  0  0  0  0  0
   16.6424  -19.2360    0.0000 N   0  0  0  0  0  0  0  0  0  0  0  0
   15.9230  -18.0016    0.0000 O   0  0  0  0  0  0  0  0  0  0  0  0
   16.6458  -20.0609    0.0000 C   0  0  0  0  0  0  0  0  0  0  0  0
   15.9304  -20.4723    0.0000 C   0  0  0  0  0  0  0  0  0  0  0  0
   15.9334  -21.2964    0.0000 C   0  0  0  0  0  0  0  0  0  0  0  0
   16.6501  -21.7067    0.0000 C   0  0  0  0  0  0  0  0  0  0  0  0
   17.3651  -21.2870    0.0000 C   0  0  0  0  0  0  0  0  0  0  0  0
   17.3586  -20.4642    0.0000 C   0  0  0  0  0  0  0  0  0  0  0  0
    7.3414  -16.3690    0.0000 O   0  0  0  0  0  0  0  0  0  0  0  0
    7.3412  -15.5441    0.0000 C   0  0  0  0  0  0  0  0  0  0  0  0
    7.3400  -18.0204    0.0000 O   0  0  0  0  0  0  0  0  0  0  0  0
    6.6260  -17.6073    0.0000 C   0  0  0  0  0  0  0  0  0  0  0  0
   18.0826  -21.6940    0.0000 N   0  0  0  0  0  0  0  0  0  0  0  0
 15 16  2  0
  4  1  2  0
 16 17  1  0
  5 10  1  0
 17 18  2  0
 18 13  1  0
  6  7  1  0
 16 19  1  0
  7  8  1  0
 19 20  1  0
  8  9  1  0
 20 21  1  0
  9 10  1  0
 20 22  2  0
  5  6  2  0
 21 23  1  0
  8 11  1  0
 23 24  2  0
 24 25  1  0
 11 12  1  0
 25 26  2  0
  2  3  2  0
 26 27  1  0
 12 13  1  0
 27 28  2  0
 28 23  1  0
  3  6  1  0
  1 29  1  0
 13 14  2  0
 29 30  1  0
  1  2  1  0
  2 31  1  0
 14 15  1  0
 31 32  1  0
  5  4  1  0
 27 33  1  0
M  END
>  <Classification>  (133) 
0

>  <pchembl>  (133) 
4.85

>  <InChI_steorem>  (133) 
InChI=1S/C26H30N4O3/c1-32-24-14-19-11-13-30(17-20(19)15-25(24)33-2)12-10-18-6-8-22(9-7-18)28-26(31)29-23-5-3-4-21(27)16-23/h3-9,14-16H,10-13,17,27H2,1-2H3,(H2,28,29,31)

>  <source>  (133) 
ChEMBL25

>  <source_id>  (133) 
25

>  <optional_reference>  (133) 
10.1016/j.bmc.2009.01.072

>  <optional_origin>  (133) 
None

>  <target>  (133) 
MDR1

$$$$

     RDKit          2D

 34 37  0  0  0  0  0  0  0  0999 V2000
   -4.0970   -2.1499    0.0000 C   0  0  0  0  0  0  0  0  0  0  0  0
   -4.0981   -2.9771    0.0000 C   0  0  0  0  0  0  0  0  0  0  0  0
   -3.3834   -3.3900    0.0000 C   0  0  0  0  0  0  0  0  0  0  0  0
   -3.3852   -1.7371    0.0000 C   0  0  0  0  0  0  0  0  0  0  0  0
   -2.6698   -2.1462    0.0000 C   0  0  0  0  0  0  0  0  0  0  0  0
   -2.6664   -2.9792    0.0000 C   0  0  0  0  0  0  0  0  0  0  0  0
   -1.9473   -3.3905    0.0000 C   0  0  0  0  0  0  0  0  0  0  0  0
   -1.2269   -2.9733    0.0000 N   0  0  0  0  0  0  0  0  0  0  0  0
   -1.2304   -2.1403    0.0000 C   0  0  0  0  0  0  0  0  0  0  0  0
   -1.9542   -1.7244    0.0000 C   0  0  0  0  0  0  0  0  0  0  0  0
   -0.5114   -3.3839    0.0000 C   0  0  0  0  0  0  0  0  0  0  0  0
    0.2019   -2.9694    0.0000 C   0  0  0  0  0  0  0  0  0  0  0  0
    0.9174   -3.3800    0.0000 C   0  0  0  0  0  0  0  0  0  0  0  0
    0.9160   -4.2050    0.0000 C   0  0  0  0  0  0  0  0  0  0  0  0
    1.6308   -4.6154    0.0000 C   0  0  0  0  0  0  0  0  0  0  0  0
    2.3450   -4.2009    0.0000 C   0  0  0  0  0  0  0  0  0  0  0  0
    2.3401   -3.3718    0.0000 C   0  0  0  0  0  0  0  0  0  0  0  0
    1.6249   -2.9650    0.0000 C   0  0  0  0  0  0  0  0  0  0  0  0
    3.0612   -4.6105    0.0000 N   0  0  0  0  0  0  0  0  0  0  0  0
    3.7739   -4.1951    0.0000 C   0  0  0  0  0  0  0  0  0  0  0  0
    4.4900   -4.6047    0.0000 C   0  0  0  0  0  0  0  0  0  0  0  0
    3.7706   -3.3702    0.0000 O   0  0  0  0  0  0  0  0  0  0  0  0
   -4.8115   -1.7375    0.0000 O   0  0  0  0  0  0  0  0  0  0  0  0
   -4.8117   -0.9125    0.0000 C   0  0  0  0  0  0  0  0  0  0  0  0
   -4.8129   -3.3891    0.0000 O   0  0  0  0  0  0  0  0  0  0  0  0
   -5.5270   -2.9760    0.0000 C   0  0  0  0  0  0  0  0  0  0  0  0
    5.2028   -4.1893    0.0000 O   0  0  0  0  0  0  0  0  0  0  0  0
    5.9188   -4.5989    0.0000 C   0  0  0  0  0  0  0  0  0  0  0  0
    5.9168   -5.4215    0.0000 C   0  0  0  0  0  0  0  0  0  0  0  0
    6.6321   -5.8311    0.0000 C   0  0  0  0  0  0  0  0  0  0  0  0
    7.3458   -5.4156    0.0000 C   0  0  0  0  0  0  0  0  0  0  0  0
    7.3398   -4.5865    0.0000 C   0  0  0  0  0  0  0  0  0  0  0  0
    6.6240   -4.1807    0.0000 C   0  0  0  0  0  0  0  0  0  0  0  0
    6.6159   -3.3558    0.0000 N   0  0  0  0  0  0  0  0  0  0  0  0
  4  1  2  0
 16 17  1  0
  5 10  1  0
 17 18  2  0
 18 13  1  0
  6  7  1  0
 16 19  1  0
  7  8  1  0
 19 20  1  0
  8  9  1  0
 20 21  1  0
  9 10  1  0
 20 22  2  0
  5  6  2  0
  1 23  1  0
  8 11  1  0
 23 24  1  0
  2 25  1  0
 11 12  1  0
 25 26  1  0
  2  3  2  0
 21 27  1  0
 12 13  1  0
 27 28  1  0
  3  6  1  0
 28 29  2  0
 13 14  2  0
 29 30  1  0
  1  2  1  0
 30 31  2  0
 14 15  1  0
 31 32  1  0
  5  4  1  0
 32 33  2  0
 33 28  1  0
 15 16  2  0
 33 34  1  0
M  END
>  <Classification>  (134) 
1

>  <pchembl>  (134) 
5.47

>  <InChI_steorem>  (134) 
InChI=1S/C27H31N3O4/c1-32-25-15-20-12-14-30(17-21(20)16-26(25)33-2)13-11-19-7-9-22(10-8-19)29-27(31)18-34-24-6-4-3-5-23(24)28/h3-10,15-16H,11-14,17-18,28H2,1-2H3,(H,29,31)

>  <source>  (134) 
ChEMBL25

>  <source_id>  (134) 
25

>  <optional_reference>  (134) 
10.1016/j.bmc.2009.01.072

>  <optional_origin>  (134) 
None

>  <target>  (134) 
MDR1

$$$$

     RDKit          2D

 34 37  0  0  0  0  0  0  0  0999 V2000
   -4.7345  -21.8944    0.0000 C   0  0  0  0  0  0  0  0  0  0  0  0
   -4.7356  -22.7217    0.0000 C   0  0  0  0  0  0  0  0  0  0  0  0
   -4.0208  -23.1345    0.0000 C   0  0  0  0  0  0  0  0  0  0  0  0
   -4.0226  -21.4816    0.0000 C   0  0  0  0  0  0  0  0  0  0  0  0
   -3.3073  -21.8908    0.0000 C   0  0  0  0  0  0  0  0  0  0  0  0
   -3.3039  -22.7237    0.0000 C   0  0  0  0  0  0  0  0  0  0  0  0
   -2.5847  -23.1350    0.0000 C   0  0  0  0  0  0  0  0  0  0  0  0
   -1.8644  -22.7178    0.0000 N   0  0  0  0  0  0  0  0  0  0  0  0
   -1.8679  -21.8849    0.0000 C   0  0  0  0  0  0  0  0  0  0  0  0
   -2.5916  -21.4690    0.0000 C   0  0  0  0  0  0  0  0  0  0  0  0
   -1.1488  -23.1284    0.0000 C   0  0  0  0  0  0  0  0  0  0  0  0
   -0.4356  -22.7139    0.0000 C   0  0  0  0  0  0  0  0  0  0  0  0
    0.2800  -23.1245    0.0000 C   0  0  0  0  0  0  0  0  0  0  0  0
    0.2786  -23.9495    0.0000 C   0  0  0  0  0  0  0  0  0  0  0  0
    0.9933  -24.3600    0.0000 C   0  0  0  0  0  0  0  0  0  0  0  0
    1.7076  -23.9455    0.0000 C   0  0  0  0  0  0  0  0  0  0  0  0
    1.7027  -23.1163    0.0000 C   0  0  0  0  0  0  0  0  0  0  0  0
    0.9874  -22.7096    0.0000 C   0  0  0  0  0  0  0  0  0  0  0  0
    2.4237  -24.3551    0.0000 N   0  0  0  0  0  0  0  0  0  0  0  0
    3.1364  -23.9397    0.0000 C   0  0  0  0  0  0  0  0  0  0  0  0
    3.8525  -24.3493    0.0000 C   0  0  0  0  0  0  0  0  0  0  0  0
    3.1331  -23.1148    0.0000 O   0  0  0  0  0  0  0  0  0  0  0  0
    3.8544  -25.1744    0.0000 C   0  0  0  0  0  0  0  0  0  0  0  0
    4.5697  -25.5839    0.0000 C   0  0  0  0  0  0  0  0  0  0  0  0
   -5.4489  -21.4821    0.0000 O   0  0  0  0  0  0  0  0  0  0  0  0
   -5.4491  -20.6571    0.0000 C   0  0  0  0  0  0  0  0  0  0  0  0
   -5.4503  -23.1336    0.0000 O   0  0  0  0  0  0  0  0  0  0  0  0
   -6.1681  -22.7205    0.0000 C   0  0  0  0  0  0  0  0  0  0  0  0
    4.5707  -26.4069    0.0000 C   0  0  0  0  0  0  0  0  0  0  0  0
    5.2852  -26.8163    0.0000 C   0  0  0  0  0  0  0  0  0  0  0  0
    5.9984  -26.4016    0.0000 C   0  0  0  0  0  0  0  0  0  0  0  0
    5.9927  -25.5732    0.0000 C   0  0  0  0  0  0  0  0  0  0  0  0
    5.2778  -25.1674    0.0000 C   0  0  0  0  0  0  0  0  0  0  0  0
    6.7149  -26.8105    0.0000 Cl  0  0  0  0  0  0  0  0  0  0  0  0
  4  1  2  0
 16 17  1  0
  5 10  1  0
 17 18  2  0
 18 13  1  0
  6  7  1  0
 16 19  1  0
  7  8  1  0
 19 20  1  0
  8  9  1  0
 20 21  1  0
  9 10  1  0
 20 22  2  0
  5  6  2  0
 21 23  2  3
  8 11  1  0
 23 24  1  0
  1 25  1  0
 11 12  1  0
 25 26  1  0
  2  3  2  0
  2 27  1  0
 12 13  1  0
 27 28  1  0
  3  6  1  0
 24 29  2  0
 13 14  2  0
 29 30  1  0
  1  2  1  0
 30 31  2  0
 14 15  1  0
 31 32  1  0
  5  4  1  0
 32 33  2  0
 33 24  1  0
 15 16  2  0
 31 34  1  0
M  END
>  <Classification>  (135) 
1

>  <pchembl>  (135) 
6.17

>  <InChI_steorem>  (135) 
InChI=1S/C28H29ClN2O3/c1-33-26-17-22-14-16-31(19-23(22)18-27(26)34-2)15-13-21-5-10-25(11-6-21)30-28(32)12-7-20-3-8-24(29)9-4-20/h3-12,17-18H,13-16,19H2,1-2H3,(H,30,32)

>  <source>  (135) 
ChEMBL25

>  <source_id>  (135) 
25

>  <optional_reference>  (135) 
10.1016/j.bmc.2009.01.072

>  <optional_origin>  (135) 
None

>  <target>  (135) 
MDR1

$$$$

     RDKit          2D

 34 38  0  0  0  0  0  0  0  0999 V2000
    8.6194  -15.4791    0.0000 C   0  0  0  0  0  0  0  0  0  0  0  0
    8.6182  -16.3065    0.0000 C   0  0  0  0  0  0  0  0  0  0  0  0
    9.3331  -16.7194    0.0000 C   0  0  0  0  0  0  0  0  0  0  0  0
    9.3313  -15.0664    0.0000 C   0  0  0  0  0  0  0  0  0  0  0  0
   10.0466  -15.4755    0.0000 C   0  0  0  0  0  0  0  0  0  0  0  0
   10.0501  -16.3086    0.0000 C   0  0  0  0  0  0  0  0  0  0  0  0
   10.7692  -16.7199    0.0000 C   0  0  0  0  0  0  0  0  0  0  0  0
   11.4896  -16.3027    0.0000 N   0  0  0  0  0  0  0  0  0  0  0  0
   11.4862  -15.4696    0.0000 C   0  0  0  0  0  0  0  0  0  0  0  0
   10.7624  -15.0537    0.0000 C   0  0  0  0  0  0  0  0  0  0  0  0
   12.2052  -16.7132    0.0000 C   0  0  0  0  0  0  0  0  0  0  0  0
   12.9186  -16.2988    0.0000 C   0  0  0  0  0  0  0  0  0  0  0  0
   13.6342  -16.7093    0.0000 C   0  0  0  0  0  0  0  0  0  0  0  0
   13.6328  -17.5344    0.0000 C   0  0  0  0  0  0  0  0  0  0  0  0
   14.3476  -17.9449    0.0000 C   0  0  0  0  0  0  0  0  0  0  0  0
   15.0619  -17.5304    0.0000 C   0  0  0  0  0  0  0  0  0  0  0  0
   15.0570  -16.7011    0.0000 C   0  0  0  0  0  0  0  0  0  0  0  0
   14.3417  -16.2944    0.0000 C   0  0  0  0  0  0  0  0  0  0  0  0
   15.7780  -17.9400    0.0000 N   0  0  0  0  0  0  0  0  0  0  0  0
   16.4908  -17.5246    0.0000 C   0  0  0  0  0  0  0  0  0  0  0  0
   17.2069  -17.9342    0.0000 C   0  0  0  0  0  0  0  0  0  0  0  0
   16.4875  -16.6996    0.0000 O   0  0  0  0  0  0  0  0  0  0  0  0
   17.2089  -18.7594    0.0000 C   0  0  0  0  0  0  0  0  0  0  0  0
   17.9242  -19.1689    0.0000 C   0  0  0  0  0  0  0  0  0  0  0  0
   17.9161  -17.5184    0.0000 C   0  0  0  0  0  0  0  0  0  0  0  0
    7.9048  -15.0668    0.0000 O   0  0  0  0  0  0  0  0  0  0  0  0
    7.9046  -14.2418    0.0000 C   0  0  0  0  0  0  0  0  0  0  0  0
    7.9034  -16.7184    0.0000 O   0  0  0  0  0  0  0  0  0  0  0  0
    7.1893  -16.3054    0.0000 C   0  0  0  0  0  0  0  0  0  0  0  0
   18.6357  -17.9211    0.0000 C   0  0  0  0  0  0  0  0  0  0  0  0
   18.6349  -18.7523    0.0000 C   0  0  0  0  0  0  0  0  0  0  0  0
   19.4252  -19.0100    0.0000 O   0  0  0  0  0  0  0  0  0  0  0  0
   19.9145  -18.3379    0.0000 C   0  0  0  0  0  0  0  0  0  0  0  0
   19.4265  -17.6651    0.0000 O   0  0  0  0  0  0  0  0  0  0  0  0
  4  1  2  0
 16 17  1  0
  5 10  1  0
 17 18  2  0
 18 13  1  0
  6  7  1  0
 16 19  1  0
  7  8  1  0
 19 20  1  0
  8  9  1  0
 20 21  1  0
  9 10  1  0
 20 22  2  0
  5  6  2  0
 21 23  2  0
  8 11  1  0
 23 24  1  0
 24 31  2  0
 30 25  2  0
 25 21  1  0
 11 12  1  0
  1 26  1  0
  2  3  2  0
 26 27  1  0
 12 13  1  0
  2 28  1  0
  3  6  1  0
 28 29  1  0
 30 31  1  0
 13 14  2  0
  1  2  1  0
 14 15  1  0
  5  4  1  0
 15 16  2  0
 31 32  1  0
 32 33  1  0
 33 34  1  0
 34 30  1  0
M  END
>  <Classification>  (136) 
1

>  <pchembl>  (136) 
5.68

>  <InChI_steorem>  (136) 
InChI=1S/C27H28N2O5/c1-31-24-13-19-10-12-29(16-21(19)15-25(24)32-2)11-9-18-3-6-22(7-4-18)28-27(30)20-5-8-23-26(14-20)34-17-33-23/h3-8,13-15H,9-12,16-17H2,1-2H3,(H,28,30)

>  <source>  (136) 
ChEMBL25

>  <source_id>  (136) 
25

>  <optional_reference>  (136) 
10.1016/j.bmc.2009.01.072

>  <optional_origin>  (136) 
None

>  <target>  (136) 
MDR1

$$$$

     RDKit          2D

 35 38  0  0  0  0  0  0  0  0999 V2000
    6.0819  -10.8208    0.0000 C   0  0  0  0  0  0  0  0  0  0  0  0
    6.0807  -11.6482    0.0000 C   0  0  0  0  0  0  0  0  0  0  0  0
    6.7956  -12.0610    0.0000 C   0  0  0  0  0  0  0  0  0  0  0  0
    6.7938  -10.4080    0.0000 C   0  0  0  0  0  0  0  0  0  0  0  0
    7.5091  -10.8172    0.0000 C   0  0  0  0  0  0  0  0  0  0  0  0
    7.5126  -11.6502    0.0000 C   0  0  0  0  0  0  0  0  0  0  0  0
    8.2317  -12.0615    0.0000 C   0  0  0  0  0  0  0  0  0  0  0  0
    8.9521  -11.6443    0.0000 N   0  0  0  0  0  0  0  0  0  0  0  0
    8.9487  -10.8113    0.0000 C   0  0  0  0  0  0  0  0  0  0  0  0
    8.2249  -10.3954    0.0000 C   0  0  0  0  0  0  0  0  0  0  0  0
    9.6677  -12.0549    0.0000 C   0  0  0  0  0  0  0  0  0  0  0  0
   10.3811  -11.6404    0.0000 C   0  0  0  0  0  0  0  0  0  0  0  0
   11.0967  -12.0510    0.0000 C   0  0  0  0  0  0  0  0  0  0  0  0
   11.0953  -12.8761    0.0000 C   0  0  0  0  0  0  0  0  0  0  0  0
   11.8101  -13.2866    0.0000 C   0  0  0  0  0  0  0  0  0  0  0  0
   12.5244  -12.8721    0.0000 C   0  0  0  0  0  0  0  0  0  0  0  0
   12.5195  -12.0428    0.0000 C   0  0  0  0  0  0  0  0  0  0  0  0
   11.8042  -11.6361    0.0000 C   0  0  0  0  0  0  0  0  0  0  0  0
   13.2405  -13.2817    0.0000 N   0  0  0  0  0  0  0  0  0  0  0  0
   13.9533  -12.8663    0.0000 C   0  0  0  0  0  0  0  0  0  0  0  0
   14.6694  -13.2759    0.0000 C   0  0  0  0  0  0  0  0  0  0  0  0
   13.9500  -12.0413    0.0000 O   0  0  0  0  0  0  0  0  0  0  0  0
   14.6714  -14.1011    0.0000 C   0  0  0  0  0  0  0  0  0  0  0  0
   15.3867  -14.5106    0.0000 C   0  0  0  0  0  0  0  0  0  0  0  0
   15.3786  -12.8601    0.0000 C   0  0  0  0  0  0  0  0  0  0  0  0
   16.0945  -13.2659    0.0000 C   0  0  0  0  0  0  0  0  0  0  0  0
   16.0974  -14.0940    0.0000 C   0  0  0  0  0  0  0  0  0  0  0  0
    5.3673  -10.4085    0.0000 O   0  0  0  0  0  0  0  0  0  0  0  0
    5.3671   -9.5835    0.0000 C   0  0  0  0  0  0  0  0  0  0  0  0
    5.3659  -12.0601    0.0000 O   0  0  0  0  0  0  0  0  0  0  0  0
    4.6518  -11.6470    0.0000 C   0  0  0  0  0  0  0  0  0  0  0  0
   16.8066  -12.8493    0.0000 O   0  0  0  0  0  0  0  0  0  0  0  0
   17.5234  -13.2577    0.0000 C   0  0  0  0  0  0  0  0  0  0  0  0
   16.8140  -14.5029    0.0000 O   0  0  0  0  0  0  0  0  0  0  0  0
   16.8181  -15.3279    0.0000 C   0  0  0  0  0  0  0  0  0  0  0  0
 16 17  1  0
  5 10  1  0
 17 18  2  0
 18 13  1  0
  6  7  1  0
 16 19  1  0
  7  8  1  0
 19 20  1  0
  8  9  1  0
 20 21  1  0
  9 10  1  0
 20 22  2  0
  5  6  1  0
 21 23  2  0
  8 11  1  0
 23 24  1  0
 24 27  2  0
 26 25  2  0
 25 21  1  0
 11 12  1  0
  2  3  1  0
 26 27  1  0
 12 13  1  0
  1 28  1  0
  3  6  2  0
 28 29  1  0
 13 14  2  0
  2 30  1  0
  1  2  2  0
 30 31  1  0
 14 15  1  0
 26 32  1  0
  5  4  2  0
 32 33  1  0
 15 16  2  0
 27 34  1  0
  4  1  1  0
 34 35  1  0
M  END
>  <Classification>  (137) 
1

>  <pchembl>  (137) 
5.27

>  <InChI_steorem>  (137) 
InChI=1S/C28H32N2O5/c1-32-24-10-7-21(16-25(24)33-2)28(31)29-23-8-5-19(6-9-23)11-13-30-14-12-20-15-26(34-3)27(35-4)17-22(20)18-30/h5-10,15-17H,11-14,18H2,1-4H3,(H,29,31)

>  <source>  (137) 
ChEMBL25

>  <source_id>  (137) 
25

>  <optional_reference>  (137) 
10.1016/j.bmc.2007.11.057

>  <optional_origin>  (137) 
None

>  <target>  (137) 
MDR1

$$$$

     RDKit          2D

 35 38  0  0  0  0  0  0  0  0999 V2000
    8.0184   -7.4949    0.0000 C   0  0  0  0  0  0  0  0  0  0  0  0
    8.0172   -8.3222    0.0000 C   0  0  0  0  0  0  0  0  0  0  0  0
    8.7320   -8.7349    0.0000 C   0  0  0  0  0  0  0  0  0  0  0  0
    8.7302   -7.0821    0.0000 C   0  0  0  0  0  0  0  0  0  0  0  0
    9.4454   -7.4913    0.0000 C   0  0  0  0  0  0  0  0  0  0  0  0
    9.4489   -8.3242    0.0000 C   0  0  0  0  0  0  0  0  0  0  0  0
   10.1680   -8.7354    0.0000 C   0  0  0  0  0  0  0  0  0  0  0  0
   10.8883   -8.3183    0.0000 N   0  0  0  0  0  0  0  0  0  0  0  0
   10.8849   -7.4854    0.0000 C   0  0  0  0  0  0  0  0  0  0  0  0
   10.1612   -7.0695    0.0000 C   0  0  0  0  0  0  0  0  0  0  0  0
   11.6038   -8.7288    0.0000 C   0  0  0  0  0  0  0  0  0  0  0  0
   12.3171   -8.3144    0.0000 C   0  0  0  0  0  0  0  0  0  0  0  0
   13.0326   -8.7249    0.0000 C   0  0  0  0  0  0  0  0  0  0  0  0
   13.0312   -9.5499    0.0000 C   0  0  0  0  0  0  0  0  0  0  0  0
   13.7459   -9.9604    0.0000 C   0  0  0  0  0  0  0  0  0  0  0  0
   14.4601   -9.5459    0.0000 C   0  0  0  0  0  0  0  0  0  0  0  0
   14.4552   -8.7167    0.0000 C   0  0  0  0  0  0  0  0  0  0  0  0
   13.7400   -8.3101    0.0000 C   0  0  0  0  0  0  0  0  0  0  0  0
   15.1761   -9.9555    0.0000 N   0  0  0  0  0  0  0  0  0  0  0  0
   15.8889   -9.5401    0.0000 C   0  0  0  0  0  0  0  0  0  0  0  0
   16.6049   -9.9497    0.0000 N   0  0  0  0  0  0  0  0  0  0  0  0
   15.8856   -8.7152    0.0000 O   0  0  0  0  0  0  0  0  0  0  0  0
    7.3039   -7.0826    0.0000 O   0  0  0  0  0  0  0  0  0  0  0  0
    7.3037   -6.2577    0.0000 C   0  0  0  0  0  0  0  0  0  0  0  0
    7.3025   -8.7340    0.0000 O   0  0  0  0  0  0  0  0  0  0  0  0
    6.5885   -8.3210    0.0000 C   0  0  0  0  0  0  0  0  0  0  0  0
   16.6083  -10.7746    0.0000 C   0  0  0  0  0  0  0  0  0  0  0  0
   15.8930  -11.1859    0.0000 C   0  0  0  0  0  0  0  0  0  0  0  0
   15.8960  -12.0100    0.0000 C   0  0  0  0  0  0  0  0  0  0  0  0
   16.6126  -12.4204    0.0000 C   0  0  0  0  0  0  0  0  0  0  0  0
   17.3276  -12.0006    0.0000 C   0  0  0  0  0  0  0  0  0  0  0  0
   17.3211  -11.1778    0.0000 C   0  0  0  0  0  0  0  0  0  0  0  0
   18.0470  -12.4076    0.0000 N   0  0  0  0  0  0  0  0  0  0  0  0
   18.7582  -11.9897    0.0000 O   0  0  0  0  0  0  0  0  0  0  0  0
   18.0533  -13.2325    0.0000 O   0  0  0  0  0  0  0  0  0  0  0  0
 16 17  1  0
  5 10  1  0
 17 18  2  0
 18 13  1  0
  6  7  1  0
 16 19  1  0
  7  8  1  0
 19 20  1  0
  8  9  1  0
 20 21  1  0
  9 10  1  0
 20 22  2  0
  5  6  1  0
  1 23  1  0
  8 11  1  0
 23 24  1  0
  2 25  1  0
 11 12  1  0
 25 26  1  0
  2  3  1  0
 21 27  1  0
 12 13  1  0
 27 28  2  0
  3  6  2  0
 28 29  1  0
 13 14  2  0
 29 30  2  0
  1  2  2  0
 30 31  1  0
 14 15  1  0
 31 32  2  0
 32 27  1  0
  5  4  2  0
 15 16  2  0
  4  1  1  0
 33 34  2  0
 33 35  1  0
 31 33  1  0
M  CHG  2  33   1  35  -1
M  END
>  <Classification>  (138) 
1

>  <pchembl>  (138) 
6.17

>  <InChI_steorem>  (138) 
InChI=1S/C26H28N4O5/c1-34-24-14-19-11-13-29(17-20(19)15-25(24)35-2)12-10-18-6-8-21(9-7-18)27-26(31)28-22-4-3-5-23(16-22)30(32)33/h3-9,14-16H,10-13,17H2,1-2H3,(H2,27,28,31)

>  <source>  (138) 
ChEMBL25

>  <source_id>  (138) 
25

>  <optional_reference>  (138) 
10.1016/j.bmc.2009.01.072

>  <optional_origin>  (138) 
None

>  <target>  (138) 
MDR1

$$$$

     RDKit          2D

 35 39  0  0  0  0  0  0  0  0999 V2000
   -3.6056  -20.5375    0.0000 C   0  0  0  0  0  0  0  0  0  0  0  0
   -3.6068  -21.3648    0.0000 C   0  0  0  0  0  0  0  0  0  0  0  0
   -2.8919  -21.7777    0.0000 C   0  0  0  0  0  0  0  0  0  0  0  0
   -2.8937  -20.1247    0.0000 C   0  0  0  0  0  0  0  0  0  0  0  0
   -2.1784  -20.5338    0.0000 C   0  0  0  0  0  0  0  0  0  0  0  0
   -2.1749  -21.3669    0.0000 C   0  0  0  0  0  0  0  0  0  0  0  0
   -1.4558  -21.7782    0.0000 C   0  0  0  0  0  0  0  0  0  0  0  0
   -0.7354  -21.3610    0.0000 N   0  0  0  0  0  0  0  0  0  0  0  0
   -0.7388  -20.5279    0.0000 C   0  0  0  0  0  0  0  0  0  0  0  0
   -1.4626  -20.1120    0.0000 C   0  0  0  0  0  0  0  0  0  0  0  0
   -0.0198  -21.7716    0.0000 C   0  0  0  0  0  0  0  0  0  0  0  0
    0.6936  -21.3571    0.0000 C   0  0  0  0  0  0  0  0  0  0  0  0
    1.4092  -21.7677    0.0000 C   0  0  0  0  0  0  0  0  0  0  0  0
    1.4078  -22.5928    0.0000 C   0  0  0  0  0  0  0  0  0  0  0  0
    2.1226  -23.0032    0.0000 C   0  0  0  0  0  0  0  0  0  0  0  0
    2.8369  -22.5887    0.0000 C   0  0  0  0  0  0  0  0  0  0  0  0
    2.8320  -21.7595    0.0000 C   0  0  0  0  0  0  0  0  0  0  0  0
    2.1167  -21.3527    0.0000 C   0  0  0  0  0  0  0  0  0  0  0  0
    3.5530  -22.9983    0.0000 N   0  0  0  0  0  0  0  0  0  0  0  0
    4.2658  -22.5829    0.0000 C   0  0  0  0  0  0  0  0  0  0  0  0
    4.9819  -22.9925    0.0000 C   0  0  0  0  0  0  0  0  0  0  0  0
    4.2625  -21.7579    0.0000 O   0  0  0  0  0  0  0  0  0  0  0  0
   -4.3202  -20.1251    0.0000 O   0  0  0  0  0  0  0  0  0  0  0  0
   -4.3204  -19.3001    0.0000 C   0  0  0  0  0  0  0  0  0  0  0  0
   -4.3216  -21.7768    0.0000 O   0  0  0  0  0  0  0  0  0  0  0  0
   -5.0357  -21.3637    0.0000 C   0  0  0  0  0  0  0  0  0  0  0  0
    4.9839  -23.8177    0.0000 C   0  0  0  0  0  0  0  0  0  0  0  0
    5.6992  -24.2273    0.0000 C   0  0  0  0  0  0  0  0  0  0  0  0
    6.4130  -23.8118    0.0000 N   0  0  0  0  0  0  0  0  0  0  0  0
    5.6911  -22.5768    0.0000 C   0  0  0  0  0  0  0  0  0  0  0  0
    6.4054  -22.9831    0.0000 C   0  0  0  0  0  0  0  0  0  0  0  0
    7.1124  -22.5677    0.0000 C   0  0  0  0  0  0  0  0  0  0  0  0
    7.1062  -21.7461    0.0000 C   0  0  0  0  0  0  0  0  0  0  0  0
    6.3871  -21.3418    0.0000 C   0  0  0  0  0  0  0  0  0  0  0  0
    5.6832  -21.7595    0.0000 C   0  0  0  0  0  0  0  0  0  0  0  0
 16 17  1  0
  5 10  1  0
 17 18  2  0
 18 13  1  0
  6  7  1  0
 16 19  1  0
  7  8  1  0
 19 20  1  0
  8  9  1  0
 20 21  1  0
  9 10  1  0
 20 22  2  0
  5  6  1  0
  1 23  1  0
  8 11  1  0
 23 24  1  0
  2 25  1  0
 11 12  1  0
 25 26  1  0
  2  3  1  0
 21 27  2  0
 12 13  1  0
 27 28  1  0
  3  6  2  0
 28 29  2  0
 29 31  1  0
 30 21  1  0
 13 14  2  0
  1  2  2  0
 30 31  2  0
 14 15  1  0
 31 32  1  0
  5  4  2  0
 32 33  2  0
 15 16  2  0
 33 34  1  0
  4  1  1  0
 34 35  2  0
 35 30  1  0
M  END
>  <Classification>  (139) 
1

>  <pchembl>  (139) 
5.65

>  <InChI_steorem>  (139) 
InChI=1S/C29H29N3O3/c1-34-27-17-21-13-16-32(19-22(21)18-28(27)35-2)15-12-20-7-9-23(10-8-20)31-29(33)25-11-14-30-26-6-4-3-5-24(25)26/h3-11,14,17-18H,12-13,15-16,19H2,1-2H3,(H,31,33)

>  <source>  (139) 
ChEMBL25

>  <source_id>  (139) 
25

>  <optional_reference>  (139) 
10.1016/j.bmc.2007.11.057

>  <optional_origin>  (139) 
None

>  <target>  (139) 
MDR1

$$$$

     RDKit          2D

 35 39  0  0  0  0  0  0  0  0999 V2000
   -4.0379    1.6371    0.0000 C   0  0  0  0  0  0  0  0  0  0  0  0
   -4.0391    0.8100    0.0000 C   0  0  0  0  0  0  0  0  0  0  0  0
   -3.3245    0.3972    0.0000 C   0  0  0  0  0  0  0  0  0  0  0  0
   -3.3263    2.0498    0.0000 C   0  0  0  0  0  0  0  0  0  0  0  0
   -2.6111    1.6408    0.0000 C   0  0  0  0  0  0  0  0  0  0  0  0
   -2.6077    0.8079    0.0000 C   0  0  0  0  0  0  0  0  0  0  0  0
   -1.8886    0.3967    0.0000 C   0  0  0  0  0  0  0  0  0  0  0  0
   -1.1684    0.8138    0.0000 N   0  0  0  0  0  0  0  0  0  0  0  0
   -1.1718    1.6467    0.0000 C   0  0  0  0  0  0  0  0  0  0  0  0
   -1.8954    2.0625    0.0000 C   0  0  0  0  0  0  0  0  0  0  0  0
   -0.4530    0.4033    0.0000 C   0  0  0  0  0  0  0  0  0  0  0  0
    0.2601    0.8177    0.0000 C   0  0  0  0  0  0  0  0  0  0  0  0
    0.9756    0.4072    0.0000 C   0  0  0  0  0  0  0  0  0  0  0  0
    0.9743   -0.4177    0.0000 C   0  0  0  0  0  0  0  0  0  0  0  0
    1.6888   -0.8280    0.0000 C   0  0  0  0  0  0  0  0  0  0  0  0
    2.4030   -0.4136    0.0000 C   0  0  0  0  0  0  0  0  0  0  0  0
    2.3980    0.4154    0.0000 C   0  0  0  0  0  0  0  0  0  0  0  0
    1.6829    0.8221    0.0000 C   0  0  0  0  0  0  0  0  0  0  0  0
    3.1189   -0.8231    0.0000 N   0  0  0  0  0  0  0  0  0  0  0  0
    3.8316   -0.4078    0.0000 C   0  0  0  0  0  0  0  0  0  0  0  0
    4.5475   -0.8173    0.0000 C   0  0  0  0  0  0  0  0  0  0  0  0
    3.8282    0.4170    0.0000 O   0  0  0  0  0  0  0  0  0  0  0  0
    4.5495   -1.6423    0.0000 C   0  0  0  0  0  0  0  0  0  0  0  0
    5.2646   -2.0518    0.0000 N   0  0  0  0  0  0  0  0  0  0  0  0
    5.2565   -0.4017    0.0000 N   0  0  0  0  0  0  0  0  0  0  0  0
    5.9721   -0.8074    0.0000 C   0  0  0  0  0  0  0  0  0  0  0  0
    5.9751   -1.6353    0.0000 C   0  0  0  0  0  0  0  0  0  0  0  0
    6.6925   -2.0449    0.0000 C   0  0  0  0  0  0  0  0  0  0  0  0
    7.4073   -1.6277    0.0000 C   0  0  0  0  0  0  0  0  0  0  0  0
    7.4003   -0.7967    0.0000 C   0  0  0  0  0  0  0  0  0  0  0  0
    6.6825   -0.3908    0.0000 C   0  0  0  0  0  0  0  0  0  0  0  0
   -4.7523    2.0494    0.0000 O   0  0  0  0  0  0  0  0  0  0  0  0
   -4.7525    2.8742    0.0000 C   0  0  0  0  0  0  0  0  0  0  0  0
   -4.7537    0.3981    0.0000 O   0  0  0  0  0  0  0  0  0  0  0  0
   -5.4677    0.8111    0.0000 C   0  0  0  0  0  0  0  0  0  0  0  0
 16 17  1  0
  5 10  1  0
 17 18  2  0
 18 13  1  0
  6  7  1  0
 16 19  1  0
  7  8  1  0
 19 20  1  0
  8  9  1  0
 20 21  1  0
  9 10  1  0
 20 22  2  0
  5  6  1  0
 21 23  2  0
  8 11  1  0
 23 24  1  0
 24 27  2  0
 26 25  2  0
 25 21  1  0
 11 12  1  0
  2  3  1  0
 26 27  1  0
 12 13  1  0
 27 28  1  0
  3  6  2  0
 28 29  2  0
 13 14  2  0
 29 30  1  0
  1  2  2  0
 30 31  2  0
 31 26  1  0
 14 15  1  0
  1 32  1  0
  5  4  2  0
 32 33  1  0
 15 16  2  0
  2 34  1  0
  4  1  1  0
 34 35  1  0
M  END
>  <Classification>  (140) 
1

>  <pchembl>  (140) 
6.68

>  <InChI_steorem>  (140) 
InChI=1S/C28H28N4O3/c1-34-26-15-20-12-14-32(18-21(20)16-27(26)35-2)13-11-19-7-9-22(10-8-19)30-28(33)25-17-29-23-5-3-4-6-24(23)31-25/h3-10,15-17H,11-14,18H2,1-2H3,(H,30,33)

>  <source>  (140) 
ChEMBL25

>  <source_id>  (140) 
25

>  <optional_reference>  (140) 
10.1016/j.bmc.2007.11.057

>  <optional_origin>  (140) 
None

>  <target>  (140) 
MDR1

$$$$

     RDKit          2D

 35 39  0  0  0  0  0  0  0  0999 V2000
    6.0611    1.8209    0.0000 C   0  0  0  0  0  0  0  0  0  0  0  0
    6.0599    0.9935    0.0000 C   0  0  0  0  0  0  0  0  0  0  0  0
    6.7747    0.5806    0.0000 C   0  0  0  0  0  0  0  0  0  0  0  0
    6.7729    2.2336    0.0000 C   0  0  0  0  0  0  0  0  0  0  0  0
    7.4883    1.8245    0.0000 C   0  0  0  0  0  0  0  0  0  0  0  0
    7.4917    0.9914    0.0000 C   0  0  0  0  0  0  0  0  0  0  0  0
    8.2109    0.5801    0.0000 C   0  0  0  0  0  0  0  0  0  0  0  0
    8.9313    0.9973    0.0000 N   0  0  0  0  0  0  0  0  0  0  0  0
    8.9279    1.8304    0.0000 C   0  0  0  0  0  0  0  0  0  0  0  0
    8.2041    2.2463    0.0000 C   0  0  0  0  0  0  0  0  0  0  0  0
    9.6469    0.5868    0.0000 C   0  0  0  0  0  0  0  0  0  0  0  0
   10.3602    1.0012    0.0000 C   0  0  0  0  0  0  0  0  0  0  0  0
   11.0758    0.5907    0.0000 C   0  0  0  0  0  0  0  0  0  0  0  0
   11.0745   -0.2344    0.0000 C   0  0  0  0  0  0  0  0  0  0  0  0
   11.7892   -0.6449    0.0000 C   0  0  0  0  0  0  0  0  0  0  0  0
   12.5036   -0.2304    0.0000 C   0  0  0  0  0  0  0  0  0  0  0  0
   12.4986    0.5989    0.0000 C   0  0  0  0  0  0  0  0  0  0  0  0
   11.7833    1.0056    0.0000 C   0  0  0  0  0  0  0  0  0  0  0  0
   13.2197   -0.6400    0.0000 N   0  0  0  0  0  0  0  0  0  0  0  0
   13.9325   -0.2246    0.0000 C   0  0  0  0  0  0  0  0  0  0  0  0
   14.6486   -0.6342    0.0000 C   0  0  0  0  0  0  0  0  0  0  0  0
   13.9291    0.6004    0.0000 O   0  0  0  0  0  0  0  0  0  0  0  0
    5.3465    2.2332    0.0000 O   0  0  0  0  0  0  0  0  0  0  0  0
    5.3463    3.0582    0.0000 C   0  0  0  0  0  0  0  0  0  0  0  0
    5.3451    0.5816    0.0000 O   0  0  0  0  0  0  0  0  0  0  0  0
    4.6310    0.9946    0.0000 C   0  0  0  0  0  0  0  0  0  0  0  0
   14.6506   -1.4594    0.0000 C   0  0  0  0  0  0  0  0  0  0  0  0
   15.3659   -1.8689    0.0000 C   0  0  0  0  0  0  0  0  0  0  0  0
   16.0796   -1.4535    0.0000 C   0  0  0  0  0  0  0  0  0  0  0  0
   15.3578   -0.2184    0.0000 C   0  0  0  0  0  0  0  0  0  0  0  0
   16.0721   -0.6248    0.0000 C   0  0  0  0  0  0  0  0  0  0  0  0
   16.7790   -0.2094    0.0000 C   0  0  0  0  0  0  0  0  0  0  0  0
   16.7728    0.6122    0.0000 C   0  0  0  0  0  0  0  0  0  0  0  0
   16.0538    1.0166    0.0000 C   0  0  0  0  0  0  0  0  0  0  0  0
   15.3498    0.5989    0.0000 C   0  0  0  0  0  0  0  0  0  0  0  0
 16 17  1  0
  5 10  1  0
 17 18  2  0
 18 13  1  0
  6  7  1  0
 16 19  1  0
  7  8  1  0
 19 20  1  0
  8  9  1  0
 20 21  1  0
  9 10  1  0
 20 22  2  0
  5  6  1  0
  1 23  1  0
  8 11  1  0
 23 24  1  0
  2 25  1  0
 11 12  1  0
 25 26  1  0
  2  3  1  0
 21 27  2  0
 12 13  1  0
 27 28  1  0
  3  6  2  0
 28 29  2  0
 29 31  1  0
 30 21  1  0
 13 14  2  0
  1  2  2  0
 30 31  2  0
 14 15  1  0
 31 32  1  0
  5  4  2  0
 32 33  2  0
 15 16  2  0
 33 34  1  0
  4  1  1  0
 34 35  2  0
 35 30  1  0
M  END
>  <Classification>  (141) 
1

>  <pchembl>  (141) 
5.73

>  <InChI_steorem>  (141) 
InChI=1S/C30H30N2O3/c1-34-28-18-23-15-17-32(20-24(23)19-29(28)35-2)16-14-21-10-12-25(13-11-21)31-30(33)27-9-5-7-22-6-3-4-8-26(22)27/h3-13,18-19H,14-17,20H2,1-2H3,(H,31,33)

>  <source>  (141) 
ChEMBL25

>  <source_id>  (141) 
25

>  <optional_reference>  (141) 
10.1016/j.bmc.2007.11.057

>  <optional_origin>  (141) 
None

>  <target>  (141) 
MDR1

$$$$

     RDKit          2D

 35 39  0  0  0  0  0  0  0  0999 V2000
   -6.3182   -1.5788    0.0000 C   0  0  0  0  0  0  0  0  0  0  0  0
   -6.3170   -2.4061    0.0000 C   0  0  0  0  0  0  0  0  0  0  0  0
   -5.5993   -2.8189    0.0000 C   0  0  0  0  0  0  0  0  0  0  0  0
   -5.6011   -1.1662    0.0000 C   0  0  0  0  0  0  0  0  0  0  0  0
   -4.8858   -1.5752    0.0000 C   0  0  0  0  0  0  0  0  0  0  0  0
   -4.8824   -2.4082    0.0000 C   0  0  0  0  0  0  0  0  0  0  0  0
   -4.1633   -2.8194    0.0000 C   0  0  0  0  0  0  0  0  0  0  0  0
   -3.4431   -2.4023    0.0000 N   0  0  0  0  0  0  0  0  0  0  0  0
   -3.4465   -1.5693    0.0000 C   0  0  0  0  0  0  0  0  0  0  0  0
   -4.1701   -1.1535    0.0000 C   0  0  0  0  0  0  0  0  0  0  0  0
   -2.7276   -2.8127    0.0000 C   0  0  0  0  0  0  0  0  0  0  0  0
   -2.0144   -2.3984    0.0000 C   0  0  0  0  0  0  0  0  0  0  0  0
   -1.2990   -2.8088    0.0000 C   0  0  0  0  0  0  0  0  0  0  0  0
   -1.3003   -3.6337    0.0000 C   0  0  0  0  0  0  0  0  0  0  0  0
   -0.5857   -4.0442    0.0000 C   0  0  0  0  0  0  0  0  0  0  0  0
    0.1286   -3.6297    0.0000 C   0  0  0  0  0  0  0  0  0  0  0  0
    0.1236   -2.8006    0.0000 C   0  0  0  0  0  0  0  0  0  0  0  0
   -0.5916   -2.3940    0.0000 C   0  0  0  0  0  0  0  0  0  0  0  0
    0.8445   -4.0393    0.0000 N   0  0  0  0  0  0  0  0  0  0  0  0
    1.5572   -3.6239    0.0000 C   0  0  0  0  0  0  0  0  0  0  0  0
    2.2732   -4.0335    0.0000 C   0  0  0  0  0  0  0  0  0  0  0  0
    1.5538   -2.7991    0.0000 O   0  0  0  0  0  0  0  0  0  0  0  0
    2.2752   -4.8585    0.0000 C   0  0  0  0  0  0  0  0  0  0  0  0
    2.9904   -5.2679    0.0000 C   0  0  0  0  0  0  0  0  0  0  0  0
    2.9823   -3.6177    0.0000 C   0  0  0  0  0  0  0  0  0  0  0  0
    3.6979   -4.0235    0.0000 C   0  0  0  0  0  0  0  0  0  0  0  0
    3.7009   -4.8514    0.0000 C   0  0  0  0  0  0  0  0  0  0  0  0
    4.4183   -5.2610    0.0000 C   0  0  0  0  0  0  0  0  0  0  0  0
    5.1332   -4.8439    0.0000 C   0  0  0  0  0  0  0  0  0  0  0  0
    5.1262   -4.0128    0.0000 C   0  0  0  0  0  0  0  0  0  0  0  0
    4.4083   -3.6069    0.0000 C   0  0  0  0  0  0  0  0  0  0  0  0
   -7.0285   -1.1666    0.0000 O   0  0  0  0  0  0  0  0  0  0  0  0
   -7.0283   -0.3417    0.0000 C   0  0  0  0  0  0  0  0  0  0  0  0
   -7.0355   -2.8179    0.0000 O   0  0  0  0  0  0  0  0  0  0  0  0
   -7.7462   -2.4050    0.0000 C   0  0  0  0  0  0  0  0  0  0  0  0
 16 17  1  0
  5 10  1  0
 17 18  2  0
 18 13  1  0
  6  7  1  0
 16 19  1  0
  7  8  1  0
 19 20  1  0
  8  9  1  0
 20 21  1  0
  9 10  1  0
 20 22  2  0
  5  6  1  0
 21 23  2  0
  8 11  1  0
 23 24  1  0
 24 27  2  0
 26 25  2  0
 25 21  1  0
 11 12  1  0
  2  3  1  0
 26 27  1  0
 12 13  1  0
 27 28  1  0
  3  6  2  0
 28 29  2  0
 13 14  2  0
 29 30  1  0
  1  2  2  0
 30 31  2  0
 31 26  1  0
 14 15  1  0
  1 32  1  0
  5  4  2  0
 32 33  1  0
 15 16  2  0
  2 34  1  0
  4  1  1  0
 34 35  1  0
M  END
>  <Classification>  (142) 
1

>  <pchembl>  (142) 
6.11

>  <InChI_steorem>  (142) 
InChI=1S/C30H30N2O3/c1-34-28-18-24-14-16-32(20-26(24)19-29(28)35-2)15-13-21-7-11-27(12-8-21)31-30(33)25-10-9-22-5-3-4-6-23(22)17-25/h3-12,17-19H,13-16,20H2,1-2H3,(H,31,33)

>  <source>  (142) 
ChEMBL25

>  <source_id>  (142) 
25

>  <optional_reference>  (142) 
10.1016/j.bmc.2007.11.057

>  <optional_origin>  (142) 
None

>  <target>  (142) 
MDR1

$$$$

     RDKit          2D

 35 39  0  0  0  0  0  0  0  0999 V2000
    7.4477  -16.2146    0.0000 C   0  0  0  0  0  0  0  0  0  0  0  0
    7.4465  -17.0419    0.0000 C   0  0  0  0  0  0  0  0  0  0  0  0
    8.1612  -17.4548    0.0000 C   0  0  0  0  0  0  0  0  0  0  0  0
    8.1594  -15.8020    0.0000 C   0  0  0  0  0  0  0  0  0  0  0  0
    8.8747  -16.2110    0.0000 C   0  0  0  0  0  0  0  0  0  0  0  0
    8.8781  -17.0440    0.0000 C   0  0  0  0  0  0  0  0  0  0  0  0
    9.5972  -17.4553    0.0000 C   0  0  0  0  0  0  0  0  0  0  0  0
   10.3175  -17.0381    0.0000 N   0  0  0  0  0  0  0  0  0  0  0  0
   10.3141  -16.2051    0.0000 C   0  0  0  0  0  0  0  0  0  0  0  0
    9.5904  -15.7893    0.0000 C   0  0  0  0  0  0  0  0  0  0  0  0
    6.7332  -15.8024    0.0000 O   0  0  0  0  0  0  0  0  0  0  0  0
    6.7330  -14.9775    0.0000 C   0  0  0  0  0  0  0  0  0  0  0  0
    6.7318  -17.4538    0.0000 O   0  0  0  0  0  0  0  0  0  0  0  0
    6.7344  -18.2756    0.0000 C   0  0  0  0  0  0  0  0  0  0  0  0
   11.0330  -17.4486    0.0000 C   0  0  0  0  0  0  0  0  0  0  0  0
   11.7463  -17.0342    0.0000 C   0  0  0  0  0  0  0  0  0  0  0  0
   12.4618  -17.4447    0.0000 C   0  0  0  0  0  0  0  0  0  0  0  0
   12.4605  -18.2697    0.0000 C   0  0  0  0  0  0  0  0  0  0  0  0
   13.1751  -18.6801    0.0000 C   0  0  0  0  0  0  0  0  0  0  0  0
   13.8894  -18.2657    0.0000 C   0  0  0  0  0  0  0  0  0  0  0  0
   13.8844  -17.4365    0.0000 C   0  0  0  0  0  0  0  0  0  0  0  0
   13.1692  -17.0298    0.0000 C   0  0  0  0  0  0  0  0  0  0  0  0
   14.6054  -18.6752    0.0000 N   0  0  0  0  0  0  0  0  0  0  0  0
   15.3181  -18.2599    0.0000 C   0  0  0  0  0  0  0  0  0  0  0  0
   16.0341  -18.6694    0.0000 C   0  0  0  0  0  0  0  0  0  0  0  0
   15.3147  -17.4350    0.0000 O   0  0  0  0  0  0  0  0  0  0  0  0
   16.0361  -19.4945    0.0000 C   0  0  0  0  0  0  0  0  0  0  0  0
   16.7513  -19.9040    0.0000 N   0  0  0  0  0  0  0  0  0  0  0  0
   16.7432  -18.2537    0.0000 C   0  0  0  0  0  0  0  0  0  0  0  0
   17.4590  -18.6594    0.0000 C   0  0  0  0  0  0  0  0  0  0  0  0
   17.4620  -19.4874    0.0000 C   0  0  0  0  0  0  0  0  0  0  0  0
   18.1794  -19.8971    0.0000 C   0  0  0  0  0  0  0  0  0  0  0  0
   18.8943  -19.4799    0.0000 C   0  0  0  0  0  0  0  0  0  0  0  0
   18.8873  -18.6487    0.0000 C   0  0  0  0  0  0  0  0  0  0  0  0
   18.1694  -18.2429    0.0000 C   0  0  0  0  0  0  0  0  0  0  0  0
 16 17  1  0
  5 10  1  0
 17 18  2  0
  6  7  1  0
 18 19  1  0
  7  8  1  0
 19 20  2  0
  8  9  1  0
 20 21  1  0
  9 10  1  0
 21 22  2  0
 22 17  1  0
  5  6  1  0
 20 23  1  0
  1 11  1  0
 23 24  1  0
 24 25  1  0
 11 12  1  0
 24 26  2  0
  2  3  1  0
 25 27  2  0
  2 13  1  0
 27 28  1  0
 28 31  2  0
  3  6  2  0
 30 29  2  0
 29 25  1  0
 14 13  1  0
  1  2  2  0
 30 31  1  0
  8 15  1  0
 31 32  1  0
  5  4  2  0
 32 33  2  0
 15 16  1  0
 33 34  1  0
  4  1  1  0
 34 35  2  0
 35 30  1  0
M  END
>  <Classification>  (143) 
1

>  <pchembl>  (143) 
6.84

>  <InChI_steorem>  (143) 
InChI=1S/C29H29N3O3/c1-34-27-16-21-12-14-32(19-24(21)17-28(27)35-2)13-11-20-7-9-25(10-8-20)31-29(33)23-15-22-5-3-4-6-26(22)30-18-23/h3-10,15-18H,11-14,19H2,1-2H3,(H,31,33)

>  <source>  (143) 
ChEMBL25

>  <source_id>  (143) 
25

>  <optional_reference>  (143) 
10.1016/j.bmc.2007.11.057

>  <optional_origin>  (143) 
None

>  <target>  (143) 
MDR1

$$$$

     RDKit          2D

 35 39  0  0  0  0  0  0  0  0999 V2000
    9.0183  -19.6601    0.0000 C   0  0  0  0  0  0  0  0  0  0  0  0
    9.0171  -20.4873    0.0000 C   0  0  0  0  0  0  0  0  0  0  0  0
    9.7319  -20.9001    0.0000 C   0  0  0  0  0  0  0  0  0  0  0  0
    9.7301  -19.2473    0.0000 C   0  0  0  0  0  0  0  0  0  0  0  0
   10.4453  -19.6564    0.0000 C   0  0  0  0  0  0  0  0  0  0  0  0
   10.4488  -20.4894    0.0000 C   0  0  0  0  0  0  0  0  0  0  0  0
   11.1678  -20.9006    0.0000 C   0  0  0  0  0  0  0  0  0  0  0  0
   11.8881  -20.4835    0.0000 N   0  0  0  0  0  0  0  0  0  0  0  0
   11.8847  -19.6505    0.0000 C   0  0  0  0  0  0  0  0  0  0  0  0
   11.1610  -19.2346    0.0000 C   0  0  0  0  0  0  0  0  0  0  0  0
   12.6037  -20.8940    0.0000 C   0  0  0  0  0  0  0  0  0  0  0  0
   13.3170  -20.4796    0.0000 C   0  0  0  0  0  0  0  0  0  0  0  0
   14.0325  -20.8901    0.0000 C   0  0  0  0  0  0  0  0  0  0  0  0
   14.0311  -21.7151    0.0000 C   0  0  0  0  0  0  0  0  0  0  0  0
   14.7458  -22.1255    0.0000 C   0  0  0  0  0  0  0  0  0  0  0  0
   15.4600  -21.7110    0.0000 C   0  0  0  0  0  0  0  0  0  0  0  0
   15.4551  -20.8819    0.0000 C   0  0  0  0  0  0  0  0  0  0  0  0
   14.7399  -20.4752    0.0000 C   0  0  0  0  0  0  0  0  0  0  0  0
   16.1760  -22.1206    0.0000 N   0  0  0  0  0  0  0  0  0  0  0  0
   16.8887  -21.7052    0.0000 C   0  0  0  0  0  0  0  0  0  0  0  0
   17.6047  -22.1148    0.0000 C   0  0  0  0  0  0  0  0  0  0  0  0
   16.8854  -20.8803    0.0000 O   0  0  0  0  0  0  0  0  0  0  0  0
   17.6067  -22.9399    0.0000 C   0  0  0  0  0  0  0  0  0  0  0  0
   18.3220  -23.3494    0.0000 C   0  0  0  0  0  0  0  0  0  0  0  0
   18.3139  -21.6991    0.0000 N   0  0  0  0  0  0  0  0  0  0  0  0
   19.0297  -22.1049    0.0000 C   0  0  0  0  0  0  0  0  0  0  0  0
   19.0326  -22.9329    0.0000 C   0  0  0  0  0  0  0  0  0  0  0  0
   19.7500  -23.3425    0.0000 C   0  0  0  0  0  0  0  0  0  0  0  0
   20.4649  -22.9253    0.0000 C   0  0  0  0  0  0  0  0  0  0  0  0
   20.4579  -22.0942    0.0000 C   0  0  0  0  0  0  0  0  0  0  0  0
   19.7400  -21.6882    0.0000 C   0  0  0  0  0  0  0  0  0  0  0  0
    8.3038  -19.2477    0.0000 O   0  0  0  0  0  0  0  0  0  0  0  0
    8.3036  -18.4228    0.0000 C   0  0  0  0  0  0  0  0  0  0  0  0
    8.3024  -20.8992    0.0000 O   0  0  0  0  0  0  0  0  0  0  0  0
    7.5884  -20.4862    0.0000 C   0  0  0  0  0  0  0  0  0  0  0  0
 16 17  1  0
  5 10  1  0
 17 18  2  0
 18 13  1  0
  6  7  1  0
 16 19  1  0
  7  8  1  0
 19 20  1  0
  8  9  1  0
 20 21  1  0
  9 10  1  0
 20 22  2  0
  5  6  1  0
 21 23  2  0
  8 11  1  0
 23 24  1  0
 24 27  2  0
 26 25  2  0
 25 21  1  0
 11 12  1  0
  2  3  1  0
 26 27  1  0
 12 13  1  0
 27 28  1  0
  3  6  2  0
 28 29  2  0
 13 14  2  0
 29 30  1  0
  1  2  2  0
 30 31  2  0
 31 26  1  0
 14 15  1  0
  1 32  1  0
  5  4  2  0
 32 33  1  0
 15 16  2  0
  2 34  1  0
  4  1  1  0
 34 35  1  0
M  END
>  <Classification>  (144) 
1

>  <pchembl>  (144) 
6.07

>  <InChI_steorem>  (144) 
InChI=1S/C29H29N3O3/c1-34-27-17-22-14-16-32(19-23(22)18-28(27)35-2)15-13-20-7-10-24(11-8-20)30-29(33)26-12-9-21-5-3-4-6-25(21)31-26/h3-12,17-18H,13-16,19H2,1-2H3,(H,30,33)

>  <source>  (144) 
ChEMBL25

>  <source_id>  (144) 
25

>  <optional_reference>  (144) 
10.1016/j.bmc.2009.01.072

>  <optional_origin>  (144) 
None

>  <target>  (144) 
MDR1

$$$$

     RDKit          2D

 35 39  0  0  0  0  0  0  0  0999 V2000
    9.0861  -22.6916    0.0000 C   0  0  0  0  0  0  0  0  0  0  0  0
    9.0849  -23.5190    0.0000 C   0  0  0  0  0  0  0  0  0  0  0  0
    9.7997  -23.9319    0.0000 C   0  0  0  0  0  0  0  0  0  0  0  0
    9.7979  -22.2789    0.0000 C   0  0  0  0  0  0  0  0  0  0  0  0
   10.5133  -22.6880    0.0000 C   0  0  0  0  0  0  0  0  0  0  0  0
   10.5167  -23.5211    0.0000 C   0  0  0  0  0  0  0  0  0  0  0  0
   11.2359  -23.9324    0.0000 C   0  0  0  0  0  0  0  0  0  0  0  0
   11.9563  -23.5152    0.0000 N   0  0  0  0  0  0  0  0  0  0  0  0
   11.9529  -22.6821    0.0000 C   0  0  0  0  0  0  0  0  0  0  0  0
   11.2291  -22.2662    0.0000 C   0  0  0  0  0  0  0  0  0  0  0  0
   12.6719  -23.9257    0.0000 C   0  0  0  0  0  0  0  0  0  0  0  0
   13.3852  -23.5113    0.0000 C   0  0  0  0  0  0  0  0  0  0  0  0
   14.1008  -23.9218    0.0000 C   0  0  0  0  0  0  0  0  0  0  0  0
   14.0995  -24.7469    0.0000 C   0  0  0  0  0  0  0  0  0  0  0  0
   14.8142  -25.1574    0.0000 C   0  0  0  0  0  0  0  0  0  0  0  0
   15.5286  -24.7429    0.0000 C   0  0  0  0  0  0  0  0  0  0  0  0
   15.5236  -23.9136    0.0000 C   0  0  0  0  0  0  0  0  0  0  0  0
   14.8083  -23.5069    0.0000 C   0  0  0  0  0  0  0  0  0  0  0  0
   16.2447  -25.1525    0.0000 N   0  0  0  0  0  0  0  0  0  0  0  0
   16.9575  -24.7371    0.0000 C   0  0  0  0  0  0  0  0  0  0  0  0
   17.6736  -25.1467    0.0000 C   0  0  0  0  0  0  0  0  0  0  0  0
   16.9541  -23.9121    0.0000 O   0  0  0  0  0  0  0  0  0  0  0  0
   17.6756  -25.9719    0.0000 C   0  0  0  0  0  0  0  0  0  0  0  0
   18.3909  -26.3814    0.0000 C   0  0  0  0  0  0  0  0  0  0  0  0
   18.3828  -24.7309    0.0000 C   0  0  0  0  0  0  0  0  0  0  0  0
   19.0986  -25.1367    0.0000 C   0  0  0  0  0  0  0  0  0  0  0  0
   19.1016  -25.9648    0.0000 C   0  0  0  0  0  0  0  0  0  0  0  0
   19.8191  -26.3745    0.0000 N   0  0  0  0  0  0  0  0  0  0  0  0
   20.5341  -25.9573    0.0000 C   0  0  0  0  0  0  0  0  0  0  0  0
   20.5271  -25.1260    0.0000 C   0  0  0  0  0  0  0  0  0  0  0  0
   19.8091  -24.7201    0.0000 C   0  0  0  0  0  0  0  0  0  0  0  0
    8.3715  -22.2793    0.0000 O   0  0  0  0  0  0  0  0  0  0  0  0
    8.3713  -21.4543    0.0000 C   0  0  0  0  0  0  0  0  0  0  0  0
    8.3701  -23.9309    0.0000 O   0  0  0  0  0  0  0  0  0  0  0  0
    7.6560  -23.5179    0.0000 C   0  0  0  0  0  0  0  0  0  0  0  0
 16 17  1  0
  5 10  1  0
 17 18  2  0
 18 13  1  0
  6  7  1  0
 16 19  1  0
  7  8  1  0
 19 20  1  0
  8  9  1  0
 20 21  1  0
  9 10  1  0
 20 22  2  0
  5  6  1  0
 21 23  2  0
  8 11  1  0
 23 24  1  0
 24 27  2  0
 26 25  2  0
 25 21  1  0
 11 12  1  0
  2  3  1  0
 26 27  1  0
 12 13  1  0
 27 28  1  0
  3  6  2  0
 28 29  2  0
 13 14  2  0
 29 30  1  0
  1  2  2  0
 30 31  2  0
 31 26  1  0
 14 15  1  0
  1 32  1  0
  5  4  2  0
 32 33  1  0
 15 16  2  0
  2 34  1  0
  4  1  1  0
 34 35  1  0
M  END
>  <Classification>  (145) 
1

>  <pchembl>  (145) 
6.13

>  <InChI_steorem>  (145) 
InChI=1S/C29H29N3O3/c1-34-27-17-21-12-15-32(19-24(21)18-28(27)35-2)14-11-20-5-8-25(9-6-20)31-29(33)23-7-10-26-22(16-23)4-3-13-30-26/h3-10,13,16-18H,11-12,14-15,19H2,1-2H3,(H,31,33)

>  <source>  (145) 
ChEMBL25

>  <source_id>  (145) 
25

>  <optional_reference>  (145) 
10.1016/j.bmc.2007.11.057

>  <optional_origin>  (145) 
None

>  <target>  (145) 
MDR1

$$$$

     RDKit          2D

 36 39  0  0  0  0  0  0  0  0999 V2000
    6.3023    2.0333    0.0000 C   0  0  0  0  0  0  0  0  0  0  0  0
    6.3012    1.2059    0.0000 C   0  0  0  0  0  0  0  0  0  0  0  0
    7.0159    0.7930    0.0000 C   0  0  0  0  0  0  0  0  0  0  0  0
    7.0141    2.4459    0.0000 C   0  0  0  0  0  0  0  0  0  0  0  0
    7.7295    2.0369    0.0000 C   0  0  0  0  0  0  0  0  0  0  0  0
    7.7329    1.2038    0.0000 C   0  0  0  0  0  0  0  0  0  0  0  0
    8.4520    0.7925    0.0000 C   0  0  0  0  0  0  0  0  0  0  0  0
    9.1724    1.2097    0.0000 N   0  0  0  0  0  0  0  0  0  0  0  0
    9.1689    2.0428    0.0000 C   0  0  0  0  0  0  0  0  0  0  0  0
    8.4451    2.4586    0.0000 C   0  0  0  0  0  0  0  0  0  0  0  0
    9.8879    0.7992    0.0000 C   0  0  0  0  0  0  0  0  0  0  0  0
   10.6012    1.2136    0.0000 C   0  0  0  0  0  0  0  0  0  0  0  0
   11.3168    0.8031    0.0000 C   0  0  0  0  0  0  0  0  0  0  0  0
   11.3154   -0.0219    0.0000 C   0  0  0  0  0  0  0  0  0  0  0  0
   12.0301   -0.4324    0.0000 C   0  0  0  0  0  0  0  0  0  0  0  0
   12.7444   -0.0179    0.0000 C   0  0  0  0  0  0  0  0  0  0  0  0
   12.7395    0.8113    0.0000 C   0  0  0  0  0  0  0  0  0  0  0  0
   12.0242    1.2180    0.0000 C   0  0  0  0  0  0  0  0  0  0  0  0
   13.4605   -0.4275    0.0000 N   0  0  0  0  0  0  0  0  0  0  0  0
   14.1732   -0.0121    0.0000 C   0  0  0  0  0  0  0  0  0  0  0  0
   14.8893   -0.4217    0.0000 C   0  0  0  0  0  0  0  0  0  0  0  0
   14.1699    0.8128    0.0000 O   0  0  0  0  0  0  0  0  0  0  0  0
    5.5878    2.4455    0.0000 O   0  0  0  0  0  0  0  0  0  0  0  0
    5.5876    3.2705    0.0000 C   0  0  0  0  0  0  0  0  0  0  0  0
    5.5864    0.7940    0.0000 O   0  0  0  0  0  0  0  0  0  0  0  0
    4.8723    1.2070    0.0000 C   0  0  0  0  0  0  0  0  0  0  0  0
   15.6021   -0.0063    0.0000 O   0  0  0  0  0  0  0  0  0  0  0  0
   16.3181   -0.4159    0.0000 C   0  0  0  0  0  0  0  0  0  0  0  0
   16.3161   -1.2385    0.0000 C   0  0  0  0  0  0  0  0  0  0  0  0
   17.0314   -1.6480    0.0000 C   0  0  0  0  0  0  0  0  0  0  0  0
   17.7451   -1.2326    0.0000 C   0  0  0  0  0  0  0  0  0  0  0  0
   17.7391   -0.4034    0.0000 C   0  0  0  0  0  0  0  0  0  0  0  0
   17.0233    0.0024    0.0000 C   0  0  0  0  0  0  0  0  0  0  0  0
   17.0125    0.8310    0.0000 N   0  0  0  0  0  0  0  0  0  0  0  0
   16.2940    1.2365    0.0000 O   0  0  0  0  0  0  0  0  0  0  0  0
   17.7228    1.2505    0.0000 O   0  0  0  0  0  0  0  0  0  0  0  0
  5 10  1  0
 17 18  2  0
 18 13  1  0
  6  7  1  0
 16 19  1  0
  7  8  1  0
 19 20  1  0
  8  9  1  0
 20 21  1  0
  9 10  1  0
 20 22  2  0
  5  6  1  0
  1 23  1  0
  8 11  1  0
 23 24  1  0
  2 25  1  0
 11 12  1  0
 25 26  1  0
  2  3  1  0
 21 27  1  0
 12 13  1  0
 27 28  1  0
  3  6  2  0
 28 29  2  0
 13 14  2  0
 29 30  1  0
  1  2  2  0
 30 31  2  0
 14 15  1  0
 31 32  1  0
  5  4  2  0
 32 33  2  0
 33 28  1  0
 15 16  2  0
  4  1  1  0
 16 17  1  0
 34 35  2  0
 34 36  1  0
 33 34  1  0
M  CHG  2  34   1  36  -1
M  END
>  <Classification>  (146) 
1

>  <pchembl>  (146) 
6.66

>  <InChI_steorem>  (146) 
InChI=1S/C27H29N3O6/c1-34-25-15-20-12-14-29(17-21(20)16-26(25)35-2)13-11-19-7-9-22(10-8-19)28-27(31)18-36-24-6-4-3-5-23(24)30(32)33/h3-10,15-16H,11-14,17-18H2,1-2H3,(H,28,31)

>  <source>  (146) 
ChEMBL25

>  <source_id>  (146) 
25

>  <optional_reference>  (146) 
10.1016/j.bmc.2009.01.072

>  <optional_origin>  (146) 
None

>  <target>  (146) 
MDR1

$$$$

     RDKit          2D

 36 39  0  0  0  0  0  0  0  0999 V2000
    6.6523  -19.1320    0.0000 C   0  0  0  0  0  0  0  0  0  0  0  0
    6.6512  -19.9594    0.0000 C   0  0  0  0  0  0  0  0  0  0  0  0
    7.3659  -20.3722    0.0000 C   0  0  0  0  0  0  0  0  0  0  0  0
    7.3641  -18.7193    0.0000 C   0  0  0  0  0  0  0  0  0  0  0  0
    8.0795  -19.1284    0.0000 C   0  0  0  0  0  0  0  0  0  0  0  0
    8.0829  -19.9614    0.0000 C   0  0  0  0  0  0  0  0  0  0  0  0
    8.8020  -20.3727    0.0000 C   0  0  0  0  0  0  0  0  0  0  0  0
    9.5224  -19.9555    0.0000 N   0  0  0  0  0  0  0  0  0  0  0  0
    9.5189  -19.1225    0.0000 C   0  0  0  0  0  0  0  0  0  0  0  0
    8.7951  -18.7067    0.0000 C   0  0  0  0  0  0  0  0  0  0  0  0
   10.2379  -20.3661    0.0000 C   0  0  0  0  0  0  0  0  0  0  0  0
   10.9512  -19.9516    0.0000 C   0  0  0  0  0  0  0  0  0  0  0  0
   11.6667  -20.3622    0.0000 C   0  0  0  0  0  0  0  0  0  0  0  0
   11.6653  -21.1872    0.0000 C   0  0  0  0  0  0  0  0  0  0  0  0
   12.3801  -21.5977    0.0000 C   0  0  0  0  0  0  0  0  0  0  0  0
   13.0943  -21.1832    0.0000 C   0  0  0  0  0  0  0  0  0  0  0  0
   13.0894  -20.3540    0.0000 C   0  0  0  0  0  0  0  0  0  0  0  0
   12.3742  -19.9473    0.0000 C   0  0  0  0  0  0  0  0  0  0  0  0
   13.8105  -21.5928    0.0000 N   0  0  0  0  0  0  0  0  0  0  0  0
   14.5231  -21.1774    0.0000 C   0  0  0  0  0  0  0  0  0  0  0  0
   15.2393  -21.5870    0.0000 C   0  0  0  0  0  0  0  0  0  0  0  0
   14.5198  -20.3525    0.0000 O   0  0  0  0  0  0  0  0  0  0  0  0
   15.2412  -22.4121    0.0000 C   0  0  0  0  0  0  0  0  0  0  0  0
   15.9564  -22.8216    0.0000 C   0  0  0  0  0  0  0  0  0  0  0  0
    5.9378  -18.7198    0.0000 O   0  0  0  0  0  0  0  0  0  0  0  0
    5.9376  -17.8948    0.0000 C   0  0  0  0  0  0  0  0  0  0  0  0
    5.9364  -20.3713    0.0000 O   0  0  0  0  0  0  0  0  0  0  0  0
    5.2223  -19.9582    0.0000 C   0  0  0  0  0  0  0  0  0  0  0  0
   15.9574  -23.6445    0.0000 C   0  0  0  0  0  0  0  0  0  0  0  0
   16.6719  -24.0540    0.0000 C   0  0  0  0  0  0  0  0  0  0  0  0
   17.3852  -23.6392    0.0000 C   0  0  0  0  0  0  0  0  0  0  0  0
   17.3795  -22.8109    0.0000 C   0  0  0  0  0  0  0  0  0  0  0  0
   16.6645  -22.4051    0.0000 C   0  0  0  0  0  0  0  0  0  0  0  0
   16.6586  -21.5774    0.0000 N   0  0  0  0  0  0  0  0  0  0  0  0
   15.9410  -21.1705    0.0000 O   0  0  0  0  0  0  0  0  0  0  0  0
   17.3698  -21.1594    0.0000 O   0  0  0  0  0  0  0  0  0  0  0  0
  5 10  1  0
 17 18  2  0
 18 13  1  0
  6  7  1  0
 16 19  1  0
  7  8  1  0
 19 20  1  0
  8  9  1  0
 20 21  1  0
  9 10  1  0
 20 22  2  0
  5  6  1  0
 21 23  2  3
  8 11  1  0
 23 24  1  0
  1 25  1  0
 11 12  1  0
 25 26  1  0
  2  3  1  0
  2 27  1  0
 12 13  1  0
 27 28  1  0
  3  6  2  0
 24 29  2  0
 13 14  2  0
 29 30  1  0
  1  2  2  0
 30 31  2  0
 14 15  1  0
 31 32  1  0
  5  4  2  0
 32 33  2  0
 33 24  1  0
 15 16  2  0
  4  1  1  0
 16 17  1  0
 34 35  2  0
 34 36  1  0
 33 34  1  0
M  CHG  2  34   1  36  -1
M  END
>  <Classification>  (147) 
1

>  <pchembl>  (147) 
5.96

>  <InChI_steorem>  (147) 
InChI=1S/C28H29N3O5/c1-35-26-17-22-14-16-30(19-23(22)18-27(26)36-2)15-13-20-7-10-24(11-8-20)29-28(32)12-9-21-5-3-4-6-25(21)31(33)34/h3-12,17-18H,13-16,19H2,1-2H3,(H,29,32)

>  <source>  (147) 
ChEMBL25

>  <source_id>  (147) 
25

>  <optional_reference>  (147) 
10.1016/j.bmc.2009.01.072

>  <optional_origin>  (147) 
None

>  <target>  (147) 
MDR1

$$$$

     RDKit          2D

 38 41  0  0  0  0  0  0  0  0999 V2000
   -5.5926  -12.7613    0.0000 C   0  0  0  0  0  0  0  0  0  0  0  0
   -5.5938  -13.5886    0.0000 C   0  0  0  0  0  0  0  0  0  0  0  0
   -4.8790  -14.0014    0.0000 C   0  0  0  0  0  0  0  0  0  0  0  0
   -4.8808  -12.3486    0.0000 C   0  0  0  0  0  0  0  0  0  0  0  0
   -4.1655  -12.7576    0.0000 C   0  0  0  0  0  0  0  0  0  0  0  0
   -4.1620  -13.5907    0.0000 C   0  0  0  0  0  0  0  0  0  0  0  0
   -3.4430  -14.0019    0.0000 C   0  0  0  0  0  0  0  0  0  0  0  0
   -2.7227  -13.5848    0.0000 N   0  0  0  0  0  0  0  0  0  0  0  0
   -2.7261  -12.7517    0.0000 C   0  0  0  0  0  0  0  0  0  0  0  0
   -3.4498  -12.3359    0.0000 C   0  0  0  0  0  0  0  0  0  0  0  0
   -2.0071  -13.9953    0.0000 C   0  0  0  0  0  0  0  0  0  0  0  0
   -1.2938  -13.5809    0.0000 C   0  0  0  0  0  0  0  0  0  0  0  0
   -0.5782  -13.9914    0.0000 C   0  0  0  0  0  0  0  0  0  0  0  0
   -0.5796  -14.8164    0.0000 C   0  0  0  0  0  0  0  0  0  0  0  0
    0.1351  -15.2268    0.0000 C   0  0  0  0  0  0  0  0  0  0  0  0
    0.8493  -14.8123    0.0000 C   0  0  0  0  0  0  0  0  0  0  0  0
    0.8444  -13.9832    0.0000 C   0  0  0  0  0  0  0  0  0  0  0  0
    0.1292  -13.5765    0.0000 C   0  0  0  0  0  0  0  0  0  0  0  0
    1.5654  -15.2219    0.0000 N   0  0  0  0  0  0  0  0  0  0  0  0
    2.2781  -14.8065    0.0000 C   0  0  0  0  0  0  0  0  0  0  0  0
    2.9941  -15.2161    0.0000 C   0  0  0  0  0  0  0  0  0  0  0  0
    2.2748  -13.9816    0.0000 O   0  0  0  0  0  0  0  0  0  0  0  0
    2.9961  -16.0412    0.0000 C   0  0  0  0  0  0  0  0  0  0  0  0
    3.7114  -16.4508    0.0000 C   0  0  0  0  0  0  0  0  0  0  0  0
    3.7033  -14.8004    0.0000 C   0  0  0  0  0  0  0  0  0  0  0  0
    4.4191  -15.2062    0.0000 C   0  0  0  0  0  0  0  0  0  0  0  0
    4.4220  -16.0342    0.0000 C   0  0  0  0  0  0  0  0  0  0  0  0
   -6.3084  -12.3490    0.0000 O   0  0  0  0  0  0  0  0  0  0  0  0
   -6.3082  -11.5240    0.0000 C   0  0  0  0  0  0  0  0  0  0  0  0
   -6.3153  -14.0005    0.0000 O   0  0  0  0  0  0  0  0  0  0  0  0
   -7.0262  -13.5875    0.0000 C   0  0  0  0  0  0  0  0  0  0  0  0
    5.1311  -14.7896    0.0000 O   0  0  0  0  0  0  0  0  0  0  0  0
    5.8479  -15.1980    0.0000 C   0  0  0  0  0  0  0  0  0  0  0  0
    5.1385  -16.4430    0.0000 O   0  0  0  0  0  0  0  0  0  0  0  0
    5.1426  -17.2679    0.0000 C   0  0  0  0  0  0  0  0  0  0  0  0
    2.2795  -16.4603    0.0000 N   0  0  0  0  0  0  0  0  0  0  0  0
    2.2819  -17.2852    0.0000 O   0  0  0  0  0  0  0  0  0  0  0  0
    1.5639  -16.0499    0.0000 O   0  0  0  0  0  0  0  0  0  0  0  0
 18 13  1  0
  6  7  1  0
 16 19  1  0
  7  8  1  0
 19 20  1  0
  8  9  1  0
 20 21  1  0
  9 10  1  0
 20 22  2  0
  5  6  1  0
 21 23  2  0
  8 11  1  0
 23 24  1  0
 24 27  2  0
 26 25  2  0
 25 21  1  0
 11 12  1  0
  2  3  1  0
 26 27  1  0
 12 13  1  0
  1 28  1  0
  3  6  2  0
 28 29  1  0
 13 14  2  0
  2 30  1  0
  1  2  2  0
 30 31  1  0
 14 15  1  0
 26 32  1  0
  5  4  2  0
 32 33  1  0
 15 16  2  0
 27 34  1  0
  4  1  1  0
 34 35  1  0
 16 17  1  0
  5 10  1  0
 17 18  2  0
 36 37  2  0
 36 38  1  0
 23 36  1  0
M  CHG  2  36   1  38  -1
M  END
>  <Classification>  (148) 
1

>  <pchembl>  (148) 
5.31

>  <InChI_steorem>  (148) 
InChI=1S/C28H31N3O7/c1-35-24-13-19-10-12-30(17-20(19)14-25(24)36-2)11-9-18-5-7-21(8-6-18)29-28(32)22-15-26(37-3)27(38-4)16-23(22)31(33)34/h5-8,13-16H,9-12,17H2,1-4H3,(H,29,32)

>  <source>  (148) 
ChEMBL25

>  <source_id>  (148) 
25

>  <optional_reference>  (148) 
10.1016/j.bmc.2007.11.057

>  <optional_origin>  (148) 
None

>  <target>  (148) 
MDR1

$$$$

     RDKit          2D

 40 43  0  0  0  0  0  0  0  0999 V2000
    8.5021  -23.8067    0.0000 C   0  0  0  0  0  0  0  0  0  0  0  0
    8.5010  -24.6341    0.0000 C   0  0  0  0  0  0  0  0  0  0  0  0
    9.2158  -25.0469    0.0000 C   0  0  0  0  0  0  0  0  0  0  0  0
    9.2140  -23.3940    0.0000 C   0  0  0  0  0  0  0  0  0  0  0  0
    9.9293  -23.8031    0.0000 C   0  0  0  0  0  0  0  0  0  0  0  0
    9.9327  -24.6361    0.0000 C   0  0  0  0  0  0  0  0  0  0  0  0
   10.6519  -25.0474    0.0000 C   0  0  0  0  0  0  0  0  0  0  0  0
   11.3723  -24.6302    0.0000 N   0  0  0  0  0  0  0  0  0  0  0  0
   11.3688  -23.7972    0.0000 C   0  0  0  0  0  0  0  0  0  0  0  0
   10.6450  -23.3814    0.0000 C   0  0  0  0  0  0  0  0  0  0  0  0
   12.0878  -25.0408    0.0000 C   0  0  0  0  0  0  0  0  0  0  0  0
   12.8011  -24.6263    0.0000 C   0  0  0  0  0  0  0  0  0  0  0  0
   13.5166  -25.0369    0.0000 C   0  0  0  0  0  0  0  0  0  0  0  0
   13.5152  -25.8619    0.0000 C   0  0  0  0  0  0  0  0  0  0  0  0
   14.2300  -26.2724    0.0000 C   0  0  0  0  0  0  0  0  0  0  0  0
   14.9442  -25.8579    0.0000 C   0  0  0  0  0  0  0  0  0  0  0  0
   14.9393  -25.0287    0.0000 C   0  0  0  0  0  0  0  0  0  0  0  0
   14.2241  -24.6220    0.0000 C   0  0  0  0  0  0  0  0  0  0  0  0
   15.6604  -26.2675    0.0000 N   0  0  0  0  0  0  0  0  0  0  0  0
   16.3730  -25.8521    0.0000 C   0  0  0  0  0  0  0  0  0  0  0  0
   17.0892  -26.2617    0.0000 C   0  0  0  0  0  0  0  0  0  0  0  0
   16.3697  -25.0272    0.0000 O   0  0  0  0  0  0  0  0  0  0  0  0
   17.0911  -27.0868    0.0000 C   0  0  0  0  0  0  0  0  0  0  0  0
   17.8063  -27.4963    0.0000 C   0  0  0  0  0  0  0  0  0  0  0  0
    7.7877  -23.3945    0.0000 O   0  0  0  0  0  0  0  0  0  0  0  0
    7.7875  -22.5695    0.0000 C   0  0  0  0  0  0  0  0  0  0  0  0
    7.7863  -25.0460    0.0000 O   0  0  0  0  0  0  0  0  0  0  0  0
    7.0721  -24.6329    0.0000 C   0  0  0  0  0  0  0  0  0  0  0  0
   17.8073  -28.3192    0.0000 C   0  0  0  0  0  0  0  0  0  0  0  0
   18.5218  -28.7287    0.0000 C   0  0  0  0  0  0  0  0  0  0  0  0
   19.2350  -28.3139    0.0000 C   0  0  0  0  0  0  0  0  0  0  0  0
   19.2293  -27.4856    0.0000 C   0  0  0  0  0  0  0  0  0  0  0  0
   18.5144  -27.0798    0.0000 C   0  0  0  0  0  0  0  0  0  0  0  0
   18.5085  -26.2521    0.0000 N   0  0  0  0  0  0  0  0  0  0  0  0
   17.7908  -25.8452    0.0000 O   0  0  0  0  0  0  0  0  0  0  0  0
   19.2196  -25.8341    0.0000 O   0  0  0  0  0  0  0  0  0  0  0  0
   19.9515  -28.7229    0.0000 O   0  0  0  0  0  0  0  0  0  0  0  0
   18.5244  -29.5537    0.0000 O   0  0  0  0  0  0  0  0  0  0  0  0
   19.9556  -29.5479    0.0000 C   0  0  0  0  0  0  0  0  0  0  0  0
   17.8112  -29.9683    0.0000 C   0  0  0  0  0  0  0  0  0  0  0  0
 16 19  1  0
  7  8  1  0
 19 20  1  0
  8  9  1  0
 20 21  1  0
  9 10  1  0
 20 22  2  0
  5  6  1  0
 21 23  2  3
  8 11  1  0
 23 24  1  0
  1 25  1  0
 11 12  1  0
 25 26  1  0
  2  3  1  0
  2 27  1  0
 12 13  1  0
 27 28  1  0
  3  6  2  0
 24 29  2  0
 13 14  2  0
 29 30  1  0
  1  2  2  0
 30 31  2  0
 14 15  1  0
 31 32  1  0
  5  4  2  0
 32 33  2  0
 33 24  1  0
 15 16  2  0
  4  1  1  0
 16 17  1  0
 34 35  2  0
 34 36  1  0
 33 34  1  0
  5 10  1  0
 31 37  1  0
 17 18  2  0
 30 38  1  0
 18 13  1  0
 37 39  1  0
  6  7  1  0
 38 40  1  0
M  CHG  2  34   1  36  -1
M  END
>  <Classification>  (149) 
1

>  <pchembl>  (149) 
5.82

>  <InChI_steorem>  (149) 
InChI=1S/C30H33N3O7/c1-37-26-15-21-12-14-32(19-23(21)17-28(26)39-3)13-11-20-5-8-24(9-6-20)31-30(34)10-7-22-16-27(38-2)29(40-4)18-25(22)33(35)36/h5-10,15-18H,11-14,19H2,1-4H3,(H,31,34)

>  <source>  (149) 
ChEMBL25

>  <source_id>  (149) 
25

>  <optional_reference>  (149) 
10.1016/j.bmc.2009.01.072

>  <optional_origin>  (149) 
None

>  <target>  (149) 
MDR1

$$$$

     RDKit          2D

 33 38  0  0  0  0  0  0  0  0999 V2000
   -3.3401   -9.0398    0.0000 C   0  0  0  0  0  0  0  0  0  0  0  0
   -2.6271   -7.7997    0.0000 C   0  0  0  0  0  0  0  0  0  0  0  0
   -1.9117   -8.2088    0.0000 C   0  0  0  0  0  0  0  0  0  0  0  0
   -1.9083   -9.0419    0.0000 C   0  0  0  0  0  0  0  0  0  0  0  0
   -1.1891   -9.4532    0.0000 Se  0  0  0  0  0  2  0  0  0  0  0  0
   -1.1959   -7.7870    0.0000 C   0  0  0  0  0  0  0  0  0  0  0  0
   -0.4721   -8.2029    0.0000 C   0  0  0  0  0  0  0  0  0  0  0  0
   -0.4692   -9.0399    0.0000 C   0  0  0  0  0  0  0  0  0  0  0  0
    0.2559   -9.4540    0.0000 C   0  0  0  0  0  0  0  0  0  0  0  0
    0.9786   -9.0324    0.0000 C   0  0  0  0  0  0  0  0  0  0  0  0
    0.9716   -8.1923    0.0000 C   0  0  0  0  0  0  0  0  0  0  0  0
    0.2459   -7.7819    0.0000 C   0  0  0  0  0  0  0  0  0  0  0  0
   -1.2005   -6.9621    0.0000 C   0  0  0  0  0  0  0  0  0  0  0  0
   -0.4840   -6.5501    0.0000 C   0  0  0  0  0  0  0  0  0  0  0  0
   -1.2014   -5.3170    0.0000 C   0  0  0  0  0  0  0  0  0  0  0  0
   -1.9155   -5.7352    0.0000 C   0  0  0  0  0  0  0  0  0  0  0  0
   -0.4865   -5.7296    0.0000 C   0  0  0  0  0  0  0  0  0  0  0  0
   -1.9146   -6.5591    0.0000 C   0  0  0  0  0  0  0  0  0  0  0  0
    1.6957   -9.4403    0.0000 N   0  0  0  0  0  0  0  0  0  0  0  0
    1.7010  -10.2653    0.0000 C   0  0  0  0  0  0  0  0  0  0  0  0
    2.4075   -9.0232    0.0000 C   0  0  0  0  0  0  0  0  0  0  0  0
   -4.0549   -9.4518    0.0000 N   0  0  0  0  0  0  0  0  0  0  0  0
   -4.7690   -9.0387    0.0000 C   0  0  0  0  0  0  0  0  0  0  0  0
   -4.0555  -10.2768    0.0000 C   0  0  0  0  0  0  0  0  0  0  0  0
    0.2273   -5.3159    0.0000 N   0  0  0  0  0  0  0  0  0  0  0  0
    0.9424   -5.7272    0.0000 C   0  0  0  0  0  0  0  0  0  0  0  0
    0.2259   -4.4909    0.0000 C   0  0  0  0  0  0  0  0  0  0  0  0
   -4.7684   -8.2137    0.0000 C   0  0  0  0  0  0  0  0  0  0  0  0
   -4.0536   -7.8018    0.0000 C   0  0  0  0  0  0  0  0  0  0  0  0
   -3.3394   -8.2148    0.0000 C   0  0  0  0  0  0  0  0  0  0  0  0
   -3.3414  -10.6898    0.0000 C   0  0  0  0  0  0  0  0  0  0  0  0
   -2.6266  -10.2779    0.0000 C   0  0  0  0  0  0  0  0  0  0  0  0
   -2.6259   -9.4529    0.0000 C   0  0  0  0  0  0  0  0  0  0  0  0
 15 16  2  0
  4  5  1  0
  5  8  1  0
  7  6  2  0
  3  2  2  0
 13 18  2  0
 14 17  2  0
 17 15  1  0
 16 18  1  0
  2 30  1  0
 10 19  2  3
  7  8  1  0
 19 20  1  0
  3  4  1  0
 19 21  1  0
  8  9  2  0
  1 22  1  0
 30  1  2  0
 22 23  1  0
  9 10  1  0
 22 24  1  0
  1 33  1  0
 17 25  1  0
 10 11  1  0
 25 26  1  0
 33  4  2  0
 25 27  1  0
 11 12  2  0
 23 28  1  0
 12  7  1  0
 28 29  1  0
 29 30  1  0
  6 13  1  0
 24 31  1  0
 13 14  1  0
 31 32  1  0
  3  6  1  0
 32 33  1  0
M  CHG  1  19   1
M  END
>  <Classification>  (150) 
0

>  <pchembl>  (150) 
4.63

>  <InChI_steorem>  (150) 
InChI=1S/C29H32N3Se/c1-30(2)21-10-5-8-19(16-21)27-23-13-12-22(31(3)4)18-26(23)33-29-24-11-7-15-32-14-6-9-20(28(24)32)17-25(27)29/h5,8,10,12-13,16-18H,6-7,9,11,14-15H2,1-4H3

>  <source>  (150) 
ChEMBL25

>  <source_id>  (150) 
25

>  <optional_reference>  (150) 
10.1021/jm900253g

>  <optional_origin>  (150) 
None

>  <target>  (150) 
MDR1

$$$$

     RDKit          2D

 33 38  0  0  0  0  0  0  0  0999 V2000
    6.7682  -28.2565    0.0000 C   0  0  0  0  0  0  0  0  0  0  0  0
    7.4813  -27.0164    0.0000 C   0  0  0  0  0  0  0  0  0  0  0  0
    8.1966  -27.4255    0.0000 C   0  0  0  0  0  0  0  0  0  0  0  0
    8.2001  -28.2586    0.0000 C   0  0  0  0  0  0  0  0  0  0  0  0
    8.9192  -28.6699    0.0000 Se  0  0  0  0  0  2  0  0  0  0  0  0
    8.9124  -27.0037    0.0000 C   0  0  0  0  0  0  0  0  0  0  0  0
    9.6362  -27.4196    0.0000 C   0  0  0  0  0  0  0  0  0  0  0  0
    9.6391  -28.2565    0.0000 C   0  0  0  0  0  0  0  0  0  0  0  0
   10.3642  -28.6707    0.0000 C   0  0  0  0  0  0  0  0  0  0  0  0
   11.0869  -28.2490    0.0000 C   0  0  0  0  0  0  0  0  0  0  0  0
   11.0800  -27.4089    0.0000 C   0  0  0  0  0  0  0  0  0  0  0  0
   10.3543  -26.9986    0.0000 C   0  0  0  0  0  0  0  0  0  0  0  0
    8.9079  -26.1787    0.0000 C   0  0  0  0  0  0  0  0  0  0  0  0
    9.6244  -25.7668    0.0000 C   0  0  0  0  0  0  0  0  0  0  0  0
    8.9069  -24.5337    0.0000 C   0  0  0  0  0  0  0  0  0  0  0  0
    8.1929  -24.9518    0.0000 C   0  0  0  0  0  0  0  0  0  0  0  0
    9.6218  -24.9463    0.0000 C   0  0  0  0  0  0  0  0  0  0  0  0
    8.1938  -25.7758    0.0000 C   0  0  0  0  0  0  0  0  0  0  0  0
   11.8040  -28.6570    0.0000 N   0  0  0  0  0  0  0  0  0  0  0  0
   11.8093  -29.4819    0.0000 C   0  0  0  0  0  0  0  0  0  0  0  0
   12.5158  -28.2399    0.0000 C   0  0  0  0  0  0  0  0  0  0  0  0
    6.0534  -28.6684    0.0000 N   0  0  0  0  0  0  0  0  0  0  0  0
    6.0528  -29.4934    0.0000 C   0  0  0  0  0  0  0  0  0  0  0  0
    6.7669  -29.9065    0.0000 C   0  0  0  0  0  0  0  0  0  0  0  0
    7.4817  -29.4946    0.0000 C   0  0  0  0  0  0  0  0  0  0  0  0
    7.4824  -28.6696    0.0000 C   0  0  0  0  0  0  0  0  0  0  0  0
    5.3393  -28.2554    0.0000 C   0  0  0  0  0  0  0  0  0  0  0  0
    5.3400  -27.4304    0.0000 C   0  0  0  0  0  0  0  0  0  0  0  0
    6.0548  -27.0184    0.0000 C   0  0  0  0  0  0  0  0  0  0  0  0
    6.7689  -27.4315    0.0000 C   0  0  0  0  0  0  0  0  0  0  0  0
    8.9043  -23.7087    0.0000 N   0  0  0  0  0  0  0  0  0  0  0  0
    9.6174  -23.2939    0.0000 C   0  0  0  0  0  0  0  0  0  0  0  0
    8.1885  -23.2985    0.0000 C   0  0  0  0  0  0  0  0  0  0  0  0
 15 16  2  0
  4  5  1  0
  5  8  1  0
  7  6  2  0
  3  2  2  0
 13 18  2  0
 14 17  2  0
 17 15  1  0
 16 18  1  0
  2 30  1  0
 10 19  2  3
  7  8  1  0
 19 20  1  0
  3  4  1  0
 19 21  1  0
  8  9  2  0
  1 22  1  0
 30  1  2  0
 22 23  1  0
  9 10  1  0
 23 24  1  0
  1 26  1  0
 24 25  1  0
 10 11  1  0
 25 26  1  0
 26  4  2  0
 22 27  1  0
 11 12  2  0
 27 28  1  0
 12  7  1  0
 28 29  1  0
 29 30  1  0
  6 13  1  0
 15 31  1  0
 13 14  1  0
 31 32  1  0
  3  6  1  0
 31 33  1  0
M  CHG  1  19   1
M  END
>  <Classification>  (151) 
1

>  <pchembl>  (151) 
5.17

>  <InChI_steorem>  (151) 
InChI=1S/C29H32N3Se/c1-30(2)21-11-9-19(10-12-21)27-23-14-13-22(31(3)4)18-26(23)33-29-24-8-6-16-32-15-5-7-20(28(24)32)17-25(27)29/h9-14,17-18H,5-8,15-16H2,1-4H3

>  <source>  (151) 
ChEMBL25

>  <source_id>  (151) 
25

>  <optional_reference>  (151) 
10.1021/jm900253g

>  <optional_origin>  (151) 
None

>  <target>  (151) 
MDR1

$$$$

     RDKit          2D

 30 35  0  0  0  0  0  0  0  0999 V2000
    0.3016   -4.5937    0.0000 C   0  0  0  0  0  0  0  0  0  0  0  0
    1.0145   -3.3537    0.0000 C   0  0  0  0  0  0  0  0  0  0  0  0
    1.7299   -3.7628    0.0000 C   0  0  0  0  0  0  0  0  0  0  0  0
    1.7333   -4.5958    0.0000 C   0  0  0  0  0  0  0  0  0  0  0  0
    2.4524   -5.0071    0.0000 S   0  0  0  0  0  0  0  0  0  0  0  0
    2.4455   -3.3410    0.0000 C   0  0  0  0  0  0  0  0  0  0  0  0
    3.1693   -3.7569    0.0000 C   0  0  0  0  0  0  0  0  0  0  0  0
    3.1722   -4.5937    0.0000 C   0  0  0  0  0  0  0  0  0  0  0  0
    3.8972   -5.0079    0.0000 C   0  0  0  0  0  0  0  0  0  0  0  0
    4.6200   -4.5862    0.0000 C   0  0  0  0  0  0  0  0  0  0  0  0
    4.6130   -3.7462    0.0000 C   0  0  0  0  0  0  0  0  0  0  0  0
    3.8873   -3.3359    0.0000 C   0  0  0  0  0  0  0  0  0  0  0  0
    2.4410   -2.5160    0.0000 C   0  0  0  0  0  0  0  0  0  0  0  0
    3.1575   -2.1042    0.0000 C   0  0  0  0  0  0  0  0  0  0  0  0
    2.4400   -0.8711    0.0000 C   0  0  0  0  0  0  0  0  0  0  0  0
    1.7261   -1.2892    0.0000 C   0  0  0  0  0  0  0  0  0  0  0  0
    3.1549   -1.2837    0.0000 C   0  0  0  0  0  0  0  0  0  0  0  0
    1.7270   -2.1132    0.0000 C   0  0  0  0  0  0  0  0  0  0  0  0
    5.3370   -4.9942    0.0000 N   0  0  0  0  0  0  0  0  0  0  0  0
    5.3422   -5.8190    0.0000 C   0  0  0  0  0  0  0  0  0  0  0  0
    6.0488   -4.5771    0.0000 C   0  0  0  0  0  0  0  0  0  0  0  0
   -0.4132   -5.0056    0.0000 N   0  0  0  0  0  0  0  0  0  0  0  0
   -0.4139   -5.8305    0.0000 C   0  0  0  0  0  0  0  0  0  0  0  0
    0.3003   -6.2436    0.0000 C   0  0  0  0  0  0  0  0  0  0  0  0
    1.0150   -5.8317    0.0000 C   0  0  0  0  0  0  0  0  0  0  0  0
    1.0156   -5.0068    0.0000 C   0  0  0  0  0  0  0  0  0  0  0  0
   -1.1273   -4.5926    0.0000 C   0  0  0  0  0  0  0  0  0  0  0  0
   -1.1266   -3.7677    0.0000 C   0  0  0  0  0  0  0  0  0  0  0  0
   -0.4119   -3.3557    0.0000 C   0  0  0  0  0  0  0  0  0  0  0  0
    0.3022   -3.7688    0.0000 C   0  0  0  0  0  0  0  0  0  0  0  0
  6 13  1  0
 13 14  2  0
  3  6  1  0
 15 16  1  0
  4  5  1  0
  5  8  1  0
  7  6  2  0
  3  2  2  0
 13 18  1  0
 14 17  1  0
 17 15  2  0
 16 18  2  0
  2 30  1  0
 10 19  2  3
  7  8  1  0
 19 20  1  0
  3  4  1  0
 19 21  1  0
  8  9  2  0
  1 22  1  0
 30  1  2  0
 22 23  1  0
  9 10  1  0
 23 24  1  0
  1 26  1  0
 24 25  1  0
 10 11  1  0
 25 26  1  0
 26  4  2  0
 22 27  1  0
 11 12  2  0
 27 28  1  0
 12  7  1  0
 28 29  1  0
 29 30  1  0
M  CHG  1  19   1
M  END
>  <Classification>  (152) 
1

>  <pchembl>  (152) 
5.33

>  <InChI_steorem>  (152) 
InChI=1S/C27H27N2S/c1-28(2)20-12-13-21-24(17-20)30-27-22-11-7-15-29-14-6-10-19(26(22)29)16-23(27)25(21)18-8-4-3-5-9-18/h3-5,8-9,12-13,16-17H,6-7,10-11,14-15H2,1-2H3

>  <source>  (152) 
ChEMBL25

>  <source_id>  (152) 
25

>  <optional_reference>  (152) 
10.1021/jm900253g

>  <optional_origin>  (152) 
None

>  <target>  (152) 
MDR1

$$$$

     RDKit          2D

 30 35  0  0  0  0  0  0  0  0999 V2000
    2.0847   -5.5644    0.0000 C   0  0  0  0  0  0  0  0  0  0  0  0
    2.7977   -4.3244    0.0000 C   0  0  0  0  0  0  0  0  0  0  0  0
    3.5130   -4.7334    0.0000 C   0  0  0  0  0  0  0  0  0  0  0  0
    3.5164   -5.5665    0.0000 C   0  0  0  0  0  0  0  0  0  0  0  0
    4.2356   -5.9777    0.0000 Se  0  0  0  0  0  2  0  0  0  0  0  0
    4.2288   -4.3117    0.0000 C   0  0  0  0  0  0  0  0  0  0  0  0
    4.9525   -4.7275    0.0000 C   0  0  0  0  0  0  0  0  0  0  0  0
    4.9554   -5.5645    0.0000 C   0  0  0  0  0  0  0  0  0  0  0  0
    5.6804   -5.9785    0.0000 C   0  0  0  0  0  0  0  0  0  0  0  0
    6.4031   -5.5570    0.0000 C   0  0  0  0  0  0  0  0  0  0  0  0
    6.3961   -4.7169    0.0000 C   0  0  0  0  0  0  0  0  0  0  0  0
    5.6704   -4.3066    0.0000 C   0  0  0  0  0  0  0  0  0  0  0  0
    4.2242   -3.4868    0.0000 C   0  0  0  0  0  0  0  0  0  0  0  0
    4.9406   -3.0749    0.0000 C   0  0  0  0  0  0  0  0  0  0  0  0
    4.2233   -1.8419    0.0000 C   0  0  0  0  0  0  0  0  0  0  0  0
    3.5092   -2.2600    0.0000 C   0  0  0  0  0  0  0  0  0  0  0  0
    4.9381   -2.2544    0.0000 C   0  0  0  0  0  0  0  0  0  0  0  0
    3.5101   -3.0839    0.0000 C   0  0  0  0  0  0  0  0  0  0  0  0
    7.1201   -5.9648    0.0000 N   0  0  0  0  0  0  0  0  0  0  0  0
    7.1254   -6.7898    0.0000 C   0  0  0  0  0  0  0  0  0  0  0  0
    7.8319   -5.5478    0.0000 C   0  0  0  0  0  0  0  0  0  0  0  0
    1.3700   -5.9763    0.0000 N   0  0  0  0  0  0  0  0  0  0  0  0
    1.3694   -6.8013    0.0000 C   0  0  0  0  0  0  0  0  0  0  0  0
    2.0834   -7.2142    0.0000 C   0  0  0  0  0  0  0  0  0  0  0  0
    2.7982   -6.8024    0.0000 C   0  0  0  0  0  0  0  0  0  0  0  0
    2.7989   -5.9774    0.0000 C   0  0  0  0  0  0  0  0  0  0  0  0
    0.6559   -5.5633    0.0000 C   0  0  0  0  0  0  0  0  0  0  0  0
    0.6565   -4.7383    0.0000 C   0  0  0  0  0  0  0  0  0  0  0  0
    1.3713   -4.3265    0.0000 C   0  0  0  0  0  0  0  0  0  0  0  0
    2.0854   -4.7394    0.0000 C   0  0  0  0  0  0  0  0  0  0  0  0
  9 10  1  0
  1 26  1  0
 10 11  1  0
 26  4  2  0
 11 12  2  0
 12  7  1  0
  6 13  1  0
 13 14  2  0
  3  2  2  0
 15 16  1  0
  2 30  1  0
  3  4  1  0
 13 18  1  0
 14 17  1  0
 17 15  2  0
 16 18  2  0
 10 19  2  3
 19 20  1  0
  3  6  1  0
 19 21  1  0
  4  5  1  0
  1 22  1  0
  5  8  1  0
 22 23  1  0
  7  6  2  0
 23 24  1  0
 24 25  1  0
 25 26  1  0
  7  8  1  0
 22 27  1  0
 27 28  1  0
  8  9  2  0
 28 29  1  0
 30  1  2  0
 29 30  1  0
M  CHG  1  19   1
M  END
>  <Classification>  (153) 
1

>  <pchembl>  (153) 
5.64

>  <InChI_steorem>  (153) 
InChI=1S/C27H27N2Se/c1-28(2)20-12-13-21-24(17-20)30-27-22-11-7-15-29-14-6-10-19(26(22)29)16-23(27)25(21)18-8-4-3-5-9-18/h3-5,8-9,12-13,16-17H,6-7,10-11,14-15H2,1-2H3

>  <source>  (153) 
ChEMBL25

>  <source_id>  (153) 
25

>  <optional_reference>  (153) 
10.1021/jm900253g

>  <optional_origin>  (153) 
None

>  <target>  (153) 
MDR1

$$$$

     RDKit          2D

 33 37  0  0  0  0  0  0  0  0999 V2000
   13.4819  -12.6916    0.0000 C   0  0  0  0  0  0  0  0  0  0  0  0
   13.4807  -13.5190    0.0000 C   0  0  0  0  0  0  0  0  0  0  0  0
   14.1956  -13.9319    0.0000 C   0  0  0  0  0  0  0  0  0  0  0  0
   14.1938  -12.2789    0.0000 C   0  0  0  0  0  0  0  0  0  0  0  0
   14.9091  -12.6880    0.0000 C   0  0  0  0  0  0  0  0  0  0  0  0
   14.9126  -13.5211    0.0000 C   0  0  0  0  0  0  0  0  0  0  0  0
   15.6317  -13.9324    0.0000 Te  0  0  0  0  0  2  0  0  0  0  0  0
   15.6249  -12.2662    0.0000 C   0  0  0  0  0  0  0  0  0  0  0  0
   16.3487  -12.6821    0.0000 C   0  0  0  0  0  0  0  0  0  0  0  0
   16.3516  -13.5190    0.0000 C   0  0  0  0  0  0  0  0  0  0  0  0
   17.0767  -13.9332    0.0000 C   0  0  0  0  0  0  0  0  0  0  0  0
   17.7994  -13.5115    0.0000 C   0  0  0  0  0  0  0  0  0  0  0  0
   17.7925  -12.6714    0.0000 C   0  0  0  0  0  0  0  0  0  0  0  0
   17.0668  -12.2611    0.0000 C   0  0  0  0  0  0  0  0  0  0  0  0
   15.6204  -11.4412    0.0000 C   0  0  0  0  0  0  0  0  0  0  0  0
   18.5165  -13.9195    0.0000 N   0  0  0  0  0  0  0  0  0  0  0  0
   18.5218  -14.7444    0.0000 C   0  0  0  0  0  0  0  0  0  0  0  0
   19.2283  -13.5024    0.0000 C   0  0  0  0  0  0  0  0  0  0  0  0
   12.7660  -13.9309    0.0000 N   0  0  0  0  0  0  0  0  0  0  0  0
   12.0518  -13.5179    0.0000 C   0  0  0  0  0  0  0  0  0  0  0  0
   12.7653  -14.7559    0.0000 C   0  0  0  0  0  0  0  0  0  0  0  0
   16.2858  -10.9528    0.0000 S   0  0  0  0  0  0  0  0  0  0  0  0
   16.0265  -10.1696    0.0000 C   0  0  0  0  0  0  0  0  0  0  0  0
   15.2015  -10.1741    0.0000 C   0  0  0  0  0  0  0  0  0  0  0  0
   14.9510  -10.9601    0.0000 C   0  0  0  0  0  0  0  0  0  0  0  0
   16.5078   -9.4995    0.0000 C   0  0  0  0  0  0  0  0  0  0  0  0
   17.3230   -9.5794    0.0000 N   0  0  0  0  0  0  0  0  0  0  0  0
   16.1623   -8.7459    0.0000 S   0  0  0  0  0  0  0  0  0  0  0  0
   17.6577  -10.3278    0.0000 C   0  0  0  0  0  0  0  0  0  0  0  0
   18.4691  -10.4093    0.0000 C   0  0  0  0  0  0  0  0  0  0  0  0
   18.9496   -9.7455    0.0000 C   0  0  0  0  0  0  0  0  0  0  0  0
   18.6126   -8.9979    0.0000 C   0  0  0  0  0  0  0  0  0  0  0  0
   17.7952   -8.9141    0.0000 C   0  0  0  0  0  0  0  0  0  0  0  0
  8  5  1  0
 12 16  2  3
  6  7  1  0
 16 17  1  0
  7 10  1  0
 16 18  1  0
  9  8  2  0
  2 19  1  0
  5  4  1  0
 19 20  1  0
  4  1  2  0
 19 21  1  0
 15 22  1  0
  9 10  1  0
  5  6  2  0
 10 11  2  0
 22 23  1  0
 23 24  2  0
 24 25  1  0
 25 15  2  0
 11 12  1  0
 23 26  1  0
  2  3  2  0
 12 13  1  0
 26 27  1  0
 26 28  2  0
 27 29  1  0
  3  6  1  0
 13 14  2  0
 14  9  1  0
  1  2  1  0
  8 15  1  0
 27 33  1  0
 29 30  1  0
 30 31  1  0
 31 32  1  0
 32 33  1  0
M  CHG  1  16   1
M  END
>  <Classification>  (154) 
1

>  <pchembl>  (154) 
5.28

>  <InChI_steorem>  (154) 
InChI=1S/C27H30N3S2Te/c1-28(2)18-8-10-20-24(16-18)33-25-17-19(29(3)4)9-11-21(25)26(20)22-12-13-23(32-22)27(31)30-14-6-5-7-15-30/h8-13,16-17H,5-7,14-15H2,1-4H3

>  <source>  (154) 
ChEMBL25

>  <source_id>  (154) 
25

>  <optional_reference>  (154) 
10.1021/jm900253g

>  <optional_origin>  (154) 
None

>  <target>  (154) 
MDR1

$$$$

     RDKit          2D

 33 37  0  0  0  0  0  0  0  0999 V2000
   -3.9931  -11.7833    0.0000 C   0  0  0  0  0  0  0  0  0  0  0  0
   -3.9943  -12.6107    0.0000 C   0  0  0  0  0  0  0  0  0  0  0  0
   -3.2794  -13.0235    0.0000 C   0  0  0  0  0  0  0  0  0  0  0  0
   -3.2812  -11.3705    0.0000 C   0  0  0  0  0  0  0  0  0  0  0  0
   -2.5659  -11.7797    0.0000 C   0  0  0  0  0  0  0  0  0  0  0  0
   -2.5624  -12.6127    0.0000 C   0  0  0  0  0  0  0  0  0  0  0  0
   -1.8433  -13.0240    0.0000 S   0  0  0  0  0  0  0  0  0  0  0  0
   -1.8501  -11.3579    0.0000 C   0  0  0  0  0  0  0  0  0  0  0  0
   -1.1263  -11.7738    0.0000 C   0  0  0  0  0  0  0  0  0  0  0  0
   -1.1234  -12.6107    0.0000 C   0  0  0  0  0  0  0  0  0  0  0  0
   -0.3983  -13.0249    0.0000 C   0  0  0  0  0  0  0  0  0  0  0  0
    0.3244  -12.6032    0.0000 C   0  0  0  0  0  0  0  0  0  0  0  0
    0.3175  -11.7631    0.0000 C   0  0  0  0  0  0  0  0  0  0  0  0
   -0.4082  -11.3527    0.0000 C   0  0  0  0  0  0  0  0  0  0  0  0
   -1.8546  -10.5329    0.0000 C   0  0  0  0  0  0  0  0  0  0  0  0
    1.0415  -13.0111    0.0000 N   0  0  0  0  0  0  0  0  0  0  0  0
    1.0468  -13.8361    0.0000 C   0  0  0  0  0  0  0  0  0  0  0  0
    1.7533  -12.5941    0.0000 C   0  0  0  0  0  0  0  0  0  0  0  0
   -4.7091  -13.0226    0.0000 N   0  0  0  0  0  0  0  0  0  0  0  0
   -5.4232  -12.6095    0.0000 C   0  0  0  0  0  0  0  0  0  0  0  0
   -4.7097  -13.8476    0.0000 C   0  0  0  0  0  0  0  0  0  0  0  0
   -1.1892  -10.0444    0.0000 S   0  0  0  0  0  0  0  0  0  0  0  0
   -1.4485   -9.2612    0.0000 C   0  0  0  0  0  0  0  0  0  0  0  0
   -2.2735   -9.2658    0.0000 C   0  0  0  0  0  0  0  0  0  0  0  0
   -2.5240  -10.0518    0.0000 C   0  0  0  0  0  0  0  0  0  0  0  0
   -0.9672   -8.5911    0.0000 C   0  0  0  0  0  0  0  0  0  0  0  0
   -0.1520   -8.6711    0.0000 N   0  0  0  0  0  0  0  0  0  0  0  0
   -1.3127   -7.8375    0.0000 S   0  0  0  0  0  0  0  0  0  0  0  0
    0.1827   -9.4194    0.0000 C   0  0  0  0  0  0  0  0  0  0  0  0
    0.9941   -9.5010    0.0000 C   0  0  0  0  0  0  0  0  0  0  0  0
    1.4746   -8.8372    0.0000 C   0  0  0  0  0  0  0  0  0  0  0  0
    1.1376   -8.0895    0.0000 C   0  0  0  0  0  0  0  0  0  0  0  0
    0.3202   -8.0057    0.0000 C   0  0  0  0  0  0  0  0  0  0  0  0
  5  8  1  0
 12 16  2  3
  6  7  1  0
 16 17  1  0
  7 10  1  0
 16 18  1  0
  9  8  2  0
  2 19  1  0
  5  4  1  0
 19 20  1  0
  4  1  2  0
 19 21  1  0
 15 22  1  0
  9 10  1  0
  5  6  2  0
 10 11  2  0
 22 23  1  0
 23 24  2  0
 24 25  1  0
 25 15  2  0
 11 12  1  0
 23 26  1  0
  2  3  2  0
 12 13  1  0
 26 27  1  0
 26 28  2  0
 27 29  1  0
  3  6  1  0
 13 14  2  0
 14  9  1  0
  1  2  1  0
  8 15  1  0
 27 33  1  0
 29 30  1  0
 30 31  1  0
 31 32  1  0
 32 33  1  0
M  CHG  1  16   1
M  END
>  <Classification>  (155) 
1

>  <pchembl>  (155) 
5.1

>  <InChI_steorem>  (155) 
InChI=1S/C27H30N3S3/c1-28(2)18-8-10-20-24(16-18)33-25-17-19(29(3)4)9-11-21(25)26(20)22-12-13-23(32-22)27(31)30-14-6-5-7-15-30/h8-13,16-17H,5-7,14-15H2,1-4H3

>  <source>  (155) 
ChEMBL25

>  <source_id>  (155) 
25

>  <optional_reference>  (155) 
10.1021/jm900253g

>  <optional_origin>  (155) 
None

>  <target>  (155) 
MDR1

$$$$

     RDKit          2D

 33 37  0  0  0  0  0  0  0  0999 V2000
    4.7111  -12.3458    0.0000 C   0  0  0  0  0  0  0  0  0  0  0  0
    4.7099  -13.1732    0.0000 C   0  0  0  0  0  0  0  0  0  0  0  0
    5.4247  -13.5860    0.0000 C   0  0  0  0  0  0  0  0  0  0  0  0
    5.4229  -11.9330    0.0000 C   0  0  0  0  0  0  0  0  0  0  0  0
    6.1383  -12.3422    0.0000 C   0  0  0  0  0  0  0  0  0  0  0  0
    6.1417  -13.1752    0.0000 C   0  0  0  0  0  0  0  0  0  0  0  0
    6.8609  -13.5865    0.0000 Se  0  0  0  0  0  2  0  0  0  0  0  0
    6.8541  -11.9204    0.0000 C   0  0  0  0  0  0  0  0  0  0  0  0
    7.5779  -12.3363    0.0000 C   0  0  0  0  0  0  0  0  0  0  0  0
    7.5808  -13.1732    0.0000 C   0  0  0  0  0  0  0  0  0  0  0  0
    8.3059  -13.5874    0.0000 C   0  0  0  0  0  0  0  0  0  0  0  0
    9.0286  -13.1657    0.0000 C   0  0  0  0  0  0  0  0  0  0  0  0
    9.0216  -12.3256    0.0000 C   0  0  0  0  0  0  0  0  0  0  0  0
    8.2959  -11.9152    0.0000 C   0  0  0  0  0  0  0  0  0  0  0  0
    6.8495  -11.0954    0.0000 C   0  0  0  0  0  0  0  0  0  0  0  0
    9.7457  -13.5736    0.0000 N   0  0  0  0  0  0  0  0  0  0  0  0
    9.7510  -14.3986    0.0000 C   0  0  0  0  0  0  0  0  0  0  0  0
   10.4575  -13.1566    0.0000 C   0  0  0  0  0  0  0  0  0  0  0  0
    3.9951  -13.5851    0.0000 N   0  0  0  0  0  0  0  0  0  0  0  0
    3.2810  -13.1720    0.0000 C   0  0  0  0  0  0  0  0  0  0  0  0
    3.9945  -14.4101    0.0000 C   0  0  0  0  0  0  0  0  0  0  0  0
    7.5150  -10.6069    0.0000 S   0  0  0  0  0  0  0  0  0  0  0  0
    7.2557   -9.8237    0.0000 C   0  0  0  0  0  0  0  0  0  0  0  0
    6.4307   -9.8283    0.0000 C   0  0  0  0  0  0  0  0  0  0  0  0
    6.1802  -10.6143    0.0000 C   0  0  0  0  0  0  0  0  0  0  0  0
    7.7370   -9.1536    0.0000 C   0  0  0  0  0  0  0  0  0  0  0  0
    8.5521   -9.2336    0.0000 N   0  0  0  0  0  0  0  0  0  0  0  0
    7.3915   -8.4000    0.0000 S   0  0  0  0  0  0  0  0  0  0  0  0
    8.8869   -9.9819    0.0000 C   0  0  0  0  0  0  0  0  0  0  0  0
    9.6983  -10.0635    0.0000 C   0  0  0  0  0  0  0  0  0  0  0  0
   10.1788   -9.3997    0.0000 C   0  0  0  0  0  0  0  0  0  0  0  0
    9.8418   -8.6520    0.0000 C   0  0  0  0  0  0  0  0  0  0  0  0
    9.0244   -8.5682    0.0000 C   0  0  0  0  0  0  0  0  0  0  0  0
  5  8  1  0
 12 16  2  3
  6  7  1  0
 16 17  1  0
  7 10  1  0
 16 18  1  0
  9  8  2  0
  2 19  1  0
  5  4  1  0
 19 20  1  0
  4  1  2  0
 19 21  1  0
 15 22  1  0
  9 10  1  0
  5  6  2  0
 10 11  2  0
 22 23  1  0
 23 24  2  0
 24 25  1  0
 25 15  2  0
 11 12  1  0
 23 26  1  0
  2  3  2  0
 12 13  1  0
 26 27  1  0
 26 28  2  0
 27 29  1  0
  3  6  1  0
 13 14  2  0
 14  9  1  0
  1  2  1  0
  8 15  1  0
 27 33  1  0
 29 30  1  0
 30 31  1  0
 31 32  1  0
 32 33  1  0
M  CHG  1  16   1
M  END
>  <Classification>  (156) 
1

>  <pchembl>  (156) 
5.05

>  <InChI_steorem>  (156) 
InChI=1S/C27H30N3S2Se/c1-28(2)18-8-10-20-24(16-18)33-25-17-19(29(3)4)9-11-21(25)26(20)22-12-13-23(32-22)27(31)30-14-6-5-7-15-30/h8-13,16-17H,5-7,14-15H2,1-4H3

>  <source>  (156) 
ChEMBL25

>  <source_id>  (156) 
25

>  <optional_reference>  (156) 
10.1021/jm900253g

>  <optional_origin>  (156) 
None

>  <target>  (156) 
MDR1

$$$$

     RDKit          2D

 37 43  0  0  0  0  0  0  0  0999 V2000
    2.1266   -8.7274    0.0000 C   0  0  0  0  0  0  0  0  0  0  0  0
    2.8396   -7.4872    0.0000 C   0  0  0  0  0  0  0  0  0  0  0  0
    3.5550   -7.8964    0.0000 C   0  0  0  0  0  0  0  0  0  0  0  0
    3.5584   -8.7294    0.0000 C   0  0  0  0  0  0  0  0  0  0  0  0
    4.2776   -9.1407    0.0000 Te  0  0  0  0  0  2  0  0  0  0  0  0
    4.2707   -7.4746    0.0000 C   0  0  0  0  0  0  0  0  0  0  0  0
    4.9945   -7.8905    0.0000 C   0  0  0  0  0  0  0  0  0  0  0  0
    4.9974   -8.7274    0.0000 C   0  0  0  0  0  0  0  0  0  0  0  0
    5.7225   -9.1416    0.0000 C   0  0  0  0  0  0  0  0  0  0  0  0
    6.4453   -8.7199    0.0000 C   0  0  0  0  0  0  0  0  0  0  0  0
    6.4383   -7.8798    0.0000 C   0  0  0  0  0  0  0  0  0  0  0  0
    5.7126   -7.4694    0.0000 C   0  0  0  0  0  0  0  0  0  0  0  0
    4.2662   -6.6496    0.0000 C   0  0  0  0  0  0  0  0  0  0  0  0
    7.1624   -9.1278    0.0000 N   0  0  0  0  0  0  0  0  0  0  0  0
    7.1676   -9.9528    0.0000 C   0  0  0  0  0  0  0  0  0  0  0  0
    7.8742   -8.7108    0.0000 C   0  0  0  0  0  0  0  0  0  0  0  0
    1.4118   -9.1393    0.0000 N   0  0  0  0  0  0  0  0  0  0  0  0
    0.6976   -8.7262    0.0000 C   0  0  0  0  0  0  0  0  0  0  0  0
    1.4111   -9.9643    0.0000 C   0  0  0  0  0  0  0  0  0  0  0  0
    4.9316   -6.1611    0.0000 S   0  0  0  0  0  0  0  0  0  0  0  0
    4.6724   -5.3779    0.0000 C   0  0  0  0  0  0  0  0  0  0  0  0
    3.8473   -5.3825    0.0000 C   0  0  0  0  0  0  0  0  0  0  0  0
    3.5968   -6.1685    0.0000 C   0  0  0  0  0  0  0  0  0  0  0  0
    5.1536   -4.7078    0.0000 C   0  0  0  0  0  0  0  0  0  0  0  0
    5.9688   -4.7878    0.0000 N   0  0  0  0  0  0  0  0  0  0  0  0
    4.8082   -3.9542    0.0000 S   0  0  0  0  0  0  0  0  0  0  0  0
    6.3035   -5.5361    0.0000 C   0  0  0  0  0  0  0  0  0  0  0  0
    7.1150   -5.6177    0.0000 C   0  0  0  0  0  0  0  0  0  0  0  0
    7.5954   -4.9539    0.0000 C   0  0  0  0  0  0  0  0  0  0  0  0
    7.2585   -4.2062    0.0000 C   0  0  0  0  0  0  0  0  0  0  0  0
    6.4411   -4.1224    0.0000 C   0  0  0  0  0  0  0  0  0  0  0  0
    0.6983   -7.9012    0.0000 C   0  0  0  0  0  0  0  0  0  0  0  0
    1.4131   -7.4893    0.0000 C   0  0  0  0  0  0  0  0  0  0  0  0
    2.1272   -7.9024    0.0000 C   0  0  0  0  0  0  0  0  0  0  0  0
    2.1253  -10.3774    0.0000 C   0  0  0  0  0  0  0  0  0  0  0  0
    2.8401   -9.9654    0.0000 C   0  0  0  0  0  0  0  0  0  0  0  0
    2.8407   -9.1404    0.0000 C   0  0  0  0  0  0  0  0  0  0  0  0
 17 19  1  0
 13 20  1  0
  7  8  1  0
  3  4  1  0
  8  9  2  0
 34  1  2  0
 20 21  1  0
 21 22  2  0
 22 23  1  0
 23 13  2  0
  9 10  1  0
 21 24  1  0
  1 37  1  0
 10 11  1  0
 24 25  1  0
 24 26  2  0
 25 27  1  0
 37  4  2  0
 11 12  2  0
 12  7  1  0
  6 13  1  0
 25 31  1  0
 27 28  1  0
 28 29  1  0
 29 30  1  0
 30 31  1  0
  3  6  1  0
 18 32  1  0
 10 14  2  3
 32 33  1  0
  4  5  1  0
 33 34  1  0
 14 15  1  0
 19 35  1  0
  5  8  1  0
 35 36  1  0
 14 16  1  0
 36 37  1  0
  7  6  2  0
  1 17  1  0
  3  2  2  0
 17 18  1  0
  2 34  1  0
M  CHG  1  14   1
M  END
>  <Classification>  (157) 
0

>  <pchembl>  (157) 
4.85

>  <InChI_steorem>  (157) 
InChI=1S/C31H34N3S2Te/c1-32(2)21-10-11-22-27(19-21)37-30-23-9-7-17-33-16-6-8-20(29(23)33)18-24(30)28(22)25-12-13-26(36-25)31(35)34-14-4-3-5-15-34/h10-13,18-19H,3-9,14-17H2,1-2H3

>  <source>  (157) 
ChEMBL25

>  <source_id>  (157) 
25

>  <optional_reference>  (157) 
10.1021/jm900253g

>  <optional_origin>  (157) 
None

>  <target>  (157) 
MDR1

$$$$

     RDKit          2D

 37 43  0  0  0  0  0  0  0  0999 V2000
    4.0182  -20.3648    0.0000 C   0  0  0  0  0  0  0  0  0  0  0  0
    4.7313  -19.1247    0.0000 C   0  0  0  0  0  0  0  0  0  0  0  0
    5.4466  -19.5338    0.0000 C   0  0  0  0  0  0  0  0  0  0  0  0
    5.4501  -20.3669    0.0000 C   0  0  0  0  0  0  0  0  0  0  0  0
    6.1692  -20.7782    0.0000 Se  0  0  0  0  0  2  0  0  0  0  0  0
    6.1624  -19.1120    0.0000 C   0  0  0  0  0  0  0  0  0  0  0  0
    6.8862  -19.5279    0.0000 C   0  0  0  0  0  0  0  0  0  0  0  0
    6.8891  -20.3649    0.0000 C   0  0  0  0  0  0  0  0  0  0  0  0
    7.6142  -20.7790    0.0000 C   0  0  0  0  0  0  0  0  0  0  0  0
    8.3369  -20.3574    0.0000 C   0  0  0  0  0  0  0  0  0  0  0  0
    8.3300  -19.5173    0.0000 C   0  0  0  0  0  0  0  0  0  0  0  0
    7.6043  -19.1069    0.0000 C   0  0  0  0  0  0  0  0  0  0  0  0
    6.1579  -18.2871    0.0000 C   0  0  0  0  0  0  0  0  0  0  0  0
    9.0540  -20.7653    0.0000 N   0  0  0  0  0  0  0  0  0  0  0  0
    9.0593  -21.5903    0.0000 C   0  0  0  0  0  0  0  0  0  0  0  0
    9.7658  -20.3482    0.0000 C   0  0  0  0  0  0  0  0  0  0  0  0
    3.3034  -20.7768    0.0000 N   0  0  0  0  0  0  0  0  0  0  0  0
    2.5893  -20.3637    0.0000 C   0  0  0  0  0  0  0  0  0  0  0  0
    3.3028  -21.6018    0.0000 C   0  0  0  0  0  0  0  0  0  0  0  0
    6.8233  -17.7986    0.0000 S   0  0  0  0  0  0  0  0  0  0  0  0
    6.5640  -17.0154    0.0000 C   0  0  0  0  0  0  0  0  0  0  0  0
    5.7390  -17.0199    0.0000 C   0  0  0  0  0  0  0  0  0  0  0  0
    5.4885  -17.8059    0.0000 C   0  0  0  0  0  0  0  0  0  0  0  0
    7.0453  -16.3453    0.0000 C   0  0  0  0  0  0  0  0  0  0  0  0
    7.8605  -16.4252    0.0000 N   0  0  0  0  0  0  0  0  0  0  0  0
    6.6998  -15.5917    0.0000 S   0  0  0  0  0  0  0  0  0  0  0  0
    8.1952  -17.1736    0.0000 C   0  0  0  0  0  0  0  0  0  0  0  0
    9.0066  -17.2551    0.0000 C   0  0  0  0  0  0  0  0  0  0  0  0
    9.4871  -16.5913    0.0000 C   0  0  0  0  0  0  0  0  0  0  0  0
    9.1501  -15.8437    0.0000 C   0  0  0  0  0  0  0  0  0  0  0  0
    8.3327  -15.7599    0.0000 C   0  0  0  0  0  0  0  0  0  0  0  0
    2.5900  -19.5387    0.0000 C   0  0  0  0  0  0  0  0  0  0  0  0
    3.3048  -19.1268    0.0000 C   0  0  0  0  0  0  0  0  0  0  0  0
    4.0189  -19.5398    0.0000 C   0  0  0  0  0  0  0  0  0  0  0  0
    4.0169  -22.0148    0.0000 C   0  0  0  0  0  0  0  0  0  0  0  0
    4.7317  -21.6029    0.0000 C   0  0  0  0  0  0  0  0  0  0  0  0
    4.7324  -20.7779    0.0000 C   0  0  0  0  0  0  0  0  0  0  0  0
  7  6  2  0
  1 17  1  0
  3  2  2  0
 17 18  1  0
  2 34  1  0
 17 19  1  0
 13 20  1  0
  7  8  1  0
  3  4  1  0
  8  9  2  0
 34  1  2  0
 20 21  1  0
 21 22  2  0
 22 23  1  0
 23 13  2  0
  9 10  1  0
 21 24  1  0
  1 37  1  0
 10 11  1  0
 24 25  1  0
 24 26  2  0
 25 27  1  0
 37  4  2  0
 11 12  2  0
 12  7  1  0
  6 13  1  0
 25 31  1  0
 27 28  1  0
 28 29  1  0
 29 30  1  0
 30 31  1  0
  3  6  1  0
 18 32  1  0
 10 14  2  3
 32 33  1  0
  4  5  1  0
 33 34  1  0
 14 15  1  0
 19 35  1  0
  5  8  1  0
 35 36  1  0
 14 16  1  0
 36 37  1  0
M  CHG  1  14   1
M  END
>  <Classification>  (158) 
1

>  <pchembl>  (158) 
5.28

>  <InChI_steorem>  (158) 
InChI=1S/C31H34N3S2Se/c1-32(2)21-10-11-22-27(19-21)37-30-23-9-7-17-33-16-6-8-20(29(23)33)18-24(30)28(22)25-12-13-26(36-25)31(35)34-14-4-3-5-15-34/h10-13,18-19H,3-9,14-17H2,1-2H3

>  <source>  (158) 
ChEMBL25

>  <source_id>  (158) 
25

>  <optional_reference>  (158) 
10.1021/jm900253g

>  <optional_origin>  (158) 
None

>  <target>  (158) 
MDR1

$$$$

     RDKit          2D

 37 43  0  0  0  0  0  0  0  0999 V2000
    4.1266  -27.2982    0.0000 C   0  0  0  0  0  0  0  0  0  0  0  0
    4.8396  -26.0580    0.0000 C   0  0  0  0  0  0  0  0  0  0  0  0
    5.5550  -26.4672    0.0000 C   0  0  0  0  0  0  0  0  0  0  0  0
    5.5584  -27.3002    0.0000 C   0  0  0  0  0  0  0  0  0  0  0  0
    6.2776  -27.7115    0.0000 Se  0  0  0  0  0  2  0  0  0  0  0  0
    6.2707  -26.0454    0.0000 C   0  0  0  0  0  0  0  0  0  0  0  0
    6.9945  -26.4613    0.0000 C   0  0  0  0  0  0  0  0  0  0  0  0
    6.9974  -27.2982    0.0000 C   0  0  0  0  0  0  0  0  0  0  0  0
    7.7225  -27.7124    0.0000 C   0  0  0  0  0  0  0  0  0  0  0  0
    8.4453  -27.2907    0.0000 C   0  0  0  0  0  0  0  0  0  0  0  0
    8.4383  -26.4506    0.0000 C   0  0  0  0  0  0  0  0  0  0  0  0
    7.7126  -26.0402    0.0000 C   0  0  0  0  0  0  0  0  0  0  0  0
    6.2662  -25.2204    0.0000 C   0  0  0  0  0  0  0  0  0  0  0  0
    9.1624  -27.6986    0.0000 N   0  0  0  0  0  0  0  0  0  0  0  0
    9.1676  -28.5236    0.0000 C   0  0  0  0  0  0  0  0  0  0  0  0
    9.8742  -27.2816    0.0000 C   0  0  0  0  0  0  0  0  0  0  0  0
    3.4118  -27.7101    0.0000 N   0  0  0  0  0  0  0  0  0  0  0  0
    2.6976  -27.2970    0.0000 C   0  0  0  0  0  0  0  0  0  0  0  0
    3.4111  -28.5351    0.0000 C   0  0  0  0  0  0  0  0  0  0  0  0
    6.9316  -24.7319    0.0000 S   0  0  0  0  0  0  0  0  0  0  0  0
    6.6724  -23.9487    0.0000 C   0  0  0  0  0  0  0  0  0  0  0  0
    5.8473  -23.9533    0.0000 C   0  0  0  0  0  0  0  0  0  0  0  0
    5.5968  -24.7393    0.0000 C   0  0  0  0  0  0  0  0  0  0  0  0
    7.1536  -23.2786    0.0000 C   0  0  0  0  0  0  0  0  0  0  0  0
    7.9688  -23.3586    0.0000 N   0  0  0  0  0  0  0  0  0  0  0  0
    6.8082  -22.5250    0.0000 S   0  0  0  0  0  0  0  0  0  0  0  0
    8.3035  -24.1069    0.0000 C   0  0  0  0  0  0  0  0  0  0  0  0
    9.1150  -24.1885    0.0000 C   0  0  0  0  0  0  0  0  0  0  0  0
    9.5954  -23.5247    0.0000 O   0  0  0  0  0  0  0  0  0  0  0  0
    9.2585  -22.7770    0.0000 C   0  0  0  0  0  0  0  0  0  0  0  0
    8.4411  -22.6932    0.0000 C   0  0  0  0  0  0  0  0  0  0  0  0
    2.6983  -26.4720    0.0000 C   0  0  0  0  0  0  0  0  0  0  0  0
    3.4131  -26.0601    0.0000 C   0  0  0  0  0  0  0  0  0  0  0  0
    4.1272  -26.4732    0.0000 C   0  0  0  0  0  0  0  0  0  0  0  0
    4.1253  -28.9482    0.0000 C   0  0  0  0  0  0  0  0  0  0  0  0
    4.8401  -28.5362    0.0000 C   0  0  0  0  0  0  0  0  0  0  0  0
    4.8407  -27.7112    0.0000 C   0  0  0  0  0  0  0  0  0  0  0  0
  7  6  2  0
  1 17  1  0
  3  2  2  0
 17 18  1  0
  2 34  1  0
 17 19  1  0
 13 20  1  0
  7  8  1  0
  3  4  1  0
  8  9  2  0
 34  1  2  0
 20 21  1  0
 21 22  2  0
 22 23  1  0
 23 13  2  0
  9 10  1  0
 21 24  1  0
  1 37  1  0
 10 11  1  0
 24 25  1  0
 24 26  2  0
 25 27  1  0
 37  4  2  0
 11 12  2  0
 12  7  1  0
  6 13  1  0
 25 31  1  0
 27 28  1  0
 28 29  1  0
 29 30  1  0
 30 31  1  0
  3  6  1  0
 18 32  1  0
 10 14  2  3
 32 33  1  0
  4  5  1  0
 33 34  1  0
 14 15  1  0
 19 35  1  0
  5  8  1  0
 35 36  1  0
 14 16  1  0
 36 37  1  0
M  CHG  1  14   1
M  END
>  <Classification>  (159) 
0

>  <pchembl>  (159) 
4.85

>  <InChI_steorem>  (159) 
InChI=1S/C30H32N3OS2Se/c1-31(2)20-7-8-21-26(18-20)37-29-22-6-4-12-32-11-3-5-19(28(22)32)17-23(29)27(21)24-9-10-25(36-24)30(35)33-13-15-34-16-14-33/h7-10,17-18H,3-6,11-16H2,1-2H3

>  <source>  (159) 
ChEMBL25

>  <source_id>  (159) 
25

>  <optional_reference>  (159) 
10.1021/jm900253g

>  <optional_origin>  (159) 
None

>  <target>  (159) 
MDR1

$$$$

     RDKit          2D

 37 43  0  0  0  0  0  0  0  0999 V2000
   -4.2234  -19.5857    0.0000 C   0  0  0  0  0  0  0  0  0  0  0  0
   -3.5104  -18.3455    0.0000 C   0  0  0  0  0  0  0  0  0  0  0  0
   -2.7950  -18.7547    0.0000 C   0  0  0  0  0  0  0  0  0  0  0  0
   -2.7916  -19.5877    0.0000 C   0  0  0  0  0  0  0  0  0  0  0  0
   -2.0724  -19.9990    0.0000 S   0  0  0  0  0  0  0  0  0  0  0  0
   -2.0793  -18.3329    0.0000 C   0  0  0  0  0  0  0  0  0  0  0  0
   -1.3555  -18.7488    0.0000 C   0  0  0  0  0  0  0  0  0  0  0  0
   -1.3526  -19.5857    0.0000 C   0  0  0  0  0  0  0  0  0  0  0  0
   -0.6275  -19.9999    0.0000 C   0  0  0  0  0  0  0  0  0  0  0  0
    0.0953  -19.5782    0.0000 C   0  0  0  0  0  0  0  0  0  0  0  0
    0.0883  -18.7381    0.0000 C   0  0  0  0  0  0  0  0  0  0  0  0
   -0.6374  -18.3277    0.0000 C   0  0  0  0  0  0  0  0  0  0  0  0
   -2.0838  -17.5079    0.0000 C   0  0  0  0  0  0  0  0  0  0  0  0
    0.8124  -19.9861    0.0000 N   0  0  0  0  0  0  0  0  0  0  0  0
    0.8176  -20.8111    0.0000 C   0  0  0  0  0  0  0  0  0  0  0  0
    1.5242  -19.5691    0.0000 C   0  0  0  0  0  0  0  0  0  0  0  0
   -4.9382  -19.9976    0.0000 N   0  0  0  0  0  0  0  0  0  0  0  0
   -5.6524  -19.5845    0.0000 C   0  0  0  0  0  0  0  0  0  0  0  0
   -4.9389  -20.8226    0.0000 C   0  0  0  0  0  0  0  0  0  0  0  0
   -1.4184  -17.0194    0.0000 S   0  0  0  0  0  0  0  0  0  0  0  0
   -1.6776  -16.2362    0.0000 C   0  0  0  0  0  0  0  0  0  0  0  0
   -2.5027  -16.2408    0.0000 C   0  0  0  0  0  0  0  0  0  0  0  0
   -2.7532  -17.0268    0.0000 C   0  0  0  0  0  0  0  0  0  0  0  0
   -1.1964  -15.5661    0.0000 C   0  0  0  0  0  0  0  0  0  0  0  0
   -0.3812  -15.6461    0.0000 N   0  0  0  0  0  0  0  0  0  0  0  0
   -1.5418  -14.8125    0.0000 S   0  0  0  0  0  0  0  0  0  0  0  0
   -0.0465  -16.3944    0.0000 C   0  0  0  0  0  0  0  0  0  0  0  0
    0.7650  -16.4760    0.0000 C   0  0  0  0  0  0  0  0  0  0  0  0
    1.2454  -15.8122    0.0000 C   0  0  0  0  0  0  0  0  0  0  0  0
    0.9085  -15.0645    0.0000 C   0  0  0  0  0  0  0  0  0  0  0  0
    0.0911  -14.9807    0.0000 C   0  0  0  0  0  0  0  0  0  0  0  0
   -5.6517  -18.7595    0.0000 C   0  0  0  0  0  0  0  0  0  0  0  0
   -4.9369  -18.3476    0.0000 C   0  0  0  0  0  0  0  0  0  0  0  0
   -4.2228  -18.7607    0.0000 C   0  0  0  0  0  0  0  0  0  0  0  0
   -4.2247  -21.2357    0.0000 C   0  0  0  0  0  0  0  0  0  0  0  0
   -3.5099  -20.8237    0.0000 C   0  0  0  0  0  0  0  0  0  0  0  0
   -3.5093  -19.9987    0.0000 C   0  0  0  0  0  0  0  0  0  0  0  0
  7  6  2  0
  1 17  1  0
  3  2  2  0
 17 18  1  0
  2 34  1  0
 17 19  1  0
 13 20  1  0
  7  8  1  0
  3  4  1  0
  8  9  2  0
 34  1  2  0
 20 21  1  0
 21 22  2  0
 22 23  1  0
 23 13  2  0
  9 10  1  0
 21 24  1  0
  1 37  1  0
 10 11  1  0
 24 25  1  0
 24 26  2  0
 25 27  1  0
 37  4  2  0
 11 12  2  0
 12  7  1  0
  6 13  1  0
 25 31  1  0
 27 28  1  0
 28 29  1  0
 29 30  1  0
 30 31  1  0
  3  6  1  0
 18 32  1  0
 10 14  2  3
 32 33  1  0
  4  5  1  0
 33 34  1  0
 14 15  1  0
 19 35  1  0
  5  8  1  0
 35 36  1  0
 14 16  1  0
 36 37  1  0
M  CHG  1  14   1
M  END
>  <Classification>  (160) 
1

>  <pchembl>  (160) 
6.17

>  <InChI_steorem>  (160) 
InChI=1S/C31H34N3S3/c1-32(2)21-10-11-22-27(19-21)37-30-23-9-7-17-33-16-6-8-20(29(23)33)18-24(30)28(22)25-12-13-26(36-25)31(35)34-14-4-3-5-15-34/h10-13,18-19H,3-9,14-17H2,1-2H3

>  <source>  (160) 
ChEMBL25

>  <source_id>  (160) 
25

>  <optional_reference>  (160) 
10.1021/jm900253g

>  <optional_origin>  (160) 
None

>  <target>  (160) 
MDR1

$$$$

     RDKit          2D

 37 43  0  0  0  0  0  0  0  0999 V2000
   -4.4734  -26.8982    0.0000 C   0  0  0  0  0  0  0  0  0  0  0  0
   -3.7604  -25.6580    0.0000 C   0  0  0  0  0  0  0  0  0  0  0  0
   -3.0450  -26.0672    0.0000 C   0  0  0  0  0  0  0  0  0  0  0  0
   -3.0416  -26.9002    0.0000 C   0  0  0  0  0  0  0  0  0  0  0  0
   -2.3224  -27.3115    0.0000 S   0  0  0  0  0  0  0  0  0  0  0  0
   -2.3293  -25.6454    0.0000 C   0  0  0  0  0  0  0  0  0  0  0  0
   -1.6055  -26.0613    0.0000 C   0  0  0  0  0  0  0  0  0  0  0  0
   -1.6026  -26.8982    0.0000 C   0  0  0  0  0  0  0  0  0  0  0  0
   -0.8775  -27.3124    0.0000 C   0  0  0  0  0  0  0  0  0  0  0  0
   -0.1547  -26.8907    0.0000 C   0  0  0  0  0  0  0  0  0  0  0  0
   -0.1617  -26.0506    0.0000 C   0  0  0  0  0  0  0  0  0  0  0  0
   -0.8874  -25.6402    0.0000 C   0  0  0  0  0  0  0  0  0  0  0  0
   -2.3338  -24.8204    0.0000 C   0  0  0  0  0  0  0  0  0  0  0  0
    0.5624  -27.2986    0.0000 N   0  0  0  0  0  0  0  0  0  0  0  0
    0.5676  -28.1236    0.0000 C   0  0  0  0  0  0  0  0  0  0  0  0
    1.2742  -26.8816    0.0000 C   0  0  0  0  0  0  0  0  0  0  0  0
   -5.1882  -27.3101    0.0000 N   0  0  0  0  0  0  0  0  0  0  0  0
   -5.9024  -26.8970    0.0000 C   0  0  0  0  0  0  0  0  0  0  0  0
   -5.1889  -28.1351    0.0000 C   0  0  0  0  0  0  0  0  0  0  0  0
   -1.6684  -24.3319    0.0000 S   0  0  0  0  0  0  0  0  0  0  0  0
   -1.9276  -23.5487    0.0000 C   0  0  0  0  0  0  0  0  0  0  0  0
   -2.7527  -23.5533    0.0000 C   0  0  0  0  0  0  0  0  0  0  0  0
   -3.0032  -24.3393    0.0000 C   0  0  0  0  0  0  0  0  0  0  0  0
   -1.4464  -22.8786    0.0000 C   0  0  0  0  0  0  0  0  0  0  0  0
   -0.6312  -22.9586    0.0000 N   0  0  0  0  0  0  0  0  0  0  0  0
   -1.7918  -22.1250    0.0000 S   0  0  0  0  0  0  0  0  0  0  0  0
   -0.2965  -23.7069    0.0000 C   0  0  0  0  0  0  0  0  0  0  0  0
    0.5150  -23.7885    0.0000 C   0  0  0  0  0  0  0  0  0  0  0  0
    0.9954  -23.1247    0.0000 O   0  0  0  0  0  0  0  0  0  0  0  0
    0.6585  -22.3770    0.0000 C   0  0  0  0  0  0  0  0  0  0  0  0
   -0.1589  -22.2932    0.0000 C   0  0  0  0  0  0  0  0  0  0  0  0
   -5.9017  -26.0720    0.0000 C   0  0  0  0  0  0  0  0  0  0  0  0
   -5.1869  -25.6601    0.0000 C   0  0  0  0  0  0  0  0  0  0  0  0
   -4.4728  -26.0732    0.0000 C   0  0  0  0  0  0  0  0  0  0  0  0
   -4.4747  -28.5482    0.0000 C   0  0  0  0  0  0  0  0  0  0  0  0
   -3.7599  -28.1362    0.0000 C   0  0  0  0  0  0  0  0  0  0  0  0
   -3.7593  -27.3112    0.0000 C   0  0  0  0  0  0  0  0  0  0  0  0
  7  6  2  0
  1 17  1  0
  3  2  2  0
 17 18  1  0
  2 34  1  0
 17 19  1  0
 13 20  1  0
  7  8  1  0
  3  4  1  0
  8  9  2  0
 34  1  2  0
 20 21  1  0
 21 22  2  0
 22 23  1  0
 23 13  2  0
  9 10  1  0
 21 24  1  0
  1 37  1  0
 10 11  1  0
 24 25  1  0
 24 26  2  0
 25 27  1  0
 37  4  2  0
 11 12  2  0
 12  7  1  0
  6 13  1  0
 25 31  1  0
 27 28  1  0
 28 29  1  0
 29 30  1  0
 30 31  1  0
  3  6  1  0
 18 32  1  0
 10 14  2  3
 32 33  1  0
  4  5  1  0
 33 34  1  0
 14 15  1  0
 19 35  1  0
  5  8  1  0
 35 36  1  0
 14 16  1  0
 36 37  1  0
M  CHG  1  14   1
M  END
>  <Classification>  (161) 
0

>  <pchembl>  (161) 
4.7

>  <InChI_steorem>  (161) 
InChI=1S/C30H32N3OS3/c1-31(2)20-7-8-21-26(18-20)37-29-22-6-4-12-32-11-3-5-19(28(22)32)17-23(29)27(21)24-9-10-25(36-24)30(35)33-13-15-34-16-14-33/h7-10,17-18H,3-6,11-16H2,1-2H3

>  <source>  (161) 
ChEMBL25

>  <source_id>  (161) 
25

>  <optional_reference>  (161) 
10.1021/jm900253g

>  <optional_origin>  (161) 
None

>  <target>  (161) 
MDR1

$$$$

     RDKit          2D

 27 29  0  0  0  0  0  0  0  0999 V2000
   15.4742  -21.3145    0.0000 C   0  0  0  0  0  0  0  0  0  0  0  0
   15.4730  -22.1413    0.0000 C   0  0  0  0  0  0  0  0  0  0  0  0
   16.1876  -22.5540    0.0000 C   0  0  0  0  0  0  0  0  0  0  0  0
   16.1858  -20.9019    0.0000 C   0  0  0  0  0  0  0  0  0  0  0  0
   16.9007  -21.3108    0.0000 C   0  0  0  0  0  0  0  0  0  0  0  0
   16.9042  -22.1434    0.0000 C   0  0  0  0  0  0  0  0  0  0  0  0
   17.6230  -22.5545    0.0000 C   0  0  0  0  0  0  0  0  0  0  0  0
   18.3430  -22.1375    0.0000 C   0  0  0  0  0  0  0  0  0  0  0  0
   18.3396  -21.3049    0.0000 C   0  0  0  0  0  0  0  0  0  0  0  0
   17.6162  -20.8892    0.0000 O   0  0  0  0  0  0  0  0  0  0  0  0
   17.6253  -23.3791    0.0000 O   0  0  0  0  0  0  0  0  0  0  0  0
   19.0525  -20.8904    0.0000 C   0  0  0  0  0  0  0  0  0  0  0  0
   19.7671  -21.3026    0.0000 C   0  0  0  0  0  0  0  0  0  0  0  0
   20.4795  -20.8888    0.0000 C   0  0  0  0  0  0  0  0  0  0  0  0
   20.4774  -20.0633    0.0000 C   0  0  0  0  0  0  0  0  0  0  0  0
   19.7569  -19.6534    0.0000 C   0  0  0  0  0  0  0  0  0  0  0  0
   19.0476  -20.0695    0.0000 C   0  0  0  0  0  0  0  0  0  0  0  0
   21.1896  -19.6478    0.0000 O   0  0  0  0  0  0  0  0  0  0  0  0
   21.9056  -20.0569    0.0000 C   0  0  0  0  0  0  0  0  0  0  0  0
   16.1833  -20.0773    0.0000 O   0  0  0  0  0  0  0  0  0  0  0  0
   16.8961  -19.6629    0.0000 C   0  0  0  0  0  0  0  0  0  0  0  0
   14.7600  -20.9023    0.0000 O   0  0  0  0  0  0  0  0  0  0  0  0
   14.7598  -20.0777    0.0000 C   0  0  0  0  0  0  0  0  0  0  0  0
   14.7586  -22.5531    0.0000 O   0  0  0  0  0  0  0  0  0  0  0  0
   14.0449  -22.1402    0.0000 C   0  0  0  0  0  0  0  0  0  0  0  0
   16.1861  -23.3786    0.0000 O   0  0  0  0  0  0  0  0  0  0  0  0
   15.4712  -23.7896    0.0000 C   0  0  0  0  0  0  0  0  0  0  0  0
 12 13  2  0
  3  6  2  0
 13 14  1  0
  1  2  2  0
 14 15  2  0
  5  4  2  0
 15 16  1  0
  4  1  1  0
 16 17  2  0
 17 12  1  0
  5 10  1  0
 15 18  1  0
  6  7  1  0
 18 19  1  0
  7  8  1  0
  4 20  1  0
  8  9  2  0
 20 21  1  0
  9 10  1  0
  1 22  1  0
  5  6  1  0
 22 23  1  0
  7 11  2  0
  2 24  1  0
 24 25  1  0
  9 12  1  0
  3 26  1  0
  2  3  1  0
 26 27  1  0
M  END
>  <Classification>  (162) 
0

>  <pchembl>  (162) 
4.41

>  <InChI_steorem>  (162) 
InChI=1S/C20H20O7/c1-22-12-8-6-11(7-9-12)14-10-13(21)15-16(23-2)18(24-3)20(26-5)19(25-4)17(15)27-14/h6-10H,1-5H3

>  <source>  (162) 
ChEMBL25

>  <source_id>  (162) 
25

>  <optional_reference>  (162) 
10.1016/j.bmc.2010.12.043

>  <optional_origin>  (162) 
None

>  <target>  (162) 
MDR1

$$$$

     RDKit          2D

 19 21  0  0  0  0  0  0  0  0999 V2000
    8.4684  -21.4765    0.0000 C   0  0  0  0  0  0  0  0  0  0  0  0
    8.4673  -22.3029    0.0000 C   0  0  0  0  0  0  0  0  0  0  0  0
    9.1813  -22.7153    0.0000 C   0  0  0  0  0  0  0  0  0  0  0  0
    9.1795  -21.0641    0.0000 C   0  0  0  0  0  0  0  0  0  0  0  0
    9.8942  -21.4728    0.0000 C   0  0  0  0  0  0  0  0  0  0  0  0
    9.8930  -22.3050    0.0000 C   0  0  0  0  0  0  0  0  0  0  0  0
   10.6091  -22.7198    0.0000 C   0  0  0  0  0  0  0  0  0  0  0  0
   11.3309  -22.3071    0.0000 C   0  0  0  0  0  0  0  0  0  0  0  0
   11.3321  -21.4749    0.0000 C   0  0  0  0  0  0  0  0  0  0  0  0
   10.6115  -21.0554    0.0000 O   0  0  0  0  0  0  0  0  0  0  0  0
   10.6067  -23.5439    0.0000 O   0  0  0  0  0  0  0  0  0  0  0  0
   12.0451  -21.0671    0.0000 C   0  0  0  0  0  0  0  0  0  0  0  0
   12.7580  -21.4827    0.0000 C   0  0  0  0  0  0  0  0  0  0  0  0
   13.4722  -21.0731    0.0000 C   0  0  0  0  0  0  0  0  0  0  0  0
   13.4747  -20.2481    0.0000 C   0  0  0  0  0  0  0  0  0  0  0  0
   12.7570  -19.8345    0.0000 C   0  0  0  0  0  0  0  0  0  0  0  0
   12.0352  -20.2301    0.0000 C   0  0  0  0  0  0  0  0  0  0  0  0
    7.7533  -22.7144    0.0000 O   0  0  0  0  0  0  0  0  0  0  0  0
    7.0399  -22.3018    0.0000 C   0  0  0  0  0  0  0  0  0  0  0  0
  7  8  1  0
  8  9  1  0
  9 10  1  0
  5  6  1  0
  7 11  2  0
  2  3  1  0
 12 13  2  0
  3  6  2  0
 13 14  1  0
  1  2  2  0
 14 15  2  0
  5  4  2  0
 15 16  1  0
 16 17  2  0
 17 12  1  0
  9 12  1  0
  4  1  1  0
  5 10  1  0
  2 18  1  0
  6  7  1  0
 18 19  1  0
M  END
>  <Classification>  (163) 
0

>  <pchembl>  (163) 
4.19

>  <InChI_steorem>  (163) 
InChI=1S/C16H14O3/c1-18-12-7-8-15-13(9-12)14(17)10-16(19-15)11-5-3-2-4-6-11/h2-9,16H,10H2,1H3

>  <source>  (163) 
ChEMBL25

>  <source_id>  (163) 
25

>  <optional_reference>  (163) 
10.1016/j.bmc.2010.12.043

>  <optional_origin>  (163) 
None

>  <target>  (163) 
MDR1

$$$$

     RDKit          2D

 21 23  0  0  0  0  0  0  0  0999 V2000
   12.7027  -17.6916    0.0000 C   0  0  0  0  0  0  0  0  0  0  0  0
   12.7016  -18.5190    0.0000 C   0  0  0  0  0  0  0  0  0  0  0  0
   13.4164  -18.9319    0.0000 C   0  0  0  0  0  0  0  0  0  0  0  0
   13.4146  -17.2789    0.0000 C   0  0  0  0  0  0  0  0  0  0  0  0
   14.1300  -17.6880    0.0000 C   0  0  0  0  0  0  0  0  0  0  0  0
   14.1288  -18.5165    0.0000 C   0  0  0  0  0  0  0  0  0  0  0  0
   14.8418  -18.9294    0.0000 C   0  0  0  0  0  0  0  0  0  0  0  0
   15.5604  -18.5185    0.0000 C   0  0  0  0  0  0  0  0  0  0  0  0
   15.5616  -17.6900    0.0000 C   0  0  0  0  0  0  0  0  0  0  0  0
   14.8441  -17.2725    0.0000 O   0  0  0  0  0  0  0  0  0  0  0  0
   14.8375  -19.7542    0.0000 O   0  0  0  0  0  0  0  0  0  0  0  0
   16.2752  -17.2822    0.0000 C   0  0  0  0  0  0  0  0  0  0  0  0
   16.9890  -17.6982    0.0000 C   0  0  0  0  0  0  0  0  0  0  0  0
   17.7039  -17.2881    0.0000 C   0  0  0  0  0  0  0  0  0  0  0  0
   17.7064  -16.4622    0.0000 C   0  0  0  0  0  0  0  0  0  0  0  0
   16.9879  -16.0481    0.0000 C   0  0  0  0  0  0  0  0  0  0  0  0
   16.2759  -16.4606    0.0000 C   0  0  0  0  0  0  0  0  0  0  0  0
   18.4172  -17.7027    0.0000 O   0  0  0  0  0  0  0  0  0  0  0  0
   18.4148  -18.5277    0.0000 C   0  0  0  0  0  0  0  0  0  0  0  0
   18.4213  -16.0505    0.0000 O   0  0  0  0  0  0  0  0  0  0  0  0
   19.1353  -16.4638    0.0000 C   0  0  0  0  0  0  0  0  0  0  0  0
  9 10  1  0
  5  6  1  0
  7 11  2  0
  2  3  1  0
 12 13  2  0
  3  6  2  0
 13 14  1  0
  1  2  2  0
 14 15  2  0
  5  4  2  0
 15 16  1  0
  4  1  1  0
 16 17  2  0
 17 12  1  0
  9 12  1  0
  5 10  1  0
 14 18  1  0
  6  7  1  0
 18 19  1  0
  7  8  1  0
 15 20  1  0
  8  9  2  0
 20 21  1  0
M  END
>  <Classification>  (164) 
1

>  <pchembl>  (164) 
5.92

>  <InChI_steorem>  (164) 
InChI=1S/C17H14O4/c1-19-15-8-7-11(9-17(15)20-2)16-10-13(18)12-5-3-4-6-14(12)21-16/h3-10H,1-2H3

>  <source>  (164) 
ChEMBL25

>  <source_id>  (164) 
25

>  <optional_reference>  (164) 
10.1016/j.bbrc.2004.06.020

>  <optional_origin>  (164) 
None

>  <target>  (164) 
MDR1

$$$$

     RDKit          2D

 22 24  0  0  0  0  0  0  0  0999 V2000
   13.4122   -6.2777    0.0000 C   0  0  0  0  0  0  0  0  0  0  0  0
   13.4104   -4.6247    0.0000 C   0  0  0  0  0  0  0  0  0  0  0  0
   14.1258   -5.0338    0.0000 C   0  0  0  0  0  0  0  0  0  0  0  0
   14.1246   -5.8669    0.0000 C   0  0  0  0  0  0  0  0  0  0  0  0
   14.8415   -6.2822    0.0000 O   0  0  0  0  0  0  0  0  0  0  0  0
   15.5642   -5.8690    0.0000 C   0  0  0  0  0  0  0  0  0  0  0  0
   15.5654   -5.0359    0.0000 C   0  0  0  0  0  0  0  0  0  0  0  0
   14.8439   -4.6160    0.0000 C   0  0  0  0  0  0  0  0  0  0  0  0
   16.2775   -6.2835    0.0000 O   0  0  0  0  0  0  0  0  0  0  0  0
   12.6974   -5.8648    0.0000 C   0  0  0  0  0  0  0  0  0  0  0  0
   12.6941   -5.0405    0.0000 C   0  0  0  0  0  0  0  0  0  0  0  0
   11.9091   -4.7889    0.0000 C   0  0  0  0  0  0  0  0  0  0  0  0
   11.4272   -5.4578    0.0000 C   0  0  0  0  0  0  0  0  0  0  0  0
   11.9145   -6.1227    0.0000 O   0  0  0  0  0  0  0  0  0  0  0  0
   13.4119   -7.1027    0.0000 O   0  0  0  0  0  0  0  0  0  0  0  0
   12.6973   -7.5149    0.0000 C   0  0  0  0  0  0  0  0  0  0  0  0
   12.6970   -8.3399    0.0000 C   0  0  0  0  0  0  0  0  0  0  0  0
   13.4113   -8.7527    0.0000 C   0  0  0  0  0  0  0  0  0  0  0  0
   13.4110   -9.5777    0.0000 C   0  0  0  0  0  0  0  0  0  0  0  0
   14.1260   -8.3405    0.0000 C   0  0  0  0  0  0  0  0  0  0  0  0
   13.4078   -3.7997    0.0000 O   0  0  0  0  0  0  0  0  0  0  0  0
   14.1209   -3.3849    0.0000 C   0  0  0  0  0  0  0  0  0  0  0  0
  1  4  2  0
  3  2  2  0
  2 11  1  0
  3  4  1  0
 11 12  1  0
 12 13  2  0
 13 14  1  0
 14 10  1  0
  3  8  1  0
  1 15  1  0
  4  5  1  0
 15 16  1  0
  5  6  1  0
 16 17  1  0
  6  7  1  0
 17 18  2  3
  7  8  2  0
 18 19  1  0
 10  1  1  0
 18 20  1  0
  6  9  2  0
  2 21  1  0
 10 11  2  0
 21 22  1  0
M  END
>  <Classification>  (165) 
0

>  <pchembl>  (165) 
4.5

>  <InChI_steorem>  (165) 
InChI=1S/C17H16O5/c1-10(2)6-8-21-17-15-12(7-9-20-15)14(19-3)11-4-5-13(18)22-16(11)17/h4-7,9H,8H2,1-3H3

>  <source>  (165) 
ChEMBL25

>  <source_id>  (165) 
25

>  <optional_reference>  (165) 
10.1039/C4MD00196F

>  <optional_origin>  (165) 
None

>  <target>  (165) 
MDR1

$$$$

     RDKit          2D

 25 27  0  0  0  0  0  0  0  0999 V2000
    0.1366  -24.2659    0.0000 C   0  0  0  0  0  0  0  0  0  0  0  0
    0.8575  -23.8542    0.0000 C   0  0  0  0  0  0  0  0  0  0  0  0
    0.8544  -23.0221    0.0000 C   0  0  0  0  0  0  0  0  0  0  0  0
    0.1346  -22.6104    0.0000 C   0  0  0  0  0  0  0  0  0  0  0  0
   -0.5779  -23.8547    0.0000 C   0  0  0  0  0  0  0  0  0  0  0  0
   -0.5737  -23.0305    0.0000 C   0  0  0  0  0  0  0  0  0  0  0  0
   -1.2820  -22.6148    0.0000 O   0  0  0  0  0  0  0  0  0  0  0  0
   -1.9992  -23.0233    0.0000 C   0  0  0  0  0  0  0  0  0  0  0  0
   -2.0034  -23.8474    0.0000 C   0  0  0  0  0  0  0  0  0  0  0  0
   -1.2905  -24.2631    0.0000 C   0  0  0  0  0  0  0  0  0  0  0  0
   -1.2935  -25.0893    0.0000 O   0  0  0  0  0  0  0  0  0  0  0  0
   -2.7219  -24.2538    0.0000 O   0  0  0  0  0  0  0  0  0  0  0  0
   -3.4355  -23.8387    0.0000 C   0  0  0  0  0  0  0  0  0  0  0  0
    1.5638  -22.6032    0.0000 O   0  0  0  0  0  0  0  0  0  0  0  0
    2.2819  -23.0149    0.0000 C   0  0  0  0  0  0  0  0  0  0  0  0
    1.5694  -24.2643    0.0000 O   0  0  0  0  0  0  0  0  0  0  0  0
    1.5701  -25.0904    0.0000 C   0  0  0  0  0  0  0  0  0  0  0  0
    0.1353  -25.0920    0.0000 O   0  0  0  0  0  0  0  0  0  0  0  0
   -2.7125  -22.6033    0.0000 C   0  0  0  0  0  0  0  0  0  0  0  0
   -2.7056  -21.7776    0.0000 C   0  0  0  0  0  0  0  0  0  0  0  0
   -3.4182  -21.3623    0.0000 C   0  0  0  0  0  0  0  0  0  0  0  0
   -4.1334  -21.7685    0.0000 C   0  0  0  0  0  0  0  0  0  0  0  0
   -4.1361  -22.5988    0.0000 C   0  0  0  0  0  0  0  0  0  0  0  0
   -3.4275  -23.0149    0.0000 C   0  0  0  0  0  0  0  0  0  0  0  0
   -4.8472  -21.3540    0.0000 O   0  0  0  0  0  0  0  0  0  0  0  0
  9 12  1  0
  5  1  2  0
 12 13  1  0
  2  3  2  0
  3 14  1  0
 14 15  1  0
  3  4  1  0
  2 16  1  0
  4  6  2  0
 16 17  1  0
  5 10  1  0
  1 18  1  0
  6  7  1  0
  8 19  1  0
  7  8  1  0
 19 20  2  0
  8  9  2  0
 20 21  1  0
  9 10  1  0
 21 22  2  0
  5  6  1  0
 22 23  1  0
 10 11  2  0
 23 24  2  0
 24 19  1  0
  1  2  1  0
 22 25  1  0
M  END
>  <Classification>  (166) 
0

>  <pchembl>  (166) 
4.85

>  <InChI_steorem>  (166) 
InChI=1S/C18H16O7/c1-22-12-8-11-13(14(20)17(12)23-2)15(21)18(24-3)16(25-11)9-4-6-10(19)7-5-9/h4-8,19-20H,1-3H3

>  <source>  (166) 
ChEMBL25

>  <source_id>  (166) 
25

>  <optional_reference>  (166) 
10.1016/j.bmc.2010.12.043

>  <optional_origin>  (166) 
None

>  <target>  (166) 
MDR1

$$$$

     RDKit          2D

 27 29  0  0  0  0  0  0  0  0999 V2000
    4.1902  -10.2833    0.0000 C   0  0  0  0  0  0  0  0  0  0  0  0
    4.1891  -11.1107    0.0000 C   0  0  0  0  0  0  0  0  0  0  0  0
    4.9039  -11.5235    0.0000 C   0  0  0  0  0  0  0  0  0  0  0  0
    4.9021   -9.8705    0.0000 C   0  0  0  0  0  0  0  0  0  0  0  0
    5.6175  -10.2797    0.0000 C   0  0  0  0  0  0  0  0  0  0  0  0
    5.6163  -11.1127    0.0000 C   0  0  0  0  0  0  0  0  0  0  0  0
    6.3332  -11.5280    0.0000 C   0  0  0  0  0  0  0  0  0  0  0  0
    7.0558  -11.1148    0.0000 C   0  0  0  0  0  0  0  0  0  0  0  0
    7.0570  -10.2817    0.0000 C   0  0  0  0  0  0  0  0  0  0  0  0
    6.3356   -9.8619    0.0000 O   0  0  0  0  0  0  0  0  0  0  0  0
    6.3308  -12.3530    0.0000 O   0  0  0  0  0  0  0  0  0  0  0  0
    7.7708   -9.8736    0.0000 C   0  0  0  0  0  0  0  0  0  0  0  0
    8.4845  -10.2895    0.0000 C   0  0  0  0  0  0  0  0  0  0  0  0
    9.1995   -9.8795    0.0000 C   0  0  0  0  0  0  0  0  0  0  0  0
    9.2020   -9.0536    0.0000 C   0  0  0  0  0  0  0  0  0  0  0  0
    8.4835   -8.6395    0.0000 C   0  0  0  0  0  0  0  0  0  0  0  0
    7.7715   -9.0520    0.0000 C   0  0  0  0  0  0  0  0  0  0  0  0
    4.9036  -12.3485    0.0000 O   0  0  0  0  0  0  0  0  0  0  0  0
    3.4743  -11.5226    0.0000 O   0  0  0  0  0  0  0  0  0  0  0  0
    3.4757   -9.8710    0.0000 O   0  0  0  0  0  0  0  0  0  0  0  0
    3.4755   -9.0460    0.0000 C   0  0  0  0  0  0  0  0  0  0  0  0
    3.4736  -12.3476    0.0000 C   0  0  0  0  0  0  0  0  0  0  0  0
    9.9169   -8.6419    0.0000 O   0  0  0  0  0  0  0  0  0  0  0  0
   10.6309   -9.0552    0.0000 C   0  0  0  0  0  0  0  0  0  0  0  0
    9.9128  -10.2941    0.0000 O   0  0  0  0  0  0  0  0  0  0  0  0
    9.9104  -11.1191    0.0000 C   0  0  0  0  0  0  0  0  0  0  0  0
    5.6179  -12.7613    0.0000 C   0  0  0  0  0  0  0  0  0  0  0  0
  3  6  2  0
 13 14  2  0
  1  2  2  0
 14 15  1  0
  5  4  2  0
 15 16  2  0
  4  1  1  0
 16 17  1  0
 17 12  2  0
  9 12  1  0
  5 10  1  0
  3 18  1  0
  6  7  1  0
  2 19  1  0
  7  8  1  0
  1 20  1  0
  8  9  2  0
 20 21  1  0
  9 10  1  0
 19 22  1  0
  5  6  1  0
 15 23  1  0
  7 11  2  0
 23 24  1  0
 14 25  1  0
  2  3  1  0
 25 26  1  0
 12 13  1  0
 18 27  1  0
M  END
>  <Classification>  (167) 
0

>  <pchembl>  (167) 
4.54

>  <InChI_steorem>  (167) 
InChI=1S/C20H20O7/c1-22-13-7-6-11(8-15(13)23-2)14-9-12(21)18-16(27-14)10-17(24-3)19(25-4)20(18)26-5/h6-10H,1-5H3

>  <source>  (167) 
ChEMBL25

>  <source_id>  (167) 
25

>  <optional_reference>  (167) 
10.1016/j.bmc.2010.12.043

>  <optional_origin>  (167) 
None

>  <target>  (167) 
MDR1

$$$$

     RDKit          2D

 27 29  0  0  0  0  0  0  0  0999 V2000
    4.8569  -24.4083    0.0000 C   0  0  0  0  0  0  0  0  0  0  0  0
    4.8557  -25.2357    0.0000 C   0  0  0  0  0  0  0  0  0  0  0  0
    5.5706  -25.6485    0.0000 C   0  0  0  0  0  0  0  0  0  0  0  0
    5.5688  -23.9955    0.0000 C   0  0  0  0  0  0  0  0  0  0  0  0
    6.2841  -24.4047    0.0000 C   0  0  0  0  0  0  0  0  0  0  0  0
    6.2830  -25.2331    0.0000 C   0  0  0  0  0  0  0  0  0  0  0  0
    6.9959  -25.6461    0.0000 C   0  0  0  0  0  0  0  0  0  0  0  0
    7.7146  -25.2352    0.0000 C   0  0  0  0  0  0  0  0  0  0  0  0
    7.7158  -24.4067    0.0000 C   0  0  0  0  0  0  0  0  0  0  0  0
    6.9983  -23.9891    0.0000 O   0  0  0  0  0  0  0  0  0  0  0  0
    6.9936  -26.4711    0.0000 O   0  0  0  0  0  0  0  0  0  0  0  0
    8.4294  -23.9989    0.0000 C   0  0  0  0  0  0  0  0  0  0  0  0
    9.1431  -24.4148    0.0000 C   0  0  0  0  0  0  0  0  0  0  0  0
    9.1421  -22.7648    0.0000 C   0  0  0  0  0  0  0  0  0  0  0  0
    8.4300  -23.1773    0.0000 C   0  0  0  0  0  0  0  0  0  0  0  0
    9.8606  -23.1789    0.0000 C   0  0  0  0  0  0  0  0  0  0  0  0
    9.8587  -24.0004    0.0000 C   0  0  0  0  0  0  0  0  0  0  0  0
    8.4279  -25.6497    0.0000 O   0  0  0  0  0  0  0  0  0  0  0  0
    5.5722  -26.4735    0.0000 O   0  0  0  0  0  0  0  0  0  0  0  0
   10.5753  -22.7669    0.0000 O   0  0  0  0  0  0  0  0  0  0  0  0
    4.1423  -23.9960    0.0000 O   0  0  0  0  0  0  0  0  0  0  0  0
    8.4256  -26.4747    0.0000 C   0  0  0  0  0  0  0  0  0  0  0  0
   10.5730  -24.4132    0.0000 O   0  0  0  0  0  0  0  0  0  0  0  0
   11.2895  -23.1799    0.0000 C   0  0  0  0  0  0  0  0  0  0  0  0
    6.2876  -26.8846    0.0000 C   0  0  0  0  0  0  0  0  0  0  0  0
    4.1421  -23.1710    0.0000 C   0  0  0  0  0  0  0  0  0  0  0  0
   11.2877  -24.0010    0.0000 C   0  0  0  0  0  0  0  0  0  0  0  0
 13 17  2  0
  3  6  2  0
 16 14  2  0
  1  2  2  0
 14 15  1  0
 15 12  2  0
  9 12  1  0
 16 17  1  0
  5  4  2  0
  4  1  1  0
  5 10  1  0
  8 18  1  0
  6  7  1  0
  3 19  1  0
  7  8  1  0
 16 20  1  0
  8  9  2  0
  1 21  1  0
  9 10  1  0
 18 22  1  0
  5  6  1  0
 17 23  1  0
  7 11  2  0
 20 24  1  0
 19 25  1  0
  2  3  1  0
 21 26  1  0
 12 13  1  0
 23 27  1  0
M  END
>  <Classification>  (168) 
0

>  <pchembl>  (168) 
4.63

>  <InChI_steorem>  (168) 
InChI=1S/C20H20O7/c1-22-12-9-15(25-4)17-16(10-12)27-19(20(26-5)18(17)21)11-6-7-13(23-2)14(8-11)24-3/h6-10H,1-5H3

>  <source>  (168) 
ChEMBL25

>  <source_id>  (168) 
25

>  <optional_reference>  (168) 
10.1016/j.ejmech.2013.06.035

>  <optional_origin>  (168) 
None

>  <target>  (168) 
MDR1

$$$$

     RDKit          2D

 29 31  0  0  0  0  0  0  0  0999 V2000
    8.5417   -2.2000    0.0000 C   0  0  0  0  0  0  0  0  0  0  0  0
    8.5405   -3.0275    0.0000 C   0  0  0  0  0  0  0  0  0  0  0  0
    9.2534   -3.4405    0.0000 C   0  0  0  0  0  0  0  0  0  0  0  0
    9.2514   -1.7872    0.0000 C   0  0  0  0  0  0  0  0  0  0  0  0
    9.9696   -2.1959    0.0000 C   0  0  0  0  0  0  0  0  0  0  0  0
    9.9687   -3.0250    0.0000 C   0  0  0  0  0  0  0  0  0  0  0  0
   10.6823   -3.4379    0.0000 C   0  0  0  0  0  0  0  0  0  0  0  0
   11.4013   -3.0265    0.0000 C   0  0  0  0  0  0  0  0  0  0  0  0
   11.4023   -2.1975    0.0000 C   0  0  0  0  0  0  0  0  0  0  0  0
   10.6841   -1.7799    0.0000 O   0  0  0  0  0  0  0  0  0  0  0  0
   10.6803   -4.2629    0.0000 O   0  0  0  0  0  0  0  0  0  0  0  0
   12.1176   -1.7865    0.0000 C   0  0  0  0  0  0  0  0  0  0  0  0
   12.8283   -2.2012    0.0000 C   0  0  0  0  0  0  0  0  0  0  0  0
   13.5431   -1.7908    0.0000 C   0  0  0  0  0  0  0  0  0  0  0  0
   13.5453   -0.9649    0.0000 C   0  0  0  0  0  0  0  0  0  0  0  0
   12.8266   -0.5511    0.0000 C   0  0  0  0  0  0  0  0  0  0  0  0
   12.1147   -0.9638    0.0000 C   0  0  0  0  0  0  0  0  0  0  0  0
   12.8254    0.2739    0.0000 O   0  0  0  0  0  0  0  0  0  0  0  0
   13.5393    0.6874    0.0000 C   0  0  0  0  0  0  0  0  0  0  0  0
   14.2600   -0.5530    0.0000 O   0  0  0  0  0  0  0  0  0  0  0  0
   14.9742   -0.9660    0.0000 C   0  0  0  0  0  0  0  0  0  0  0  0
    9.2540   -4.2655    0.0000 O   0  0  0  0  0  0  0  0  0  0  0  0
    8.5397   -4.6784    0.0000 C   0  0  0  0  0  0  0  0  0  0  0  0
    7.8254   -3.4390    0.0000 O   0  0  0  0  0  0  0  0  0  0  0  0
    7.1115   -3.0255    0.0000 C   0  0  0  0  0  0  0  0  0  0  0  0
    7.8269   -1.7880    0.0000 O   0  0  0  0  0  0  0  0  0  0  0  0
    7.8263   -0.9630    0.0000 C   0  0  0  0  0  0  0  0  0  0  0  0
    9.2476   -0.9622    0.0000 O   0  0  0  0  0  0  0  0  0  0  0  0
    9.9602   -0.5464    0.0000 C   0  0  0  0  0  0  0  0  0  0  0  0
 13 14  2  0
  1  2  2  0
 14 15  1  0
  5  4  2  0
 15 16  2  0
  4  1  1  0
 16 17  1  0
 17 12  2  0
  5 10  1  0
 16 18  1  0
  6  7  1  0
 18 19  1  0
  7  8  1  0
 15 20  1  0
  8  9  2  0
 20 21  1  0
  9 10  1  0
  3 22  1  0
  5  6  1  0
 22 23  1  0
  7 11  2  0
  2 24  1  0
 24 25  1  0
  9 12  1  0
  1 26  1  0
  2  3  1  0
 26 27  1  0
 12 13  1  0
  4 28  1  0
  3  6  2  0
 28 29  1  0
M  END
>  <Classification>  (169) 
0

>  <pchembl>  (169) 
4.94

>  <InChI_steorem>  (169) 
InChI=1S/C21H22O8/c1-23-13-8-7-11(9-15(13)24-2)14-10-12(22)16-17(25-3)19(26-4)21(28-6)20(27-5)18(16)29-14/h7-10H,1-6H3

>  <source>  (169) 
ChEMBL25

>  <source_id>  (169) 
25

>  <optional_reference>  (169) 
10.1021/tx010125x

>  <optional_origin>  (169) 
None

>  <target>  (169) 
MDR1

$$$$

     RDKit          2D

 36 39  0  0  0  0  0  0  0  0999 V2000
    2.4208  -20.9750    0.0000 C   0  0  0  0  0  0  0  0  0  0  0  0
    1.7049  -20.5625    0.0000 C   0  0  0  0  0  0  0  0  0  0  0  0
    1.7049  -19.7375    0.0000 N   0  0  0  0  0  0  0  0  0  0  0  0
    2.4208  -19.3250    0.0000 C   0  0  0  0  0  0  0  0  0  0  0  0
    3.1325  -19.7375    0.0000 C   0  0  0  0  0  0  0  0  0  0  0  0
    3.8483  -19.3250    0.0000 O   0  0  0  0  0  0  0  0  0  0  0  0
   -1.8703  -18.5000    0.0000 C   0  0  0  0  0  0  0  0  0  0  0  0
   -1.8703  -19.3250    0.0000 N   0  0  0  0  0  0  0  0  0  0  0  0
   -1.1544  -19.7375    0.0000 C   0  0  0  0  0  0  0  0  0  0  0  0
   -0.4385  -19.3250    0.0000 C   0  0  0  0  0  0  0  0  0  0  0  0
   -0.4385  -18.5000    0.0000 C   0  0  0  0  0  0  0  0  0  0  0  0
   -1.1544  -18.0875    0.0000 N   0  0  0  0  0  0  0  0  0  0  0  0
    0.9890  -19.3250    0.0000 C   0  0  0  0  0  0  0  0  0  0  0  0
    0.9890  -18.5000    0.0000 N   0  0  0  0  0  0  0  0  0  0  0  0
    0.2773  -18.0875    0.0000 C   0  0  0  0  0  0  0  0  0  0  0  0
    0.2773  -19.7375    0.0000 N   0  0  0  0  0  0  0  0  0  0  0  0
    0.2773  -17.2625    0.0000 N   0  0  0  0  0  0  0  0  0  0  0  0
   -0.4385  -16.8500    0.0000 C   0  0  0  0  0  0  0  0  0  0  0  0
   -0.4385  -16.0250    0.0000 C   0  0  0  0  0  0  0  0  0  0  0  0
    0.2773  -15.6125    0.0000 C   0  0  0  0  0  0  0  0  0  0  0  0
    0.9890  -16.0250    0.0000 C   0  0  0  0  0  0  0  0  0  0  0  0
    0.9890  -16.8500    0.0000 C   0  0  0  0  0  0  0  0  0  0  0  0
   -1.1544  -20.5625    0.0000 N   0  0  0  0  0  0  0  0  0  0  0  0
   -0.4385  -20.9750    0.0000 C   0  0  0  0  0  0  0  0  0  0  0  0
   -0.4385  -21.8000    0.0000 C   0  0  0  0  0  0  0  0  0  0  0  0
   -1.1544  -22.2125    0.0000 C   0  0  0  0  0  0  0  0  0  0  0  0
   -1.8703  -21.8000    0.0000 C   0  0  0  0  0  0  0  0  0  0  0  0
   -1.8703  -20.9750    0.0000 C   0  0  0  0  0  0  0  0  0  0  0  0
   -2.5820  -18.0875    0.0000 N   0  0  0  0  0  0  0  0  0  0  0  0
   -3.2978  -18.5000    0.0000 C   0  0  0  0  0  0  0  0  0  0  0  0
   -4.0095  -18.0875    0.0000 C   0  0  0  0  0  0  0  0  0  0  0  0
   -4.7254  -18.5000    0.0000 O   0  0  0  0  0  0  0  0  0  0  0  0
   -2.5820  -17.2625    0.0000 C   0  0  0  0  0  0  0  0  0  0  0  0
   -3.2978  -16.8500    0.0000 C   0  0  0  0  0  0  0  0  0  0  0  0
   -4.0095  -17.2625    0.0000 O   0  0  0  0  0  0  0  0  0  0  0  0
    3.1325  -20.5625    0.0000 O   0  0  0  0  0  0  0  0  0  0  0  0
  1  2  1  0
  4  5  1  0
  5  6  1  0
  3  4  1  0
  7  8  2  0
  8  9  1  0
  9 10  2  0
 10 11  1  0
 11 12  2  0
  7 12  1  0
 13 14  1  0
 14 15  2  0
 13 16  2  0
 10 16  1  0
 11 15  1  0
 17 18  1  0
 18 19  1  0
 19 20  1  0
 20 21  1  0
 21 22  1  0
 17 22  1  0
 15 17  1  0
 23 24  1  0
 24 25  1  0
 25 26  1  0
 26 27  1  0
 27 28  1  0
 23 28  1  0
  9 23  1  0
 30 31  1  0
 31 32  1  0
 29 30  1  0
 33 34  1  0
 34 35  1  0
 29 33  1  0
  7 29  1  0
  3 13  1  0
  2  3  1  0
  1 36  1  0
M  END
>  <Classification>  (170) 
0

>  <pchembl>  (170) 
4.46

>  <InChI_steorem>  (170) 
InChI=1S/C24H40N8O4/c33-15-11-31(12-16-34)23-26-20-19(21(27-23)29-7-3-1-4-8-29)25-24(32(13-17-35)14-18-36)28-22(20)30-9-5-2-6-10-30/h33-36H,1-18H2

>  <source>  (170) 
ChEMBL25

>  <source_id>  (170) 
25

>  <optional_reference>  (170) 
10.1006/bbrc.2001.6000

>  <optional_origin>  (170) 
None

>  <target>  (170) 
MDR1

$$$$

     RDKit          2D

 45 52  0  0  0  0  0  0  0  0999 V2000
   -2.3471   -1.1840    0.0000 C   0  0  0  0  0  0  0  0  0  0  0  0
   -1.9344    0.0875    0.0000 C   0  0  0  0  0  0  0  0  0  0  0  0
   -2.5997   -0.3994    0.0000 C   0  0  0  0  0  0  0  0  0  0  0  0
   -1.2647   -0.3994    0.0000 N   0  0  0  0  0  0  0  0  0  0  0  0
   -1.5274   -1.1868    0.0000 C   0  0  0  0  0  0  0  0  0  0  0  0
    0.0959   -0.8533    0.0000 C   0  0  0  0  0  0  0  0  0  0  0  0
   -0.4545   -0.2298    0.0000 C   0  0  0  0  0  0  0  0  0  0  0  0
   -0.1668   -1.6407    0.0000 N   0  0  0  0  0  0  0  0  0  0  0  0
   -0.9757   -1.8032    0.0000 C   0  0  0  0  0  0  0  0  0  0  0  0
   -1.0711   -2.6227    0.0000 O   0  0  0  0  0  0  0  0  0  0  0  0
   -0.3213   -2.9668    0.0000 C   0  0  0  0  0  0  0  0  0  0  0  0
    0.2376   -2.3599    0.0000 C   0  0  0  0  0  0  0  0  0  0  0  0
   -0.1944    0.5536    0.0000 O   0  0  0  0  0  0  0  0  0  0  0  0
    0.9048   -0.6888    0.0000 C   0  0  0  0  0  0  0  0  0  0  0  0
    1.1668    0.0938    0.0000 C   0  0  0  0  0  0  0  0  0  0  0  0
    1.9793    0.2566    0.0000 C   0  0  0  0  0  0  0  0  0  0  0  0
    2.2413    1.0385    0.0000 C   0  0  0  0  0  0  0  0  0  0  0  0
    1.6942    1.6577    0.0000 C   0  0  0  0  0  0  0  0  0  0  0  0
    0.8817    1.4898    0.0000 C   0  0  0  0  0  0  0  0  0  0  0  0
    0.6234    0.7082    0.0000 C   0  0  0  0  0  0  0  0  0  0  0  0
    1.0575   -2.4554    0.0000 O   0  0  0  0  0  0  0  0  0  0  0  0
   -0.9130   -3.5476    0.0000 C   0  0  0  0  0  0  0  0  0  0  0  0
   -1.7083   -3.3266    0.0000 C   0  0  0  0  0  0  0  0  0  0  0  0
   -0.7068   -4.3469    0.0000 C   0  0  0  0  0  0  0  0  0  0  0  0
    0.3877   -3.3767    0.0000 N   0  0  0  0  0  0  0  0  0  0  0  0
    0.3872   -4.2021    0.0000 C   0  0  0  0  0  0  0  0  0  0  0  0
    1.1018   -4.6152    0.0000 C   0  0  0  0  0  0  0  0  0  0  0  0
   -0.3279   -4.6144    0.0000 O   0  0  0  0  0  0  0  0  0  0  0  0
    1.0979   -5.4411    0.0000 C   0  0  0  0  0  0  0  0  0  0  0  0
    2.5284   -4.6190    0.0000 N   0  0  0  0  0  0  0  0  0  0  0  0
    1.8134   -4.2014    0.0000 C   0  0  0  0  0  0  0  0  0  0  0  0
    3.2449   -4.2092    0.0000 C   0  0  0  0  0  0  0  0  0  0  0  0
    2.5260   -5.4454    0.0000 C   0  0  0  0  0  0  0  0  0  0  0  0
    1.8078   -5.8503    0.0000 C   0  0  0  0  0  0  0  0  0  0  0  0
    3.2357   -5.8603    0.0000 C   0  0  0  0  0  0  0  0  0  0  0  0
    1.8017   -6.6701    0.0000 C   0  0  0  0  0  0  0  0  0  0  0  0
    1.0862   -7.0707    0.0000 C   0  0  0  0  0  0  0  0  0  0  0  0
    1.0753   -7.8923    0.0000 C   0  0  0  0  0  0  0  0  0  0  0  0
    1.7859   -8.3116    0.0000 C   0  0  0  0  0  0  0  0  0  0  0  0
    3.2256   -6.6863    0.0000 C   0  0  0  0  0  0  0  0  0  0  0  0
    2.5096   -7.0902    0.0000 C   0  0  0  0  0  0  0  0  0  0  0  0
    2.4972   -7.9086    0.0000 C   0  0  0  0  0  0  0  0  0  0  0  0
    3.4891   -7.9903    0.0000 N   0  0  0  0  0  0  0  0  0  0  0  0
    3.8309   -7.2426    0.0000 C   0  0  0  0  0  0  0  0  0  0  0  0
   -1.6966   -2.2094    0.0000 O   0  0  0  0  0  0  0  0  0  0  0  0
 11 22  1  0
  4  2  1  0
 22 23  1  0
  9 10  1  0
 22 24  1  0
 10 11  1  0
 11 25  1  0
 11 12  1  0
 25 26  1  0
 12  8  1  0
 27 26  1  0
  2  3  1  0
 26 28  2  0
 27 29  1  0
  7 13  2  0
  4  7  1  0
  6 14  1  0
 27 31  1  0
 29 34  2  0
 33 30  1  0
 30 31  1  0
  5  9  1  0
 30 32  1  0
 33 34  1  0
 14 15  1  0
  8  6  1  0
 15 16  2  0
 33 35  1  0
 34 36  1  0
 40 35  1  0
  6  7  1  0
 41 36  2  0
 16 17  1  0
 36 37  1  0
  8  9  1  0
 37 38  2  0
 17 18  2  0
 38 39  1  0
 39 42  2  0
 40 41  1  0
  3  1  1  0
 18 19  1  0
  4  5  1  0
 19 20  2  0
 20 15  1  0
 41 42  1  0
 42 43  1  0
 43 44  1  0
 44 40  2  0
  1  5  1  0
 12 21  2  0
  9 45  1  0
M  END
>  <Classification>  (171) 
0

>  <pchembl>  (171) 
4.88

>  <InChI_steorem>  (171) 
InChI=1S/C35H39N5O5/c1-20(2)34(37-31(41)23-16-25-24-11-7-12-26-30(24)22(18-36-26)17-27(25)38(3)19-23)33(43)40-28(15-21-9-5-4-6-10-21)32(42)39-14-8-13-29(39)35(40,44)45-34/h4-7,9-12,16,18,20,23,27-29,36,44H,8,13-15,17,19H2,1-3H3,(H,37,41)

>  <source>  (171) 
ChEMBL25

>  <source_id>  (171) 
25

>  <optional_reference>  (171) 
10.1124/mol.61.5.964

>  <optional_origin>  (171) 
None

>  <target>  (171) 
MDR1

$$$$

     RDKit          2D

 42 46  0  0  0  0  0  0  0  0999 V2000
    3.0862   -7.7116    0.0000 C   0  0  0  0  0  0  0  0  0  0  0  0
    3.0862   -8.5145    0.0000 C   0  0  0  0  0  0  0  0  0  0  0  0
    3.7730   -8.9082    0.0000 C   0  0  0  0  0  0  0  0  0  0  0  0
    3.7730   -7.3148    0.0000 C   0  0  0  0  0  0  0  0  0  0  0  0
    4.4661   -7.7116    0.0000 C   0  0  0  0  0  0  0  0  0  0  0  0
    4.4679   -8.5145    0.0000 C   0  0  0  0  0  0  0  0  0  0  0  0
    5.1556   -8.9113    0.0000 C   0  0  0  0  0  0  0  0  0  0  0  0
    5.8446   -8.5114    0.0000 C   0  0  0  0  0  0  0  0  0  0  0  0
    5.8428   -7.7132    0.0000 C   0  0  0  0  0  0  0  0  0  0  0  0
    5.1520   -7.3134    0.0000 C   0  0  0  0  0  0  0  0  0  0  0  0
    3.7710   -6.5229    0.0000 O   0  0  0  0  0  0  0  0  0  0  0  0
    3.0833   -6.1263    0.0000 C   0  0  0  0  0  0  0  0  0  0  0  0
    3.0813   -5.3311    0.0000 O   0  0  0  0  0  0  0  0  0  0  0  0
    2.4021   -6.5216    0.0000 C   0  0  0  0  0  0  0  0  0  0  0  0
    4.4616   -6.9196    0.0000 C   0  0  0  0  0  0  0  0  0  0  0  0
    5.1484   -6.5214    0.0000 O   0  0  0  0  0  0  0  0  0  0  0  0
    4.6050  -10.3300    0.0000 O   0  0  0  0  0  0  0  0  0  0  0  0
    5.8494  -10.3300    0.0000 C   0  0  0  0  0  0  0  0  0  0  0  0
    3.9684   -9.6767    0.0000 C   0  0  0  0  0  0  0  0  0  0  0  0
    5.8689   -6.1026    0.0000 C   0  0  0  0  0  0  0  0  0  0  0  0
    6.5842   -6.5146    0.0000 O   0  0  0  0  0  0  0  0  0  0  0  0
    5.8650   -5.2763    0.0000 C   0  0  0  0  0  0  0  0  0  0  0  0
    6.5833   -4.8631    0.0000 C   0  0  0  0  0  0  0  0  0  0  0  0
    6.5801   -4.0336    0.0000 C   0  0  0  0  0  0  0  0  0  0  0  0
    5.8592   -3.6201    0.0000 C   0  0  0  0  0  0  0  0  0  0  0  0
    5.1393   -4.0418    0.0000 C   0  0  0  0  0  0  0  0  0  0  0  0
    5.1486   -4.8690    0.0000 C   0  0  0  0  0  0  0  0  0  0  0  0
    6.5607   -7.2976    0.0000 O   0  0  0  0  0  0  0  0  0  0  0  0
    7.2787   -7.7127    0.0000 C   0  0  0  0  0  0  0  0  0  0  0  0
    7.9965   -7.2972    0.0000 C   0  0  0  0  0  0  0  0  0  0  0  0
    7.2790   -8.5390    0.0000 O   0  0  0  0  0  0  0  0  0  0  0  0
    8.7146   -7.7124    0.0000 C   0  0  0  0  0  0  0  0  0  0  0  0
    9.4325   -7.2967    0.0000 C   0  0  0  0  0  0  0  0  0  0  0  0
   10.1470   -7.7103    0.0000 C   0  0  0  0  0  0  0  0  0  0  0  0
   10.8641   -7.3005    0.0000 C   0  0  0  0  0  0  0  0  0  0  0  0
   10.8645   -6.4681    0.0000 C   0  0  0  0  0  0  0  0  0  0  0  0
   10.1426   -6.0578    0.0000 C   0  0  0  0  0  0  0  0  0  0  0  0
    9.4259   -6.4717    0.0000 C   0  0  0  0  0  0  0  0  0  0  0  0
    6.0586  -11.1276    0.0000 C   0  0  0  0  0  0  0  0  0  0  0  0
    6.6784  -10.3275    0.0000 C   0  0  0  0  0  0  0  0  0  0  0  0
    5.1551   -9.8443    0.0000 O   0  0  0  0  0  0  0  0  0  0  0  0
    3.3693   -9.5927    0.0000 O   0  0  0  0  0  0  0  0  0  0  0  0
  2  3  1  0
  3  6  1  0
  5  4  1  0
  5  6  1  0
  5 10  1  0
  6  7  1  0
  7  8  1  0
  8  9  1  0
  9 10  1  0
  4 11  1  0
 11 12  1  0
 12 13  2  0
 12 14  1  0
  5 15  1  0
 10 16  1  0
  6 17  1  0
  8 18  1  0
 17 18  1  0
  3 42  1  0
  3 19  1  0
 16 20  1  0
 20 21  2  0
 20 22  1  0
 22 23  2  0
 23 24  1  0
 24 25  2  0
 25 26  1  0
 26 27  2  0
 27 22  1  0
  9 28  1  0
 28 29  1  0
 29 30  1  0
 29 31  2  0
 30 32  2  3
 32 33  1  0
 33 34  2  0
 34 35  1  0
 35 36  2  0
 36 37  1  0
 37 38  2  0
 38 33  1  0
 18 39  1  0
  1  2  1  0
 18 40  1  0
  1  4  1  0
  7 41  1  0
M  END
>  <Classification>  (172) 
1

>  <pchembl>  (172) 
6.55

>  <InChI_steorem>  (172) 
InChI=1S/C33H38O9/c1-20(34)39-23-18-19-31(4,38)33-27(36)25(30(2,3)42-33)26(40-24(35)17-16-21-12-8-6-9-13-21)28(32(23,33)5)41-29(37)22-14-10-7-11-15-22/h6-17,23,25-28,36,38H,18-19H2,1-5H3

>  <source>  (172) 
ChEMBL25

>  <source_id>  (172) 
25

>  <optional_reference>  (172) 
10.1021/acs.jmedchem.5b01429

>  <optional_origin>  (172) 
None

>  <target>  (172) 
MDR1

$$$$

     RDKit          2D

 45 49  0  0  0  0  0  0  0  0999 V2000
    8.8854   -2.2428    0.0000 C   0  0  0  0  0  0  0  0  0  0  0  0
    8.8854   -3.0532    0.0000 C   0  0  0  0  0  0  0  0  0  0  0  0
    9.5787   -3.4506    0.0000 C   0  0  0  0  0  0  0  0  0  0  0  0
    9.5787   -1.8422    0.0000 C   0  0  0  0  0  0  0  0  0  0  0  0
   10.2784   -2.2428    0.0000 C   0  0  0  0  0  0  0  0  0  0  0  0
   10.2802   -3.0532    0.0000 C   0  0  0  0  0  0  0  0  0  0  0  0
   10.9742   -3.4536    0.0000 C   0  0  0  0  0  0  0  0  0  0  0  0
   11.6698   -3.0500    0.0000 C   0  0  0  0  0  0  0  0  0  0  0  0
   11.6680   -2.2444    0.0000 C   0  0  0  0  0  0  0  0  0  0  0  0
   10.9706   -1.8406    0.0000 C   0  0  0  0  0  0  0  0  0  0  0  0
    9.5767   -1.0428    0.0000 O   0  0  0  0  0  0  0  0  0  0  0  0
    8.8825   -0.6424    0.0000 C   0  0  0  0  0  0  0  0  0  0  0  0
    8.8805    0.1601    0.0000 O   0  0  0  0  0  0  0  0  0  0  0  0
    8.1950   -1.0416    0.0000 C   0  0  0  0  0  0  0  0  0  0  0  0
   10.2738   -1.4433    0.0000 C   0  0  0  0  0  0  0  0  0  0  0  0
   10.9669   -1.0412    0.0000 O   0  0  0  0  0  0  0  0  0  0  0  0
   10.2738   -3.8495    0.0000 O   0  0  0  0  0  0  0  0  0  0  0  0
   11.6606   -3.8495    0.0000 C   0  0  0  0  0  0  0  0  0  0  0  0
    9.7760   -4.2264    0.0000 C   0  0  0  0  0  0  0  0  0  0  0  0
   12.0626   -4.5358    0.0000 C   0  0  0  0  0  0  0  0  0  0  0  0
   12.3548   -3.4442    0.0000 C   0  0  0  0  0  0  0  0  0  0  0  0
   10.9178   -4.8530    0.0000 O   0  0  0  0  0  0  0  0  0  0  0  0
   11.6944   -0.6184    0.0000 C   0  0  0  0  0  0  0  0  0  0  0  0
   12.4163   -1.0345    0.0000 O   0  0  0  0  0  0  0  0  0  0  0  0
   11.6904    0.2154    0.0000 C   0  0  0  0  0  0  0  0  0  0  0  0
   12.4154    0.6326    0.0000 C   0  0  0  0  0  0  0  0  0  0  0  0
   12.4122    1.4699    0.0000 C   0  0  0  0  0  0  0  0  0  0  0  0
   11.6846    1.8872    0.0000 C   0  0  0  0  0  0  0  0  0  0  0  0
   10.9578    1.4616    0.0000 C   0  0  0  0  0  0  0  0  0  0  0  0
   10.9672    0.6266    0.0000 C   0  0  0  0  0  0  0  0  0  0  0  0
   12.3926   -1.8247    0.0000 O   0  0  0  0  0  0  0  0  0  0  0  0
   13.1174   -2.2439    0.0000 C   0  0  0  0  0  0  0  0  0  0  0  0
   13.8420   -1.8244    0.0000 C   0  0  0  0  0  0  0  0  0  0  0  0
   13.1177   -3.0779    0.0000 O   0  0  0  0  0  0  0  0  0  0  0  0
   14.5668   -2.2435    0.0000 C   0  0  0  0  0  0  0  0  0  0  0  0
   15.2914   -1.8239    0.0000 C   0  0  0  0  0  0  0  0  0  0  0  0
   16.0127   -2.2415    0.0000 C   0  0  0  0  0  0  0  0  0  0  0  0
   16.7365   -1.8277    0.0000 C   0  0  0  0  0  0  0  0  0  0  0  0
   16.7369   -0.9876    0.0000 C   0  0  0  0  0  0  0  0  0  0  0  0
   16.0083   -0.5733    0.0000 C   0  0  0  0  0  0  0  0  0  0  0  0
   15.2849   -0.9912    0.0000 C   0  0  0  0  0  0  0  0  0  0  0  0
   11.3864   -5.5321    0.0000 C   0  0  0  0  0  0  0  0  0  0  0  0
   11.0260   -6.2912    0.0000 O   0  0  0  0  0  0  0  0  0  0  0  0
   12.2240   -5.4647    0.0000 C   0  0  0  0  0  0  0  0  0  0  0  0
    9.1596   -4.1612    0.0000 O   0  0  0  0  0  0  0  0  0  0  0  0
  2  3  1  0
  3  6  1  0
  5  4  1  0
  5  6  1  0
  5 10  1  0
  6  7  1  0
  7  8  1  0
  8  9  1  0
  9 10  1  0
  4 11  1  0
 11 12  1  0
 12 13  2  0
 12 14  1  0
  5 15  1  0
 10 16  1  0
  6 17  1  0
  8 18  1  0
 17 18  1  0
  3 45  1  0
  3 19  1  0
 18 20  1  0
 18 21  1  0
  7 22  1  0
 16 23  1  0
 23 24  2  0
 23 25  1  0
 25 26  2  0
 26 27  1  0
 27 28  2  0
 28 29  1  0
 29 30  2  0
 30 25  1  0
  9 31  1  0
 31 32  1  0
 32 33  1  0
 32 34  2  0
 33 35  2  3
 35 36  1  0
 36 37  2  0
 37 38  1  0
 38 39  2  0
 39 40  1  0
 40 41  2  0
 41 36  1  0
 22 42  1  0
  1  2  1  0
 42 43  2  0
  1  4  1  0
 42 44  1  0
M  END
>  <Classification>  (173) 
1

>  <pchembl>  (173) 
6.54

>  <InChI_steorem>  (173) 
InChI=1S/C35H40O10/c1-21(36)41-25-19-20-33(5,40)35-29(42-22(2)37)27(32(3,4)45-35)28(43-26(38)18-17-23-13-9-7-10-14-23)30(34(25,35)6)44-31(39)24-15-11-8-12-16-24/h7-18,25,27-30,40H,19-20H2,1-6H3

>  <source>  (173) 
ChEMBL25

>  <source_id>  (173) 
25

>  <optional_reference>  (173) 
10.1021/acs.jmedchem.5b01429

>  <optional_origin>  (173) 
None

>  <target>  (173) 
MDR1

$$$$

     RDKit          2D

 29 31  0  0  0  0  0  0  0  0999 V2000
    3.9402    0.8667    0.0000 C   0  0  0  0  0  0  0  0  0  0  0  0
    3.9391    0.0393    0.0000 C   0  0  0  0  0  0  0  0  0  0  0  0
    4.6539   -0.3735    0.0000 C   0  0  0  0  0  0  0  0  0  0  0  0
    4.6521    1.2795    0.0000 C   0  0  0  0  0  0  0  0  0  0  0  0
    5.3675    0.8703    0.0000 C   0  0  0  0  0  0  0  0  0  0  0  0
    5.3663    0.0373    0.0000 C   0  0  0  0  0  0  0  0  0  0  0  0
    6.0832   -0.3780    0.0000 C   0  0  0  0  0  0  0  0  0  0  0  0
    6.8058    0.0352    0.0000 C   0  0  0  0  0  0  0  0  0  0  0  0
    6.8070    0.8683    0.0000 C   0  0  0  0  0  0  0  0  0  0  0  0
    6.0856    1.2881    0.0000 O   0  0  0  0  0  0  0  0  0  0  0  0
    6.0808   -1.2030    0.0000 O   0  0  0  0  0  0  0  0  0  0  0  0
    4.6536   -1.1985    0.0000 O   0  0  0  0  0  0  0  0  0  0  0  0
    3.2243   -0.3726    0.0000 O   0  0  0  0  0  0  0  0  0  0  0  0
    2.5101    0.0405    0.0000 C   0  0  0  0  0  0  0  0  0  0  0  0
    3.2257    1.2790    0.0000 O   0  0  0  0  0  0  0  0  0  0  0  0
    3.2255    2.1040    0.0000 C   0  0  0  0  0  0  0  0  0  0  0  0
    7.5208    1.2764    0.0000 C   0  0  0  0  0  0  0  0  0  0  0  0
    8.2345    0.8605    0.0000 C   0  0  0  0  0  0  0  0  0  0  0  0
    8.9495    1.2705    0.0000 C   0  0  0  0  0  0  0  0  0  0  0  0
    8.9520    2.0964    0.0000 C   0  0  0  0  0  0  0  0  0  0  0  0
    8.2335    2.5105    0.0000 C   0  0  0  0  0  0  0  0  0  0  0  0
    7.5215    2.0980    0.0000 C   0  0  0  0  0  0  0  0  0  0  0  0
    9.6669    2.5081    0.0000 O   0  0  0  0  0  0  0  0  0  0  0  0
   10.3809    2.0948    0.0000 C   0  0  0  0  0  0  0  0  0  0  0  0
    9.6628    0.8559    0.0000 O   0  0  0  0  0  0  0  0  0  0  0  0
    9.6604    0.0309    0.0000 C   0  0  0  0  0  0  0  0  0  0  0  0
    3.9390   -1.6108    0.0000 C   0  0  0  0  0  0  0  0  0  0  0  0
    8.2326    3.3355    0.0000 O   0  0  0  0  0  0  0  0  0  0  0  0
    8.9466    3.7429    0.0000 C   0  0  0  0  0  0  0  0  0  0  0  0
 13 14  1  0
  1  2  2  0
  1 15  1  0
  5  4  2  0
 15 16  1  0
  4  1  1  0
  5 10  1  0
 17 18  2  0
  6  7  1  0
 18 19  1  0
  7  8  1  0
 19 20  2  0
  8  9  2  0
 20 21  1  0
  9 10  1  0
 21 22  2  0
 22 17  1  0
  9 17  1  0
  5  6  1  0
 20 23  1  0
  7 11  2  0
 23 24  1  0
 19 25  1  0
  3 12  1  0
 25 26  1  0
  2  3  1  0
 12 27  1  0
  2 13  1  0
 21 28  1  0
  3  6  2  0
 28 29  1  0
M  END
>  <Classification>  (174) 
1

>  <pchembl>  (174) 
6.05

>  <InChI_steorem>  (174) 
InChI=1S/C21H22O8/c1-23-15-7-11(8-16(24-2)19(15)26-4)13-9-12(22)18-14(29-13)10-17(25-3)20(27-5)21(18)28-6/h7-10H,1-6H3

>  <source>  (174) 
ChEMBL25

>  <source_id>  (174) 
25

>  <optional_reference>  (174) 
10.1016/j.bbrc.2004.06.020

>  <optional_origin>  (174) 
None

>  <target>  (174) 
MDR1

$$$$

     RDKit          2D

 31 34  0  0  0  0  0  0  0  0999 V2000
   -9.6182  -13.3817    0.0000 C   0  0  0  0  0  0  0  0  0  0  0  0
   -9.6170  -14.2090    0.0000 C   0  0  0  0  0  0  0  0  0  0  0  0
   -8.9070  -14.6217    0.0000 C   0  0  0  0  0  0  0  0  0  0  0  0
   -8.9052  -12.9689    0.0000 C   0  0  0  0  0  0  0  0  0  0  0  0
   -8.1873  -13.3781    0.0000 C   0  0  0  0  0  0  0  0  0  0  0  0
   -8.1824  -14.2110    0.0000 C   0  0  0  0  0  0  0  0  0  0  0  0
   -7.4683  -14.6222    0.0000 C   0  0  0  0  0  0  0  0  0  0  0  0
   -6.7472  -14.2051    0.0000 N   0  0  0  0  0  0  0  0  0  0  0  0
   -6.7521  -13.3722    0.0000 C   0  0  0  0  0  0  0  0  0  0  0  0
   -7.4782  -12.9563    0.0000 C   0  0  0  0  0  0  0  0  0  0  0  0
   -6.0295  -14.6156    0.0000 C   0  0  0  0  0  0  0  0  0  0  0  0
   -5.3141  -14.2012    0.0000 C   0  0  0  0  0  0  0  0  0  0  0  0
   -4.5986  -14.6117    0.0000 C   0  0  0  0  0  0  0  0  0  0  0  0
   -4.5999  -15.4367    0.0000 C   0  0  0  0  0  0  0  0  0  0  0  0
   -3.8853  -15.8472    0.0000 C   0  0  0  0  0  0  0  0  0  0  0  0
   -3.1710  -15.4327    0.0000 C   0  0  0  0  0  0  0  0  0  0  0  0
   -3.1760  -14.6035    0.0000 C   0  0  0  0  0  0  0  0  0  0  0  0
   -3.8912  -14.1969    0.0000 C   0  0  0  0  0  0  0  0  0  0  0  0
   -2.4550  -15.8423    0.0000 N   0  0  0  0  0  0  0  0  0  0  0  0
   -1.7423  -15.4269    0.0000 C   0  0  0  0  0  0  0  0  0  0  0  0
   -1.7457  -14.6020    0.0000 O   0  0  0  0  0  0  0  0  0  0  0  0
  -10.3285  -12.9694    0.0000 O   0  0  0  0  0  0  0  0  0  0  0  0
  -10.3283  -12.1445    0.0000 C   0  0  0  0  0  0  0  0  0  0  0  0
  -10.3355  -14.6208    0.0000 O   0  0  0  0  0  0  0  0  0  0  0  0
  -10.3348  -15.4457    0.0000 C   0  0  0  0  0  0  0  0  0  0  0  0
   -1.0263  -15.8365    0.0000 C   0  0  0  0  0  0  0  0  0  0  0  0
   -1.0243  -16.6616    0.0000 C   0  0  0  0  0  0  0  0  0  0  0  0
   -0.3091  -17.0710    0.0000 C   0  0  0  0  0  0  0  0  0  0  0  0
    0.4046  -16.6557    0.0000 C   0  0  0  0  0  0  0  0  0  0  0  0
    0.3986  -15.8265    0.0000 C   0  0  0  0  0  0  0  0  0  0  0  0
   -0.3172  -15.4207    0.0000 C   0  0  0  0  0  0  0  0  0  0  0  0
 14 15  2  0
  5  4  1  0
 15 16  1  0
  4  1  2  0
 16 17  2  0
  5 10  1  0
 17 18  1  0
 18 13  2  0
  6  7  1  0
 16 19  1  0
  7  8  1  0
 19 20  1  0
  8  9  1  0
 20 21  2  0
  9 10  1  0
  1 22  1  0
  5  6  2  0
 22 23  1  0
  8 11  1  0
  2 24  1  0
 24 25  1  0
 11 12  1  0
 20 26  1  0
  2  3  2  0
 26 27  2  0
 12 13  1  0
 27 28  1  0
  3  6  1  0
 28 29  2  0
 13 14  1  0
 29 30  1  0
  1  2  1  0
 30 31  2  0
 31 26  1  0
M  END
>  <Classification>  (175) 
1

>  <pchembl>  (175) 
5.32

>  <InChI_steorem>  (175) 
InChI=1S/C26H28N2O3/c1-30-24-16-21-13-15-28(18-22(21)17-25(24)31-2)14-12-19-8-10-23(11-9-19)27-26(29)20-6-4-3-5-7-20/h3-11,16-17H,12-15,18H2,1-2H3,(H,27,29)

>  <source>  (175) 
ChEMBL25

>  <source_id>  (175) 
25

>  <optional_reference>  (175) 
10.1016/j.bmc.2008.07.034

>  <optional_origin>  (175) 
None

>  <target>  (175) 
MDR1

$$$$

     RDKit          2D

 34 38  0  0  0  0  0  0  0  0999 V2000
   11.3902   -4.5083    0.0000 C   0  0  0  0  0  0  0  0  0  0  0  0
   11.3891   -5.3357    0.0000 C   0  0  0  0  0  0  0  0  0  0  0  0
   12.1039   -5.7485    0.0000 C   0  0  0  0  0  0  0  0  0  0  0  0
   12.1021   -4.0955    0.0000 C   0  0  0  0  0  0  0  0  0  0  0  0
   12.8175   -4.5047    0.0000 C   0  0  0  0  0  0  0  0  0  0  0  0
   12.8209   -5.3377    0.0000 C   0  0  0  0  0  0  0  0  0  0  0  0
   13.5401   -5.7490    0.0000 C   0  0  0  0  0  0  0  0  0  0  0  0
   14.2605   -5.3318    0.0000 N   0  0  0  0  0  0  0  0  0  0  0  0
   14.2570   -4.4988    0.0000 C   0  0  0  0  0  0  0  0  0  0  0  0
   13.5332   -4.0829    0.0000 C   0  0  0  0  0  0  0  0  0  0  0  0
   14.9761   -5.7424    0.0000 C   0  0  0  0  0  0  0  0  0  0  0  0
   15.6894   -5.3279    0.0000 C   0  0  0  0  0  0  0  0  0  0  0  0
   16.4050   -5.7385    0.0000 C   0  0  0  0  0  0  0  0  0  0  0  0
   16.4036   -6.5636    0.0000 C   0  0  0  0  0  0  0  0  0  0  0  0
   17.1184   -6.9741    0.0000 C   0  0  0  0  0  0  0  0  0  0  0  0
   17.8327   -6.5596    0.0000 C   0  0  0  0  0  0  0  0  0  0  0  0
   17.8278   -5.7303    0.0000 C   0  0  0  0  0  0  0  0  0  0  0  0
   17.1125   -5.3236    0.0000 C   0  0  0  0  0  0  0  0  0  0  0  0
   18.5489   -6.9692    0.0000 N   0  0  0  0  0  0  0  0  0  0  0  0
   19.2616   -6.5538    0.0000 C   0  0  0  0  0  0  0  0  0  0  0  0
   19.2583   -5.7288    0.0000 O   0  0  0  0  0  0  0  0  0  0  0  0
   10.6757   -4.0960    0.0000 O   0  0  0  0  0  0  0  0  0  0  0  0
   10.6755   -3.2710    0.0000 C   0  0  0  0  0  0  0  0  0  0  0  0
   10.6743   -5.7476    0.0000 O   0  0  0  0  0  0  0  0  0  0  0  0
   10.6736   -6.5726    0.0000 C   0  0  0  0  0  0  0  0  0  0  0  0
   19.9778   -6.9634    0.0000 C   0  0  0  0  0  0  0  0  0  0  0  0
   20.0680   -7.7803    0.0000 O   0  0  0  0  0  0  0  0  0  0  0  0
   20.7307   -6.6216    0.0000 O   0  0  0  0  0  0  0  0  0  0  0  0
   21.2853   -7.2324    0.0000 C   0  0  0  0  0  0  0  0  0  0  0  0
   20.8730   -7.9466    0.0000 C   0  0  0  0  0  0  0  0  0  0  0  0
   21.2854   -8.6586    0.0000 C   0  0  0  0  0  0  0  0  0  0  0  0
   22.1099   -8.6576    0.0000 C   0  0  0  0  0  0  0  0  0  0  0  0
   22.5202   -7.9386    0.0000 C   0  0  0  0  0  0  0  0  0  0  0  0
   22.1054   -7.2295    0.0000 C   0  0  0  0  0  0  0  0  0  0  0  0
  4  1  2  0
 16 17  1  0
  5 10  1  0
 17 18  2  0
 18 13  1  0
  6  7  1  0
 16 19  1  0
  7  8  1  0
 19 20  1  0
  8  9  1  0
 20 21  2  0
  9 10  1  0
  1 22  1  0
  5  6  2  0
 22 23  1  0
  8 11  1  0
  2 24  1  0
 24 25  1  0
 11 12  1  0
 20 26  1  0
 26 27  1  0
  2  3  2  0
 12 13  1  0
 27 30  1  0
 29 28  1  0
 28 26  1  0
  3  6  1  0
 13 14  2  0
 29 30  2  0
  1  2  1  0
 30 31  1  0
 14 15  1  0
 31 32  2  0
  5  4  1  0
 32 33  1  0
 15 16  2  0
 33 34  2  0
 34 29  1  0
M  END
>  <Classification>  (176) 
1

>  <pchembl>  (176) 
5.85

>  <InChI_steorem>  (176) 
InChI=1S/C27H28N2O5/c1-31-24-15-19-12-14-29(17-20(19)16-25(24)32-2)13-11-18-7-9-21(10-8-18)28-26(30)27-33-22-5-3-4-6-23(22)34-27/h3-10,15-16,27H,11-14,17H2,1-2H3,(H,28,30)

>  <source>  (176) 
ChEMBL25

>  <source_id>  (176) 
25

>  <optional_reference>  (176) 
10.1016/j.bmc.2008.07.034

>  <optional_origin>  (176) 
None

>  <target>  (176) 
MDR1

$$$$

     RDKit          2D

 35 39  0  0  0  0  0  0  0  0999 V2000
    0.3194  -19.2190    0.0000 C   0  0  0  0  0  0  0  0  0  0  0  0
    0.3182  -20.0464    0.0000 C   0  0  0  0  0  0  0  0  0  0  0  0
    1.0330  -20.4591    0.0000 C   0  0  0  0  0  0  0  0  0  0  0  0
    1.0312  -18.8063    0.0000 C   0  0  0  0  0  0  0  0  0  0  0  0
    1.7464  -19.2154    0.0000 C   0  0  0  0  0  0  0  0  0  0  0  0
    1.7499  -20.0484    0.0000 C   0  0  0  0  0  0  0  0  0  0  0  0
    2.4690  -20.4596    0.0000 C   0  0  0  0  0  0  0  0  0  0  0  0
    3.1893  -20.0425    0.0000 N   0  0  0  0  0  0  0  0  0  0  0  0
    3.1859  -19.2095    0.0000 C   0  0  0  0  0  0  0  0  0  0  0  0
    2.4622  -18.7937    0.0000 C   0  0  0  0  0  0  0  0  0  0  0  0
    3.9048  -20.4530    0.0000 C   0  0  0  0  0  0  0  0  0  0  0  0
    4.6182  -20.0386    0.0000 C   0  0  0  0  0  0  0  0  0  0  0  0
    5.3337  -20.4491    0.0000 C   0  0  0  0  0  0  0  0  0  0  0  0
    5.3323  -21.2741    0.0000 C   0  0  0  0  0  0  0  0  0  0  0  0
    6.0470  -21.6846    0.0000 C   0  0  0  0  0  0  0  0  0  0  0  0
    6.7613  -21.2701    0.0000 C   0  0  0  0  0  0  0  0  0  0  0  0
    6.7564  -20.4409    0.0000 C   0  0  0  0  0  0  0  0  0  0  0  0
    6.0411  -20.0343    0.0000 C   0  0  0  0  0  0  0  0  0  0  0  0
    7.4773  -21.6797    0.0000 N   0  0  0  0  0  0  0  0  0  0  0  0
    8.1900  -21.2644    0.0000 C   0  0  0  0  0  0  0  0  0  0  0  0
    8.1867  -20.4394    0.0000 O   0  0  0  0  0  0  0  0  0  0  0  0
   -0.3952  -18.8068    0.0000 O   0  0  0  0  0  0  0  0  0  0  0  0
   -0.3954  -17.9819    0.0000 C   0  0  0  0  0  0  0  0  0  0  0  0
   -0.3966  -20.4582    0.0000 O   0  0  0  0  0  0  0  0  0  0  0  0
   -0.3972  -21.2831    0.0000 C   0  0  0  0  0  0  0  0  0  0  0  0
    8.9062  -21.6739    0.0000 C   0  0  0  0  0  0  0  0  0  0  0  0
    8.9081  -22.4990    0.0000 N   0  0  0  0  0  0  0  0  0  0  0  0
    9.6233  -22.9085    0.0000 C   0  0  0  0  0  0  0  0  0  0  0  0
    9.6152  -21.2582    0.0000 C   0  0  0  0  0  0  0  0  0  0  0  0
   10.3311  -21.6639    0.0000 C   0  0  0  0  0  0  0  0  0  0  0  0
   10.3340  -22.4919    0.0000 C   0  0  0  0  0  0  0  0  0  0  0  0
   11.0514  -22.9016    0.0000 C   0  0  0  0  0  0  0  0  0  0  0  0
   11.7663  -22.4843    0.0000 C   0  0  0  0  0  0  0  0  0  0  0  0
   11.7593  -21.6532    0.0000 C   0  0  0  0  0  0  0  0  0  0  0  0
   11.0414  -21.2473    0.0000 C   0  0  0  0  0  0  0  0  0  0  0  0
 16 17  1  0
  5 10  1  0
 17 18  2  0
 18 13  1  0
  6  7  1  0
 16 19  1  0
  7  8  1  0
 19 20  1  0
  8  9  1  0
 20 21  2  0
  9 10  1  0
  1 22  1  0
  5  6  1  0
 22 23  1  0
  8 11  1  0
  2 24  1  0
 24 25  1  0
 11 12  1  0
 20 26  1  0
  2  3  1  0
 26 27  2  0
 12 13  1  0
 27 28  1  0
 28 31  2  0
  3  6  2  0
 30 29  2  0
 29 26  1  0
 13 14  2  0
  1  2  2  0
 30 31  1  0
 14 15  1  0
 31 32  1  0
  5  4  2  0
 32 33  2  0
 15 16  2  0
 33 34  1  0
  4  1  1  0
 34 35  2  0
 35 30  1  0
M  END
>  <Classification>  (177) 
1

>  <pchembl>  (177) 
6.11

>  <InChI_steorem>  (177) 
InChI=1S/C29H29N3O3/c1-34-27-16-22-12-14-32(19-24(22)17-28(27)35-2)13-11-20-7-9-25(10-8-20)31-29(33)26-15-21-5-3-4-6-23(21)18-30-26/h3-10,15-18H,11-14,19H2,1-2H3,(H,31,33)

>  <source>  (177) 
ChEMBL25

>  <source_id>  (177) 
25

>  <optional_reference>  (177) 
10.1016/j.bmc.2007.11.057

>  <optional_origin>  (177) 
None

>  <target>  (177) 
MDR1

$$$$

     RDKit          2D

 40 44  0  0  0  0  0  0  0  0999 V2000
  -10.8444    2.2167    0.0000 C   0  0  0  0  0  0  0  0  0  0  0  0
  -10.8432    1.3893    0.0000 C   0  0  0  0  0  0  0  0  0  0  0  0
  -10.1331    0.9765    0.0000 C   0  0  0  0  0  0  0  0  0  0  0  0
  -10.1313    2.6295    0.0000 C   0  0  0  0  0  0  0  0  0  0  0  0
   -9.4133    2.2203    0.0000 C   0  0  0  0  0  0  0  0  0  0  0  0
   -9.4084    1.3873    0.0000 C   0  0  0  0  0  0  0  0  0  0  0  0
   -8.6942    0.9760    0.0000 C   0  0  0  0  0  0  0  0  0  0  0  0
   -7.9730    1.3932    0.0000 N   0  0  0  0  0  0  0  0  0  0  0  0
   -7.9779    2.2262    0.0000 C   0  0  0  0  0  0  0  0  0  0  0  0
   -8.7041    2.6421    0.0000 C   0  0  0  0  0  0  0  0  0  0  0  0
   -7.2552    0.9826    0.0000 C   0  0  0  0  0  0  0  0  0  0  0  0
   -6.5436    1.3971    0.0000 C   0  0  0  0  0  0  0  0  0  0  0  0
   -5.8242    0.9865    0.0000 C   0  0  0  0  0  0  0  0  0  0  0  0
   -5.8255    0.1614    0.0000 C   0  0  0  0  0  0  0  0  0  0  0  0
   -5.1108   -0.2491    0.0000 C   0  0  0  0  0  0  0  0  0  0  0  0
   -4.3964    0.1654    0.0000 C   0  0  0  0  0  0  0  0  0  0  0  0
   -4.4014    0.9947    0.0000 C   0  0  0  0  0  0  0  0  0  0  0  0
   -5.1167    1.4014    0.0000 C   0  0  0  0  0  0  0  0  0  0  0  0
   -3.6803   -0.2442    0.0000 N   0  0  0  0  0  0  0  0  0  0  0  0
   -2.9675    0.1712    0.0000 C   0  0  0  0  0  0  0  0  0  0  0  0
   -2.2514   -0.2384    0.0000 C   0  0  0  0  0  0  0  0  0  0  0  0
   -2.9709    0.9962    0.0000 O   0  0  0  0  0  0  0  0  0  0  0  0
   -2.2494   -1.0636    0.0000 C   0  0  0  0  0  0  0  0  0  0  0  0
   -1.5341   -1.4731    0.0000 C   0  0  0  0  0  0  0  0  0  0  0  0
   -0.8204   -1.0577    0.0000 C   0  0  0  0  0  0  0  0  0  0  0  0
   -0.8264   -0.2284    0.0000 C   0  0  0  0  0  0  0  0  0  0  0  0
   -1.5422    0.1774    0.0000 C   0  0  0  0  0  0  0  0  0  0  0  0
   -2.9627   -1.4782    0.0000 N   0  0  0  0  0  0  0  0  0  0  0  0
   -2.9602   -2.3032    0.0000 C   0  0  0  0  0  0  0  0  0  0  0  0
   -3.6734   -2.7178    0.0000 C   0  0  0  0  0  0  0  0  0  0  0  0
   -2.2445   -2.7136    0.0000 O   0  0  0  0  0  0  0  0  0  0  0  0
   -4.3869   -2.3038    0.0000 C   0  0  0  0  0  0  0  0  0  0  0  0
   -5.0996   -2.7177    0.0000 C   0  0  0  0  0  0  0  0  0  0  0  0
   -5.0976   -3.5436    0.0000 C   0  0  0  0  0  0  0  0  0  0  0  0
   -4.3769   -3.9538    0.0000 C   0  0  0  0  0  0  0  0  0  0  0  0
   -3.6671   -3.5375    0.0000 C   0  0  0  0  0  0  0  0  0  0  0  0
  -11.5548    2.6290    0.0000 O   0  0  0  0  0  0  0  0  0  0  0  0
  -11.5546    3.4540    0.0000 C   0  0  0  0  0  0  0  0  0  0  0  0
  -11.5618    0.9774    0.0000 O   0  0  0  0  0  0  0  0  0  0  0  0
  -11.5611    0.1524    0.0000 C   0  0  0  0  0  0  0  0  0  0  0  0
 16 19  1  0
  7  8  1  0
 19 20  1  0
  8  9  1  0
 20 21  1  0
  9 10  1  0
 20 22  2  0
  5  6  1  0
 21 23  1  0
  8 11  1  0
 23 24  2  0
 24 25  1  0
 11 12  1  0
 25 26  2  0
  2  3  1  0
 26 27  1  0
 27 21  2  0
 12 13  1  0
 23 28  1  0
  3  6  2  0
 28 29  1  0
 13 14  2  0
 29 30  1  0
  1  2  2  0
 29 31  2  0
 14 15  1  0
 30 32  2  0
  5  4  2  0
 32 33  1  0
 15 16  2  0
 33 34  2  0
  4  1  1  0
 34 35  1  0
 16 17  1  0
 35 36  2  0
 36 30  1  0
  5 10  1  0
  1 37  1  0
 17 18  2  0
 37 38  1  0
 18 13  1  0
  2 39  1  0
  6  7  1  0
 39 40  1  0
M  END
>  <Classification>  (178) 
1

>  <pchembl>  (178) 
6.07

>  <InChI_steorem>  (178) 
InChI=1S/C33H33N3O4/c1-39-30-20-25-17-19-36(22-26(25)21-31(30)40-2)18-16-23-12-14-27(15-13-23)34-33(38)28-10-6-7-11-29(28)35-32(37)24-8-4-3-5-9-24/h3-15,20-21H,16-19,22H2,1-2H3,(H,34,38)(H,35,37)

>  <source>  (178) 
ChEMBL25

>  <source_id>  (178) 
25

>  <optional_reference>  (178) 
10.1016/j.bmc.2007.07.024

>  <optional_origin>  (178) 
None

>  <target>  (178) 
MDR1

$$$$

     RDKit          2D

 40 45  0  0  0  0  0  0  0  0999 V2000
    8.2319    2.6125    0.0000 C   0  0  0  0  0  0  0  0  0  0  0  0
    8.2307    1.7852    0.0000 C   0  0  0  0  0  0  0  0  0  0  0  0
    8.9456    1.3723    0.0000 C   0  0  0  0  0  0  0  0  0  0  0  0
    8.9438    3.0253    0.0000 C   0  0  0  0  0  0  0  0  0  0  0  0
    9.6591    2.6162    0.0000 C   0  0  0  0  0  0  0  0  0  0  0  0
    9.6626    1.7831    0.0000 C   0  0  0  0  0  0  0  0  0  0  0  0
   10.3817    1.3718    0.0000 C   0  0  0  0  0  0  0  0  0  0  0  0
   11.1021    1.7890    0.0000 N   0  0  0  0  0  0  0  0  0  0  0  0
   11.0987    2.6221    0.0000 C   0  0  0  0  0  0  0  0  0  0  0  0
   10.3749    3.0380    0.0000 C   0  0  0  0  0  0  0  0  0  0  0  0
   11.8177    1.3784    0.0000 C   0  0  0  0  0  0  0  0  0  0  0  0
   12.5311    1.7929    0.0000 C   0  0  0  0  0  0  0  0  0  0  0  0
   13.2467    1.3823    0.0000 C   0  0  0  0  0  0  0  0  0  0  0  0
   13.2453    0.5572    0.0000 C   0  0  0  0  0  0  0  0  0  0  0  0
   13.9601    0.1468    0.0000 C   0  0  0  0  0  0  0  0  0  0  0  0
   14.6744    0.5613    0.0000 C   0  0  0  0  0  0  0  0  0  0  0  0
   14.6695    1.3905    0.0000 C   0  0  0  0  0  0  0  0  0  0  0  0
   13.9542    1.7973    0.0000 C   0  0  0  0  0  0  0  0  0  0  0  0
   15.3905    0.1517    0.0000 N   0  0  0  0  0  0  0  0  0  0  0  0
   16.1033    0.5671    0.0000 C   0  0  0  0  0  0  0  0  0  0  0  0
   16.8194    0.1575    0.0000 C   0  0  0  0  0  0  0  0  0  0  0  0
   16.1000    1.3921    0.0000 O   0  0  0  0  0  0  0  0  0  0  0  0
   16.8214   -0.6677    0.0000 C   0  0  0  0  0  0  0  0  0  0  0  0
   17.5367   -1.0773    0.0000 C   0  0  0  0  0  0  0  0  0  0  0  0
   18.2505   -0.6618    0.0000 C   0  0  0  0  0  0  0  0  0  0  0  0
   18.2445    0.1674    0.0000 C   0  0  0  0  0  0  0  0  0  0  0  0
   17.5286    0.5732    0.0000 C   0  0  0  0  0  0  0  0  0  0  0  0
   16.1082   -1.0824    0.0000 N   0  0  0  0  0  0  0  0  0  0  0  0
   16.1106   -1.9074    0.0000 C   0  0  0  0  0  0  0  0  0  0  0  0
   15.3974   -2.3220    0.0000 C   0  0  0  0  0  0  0  0  0  0  0  0
   16.8263   -2.3177    0.0000 O   0  0  0  0  0  0  0  0  0  0  0  0
   14.6839   -1.9079    0.0000 C   0  0  0  0  0  0  0  0  0  0  0  0
   14.6939   -3.5579    0.0000 N   0  0  0  0  0  0  0  0  0  0  0  0
   15.4037   -3.1416    0.0000 C   0  0  0  0  0  0  0  0  0  0  0  0
   13.9732   -3.1478    0.0000 C   0  0  0  0  0  0  0  0  0  0  0  0
   13.9741   -2.3247    0.0000 C   0  0  0  0  0  0  0  0  0  0  0  0
   13.2630   -1.9143    0.0000 C   0  0  0  0  0  0  0  0  0  0  0  0
   12.5504   -2.3256    0.0000 C   0  0  0  0  0  0  0  0  0  0  0  0
   12.5535   -3.1518    0.0000 C   0  0  0  0  0  0  0  0  0  0  0  0
   13.2652   -3.5586    0.0000 C   0  0  0  0  0  0  0  0  0  0  0  0
 16 19  1  0
  7  8  1  0
 19 20  1  0
  8  9  1  0
 20 21  1  0
  9 10  1  0
 20 22  2  0
  5  6  1  0
 21 23  1  0
  8 11  1  0
 23 24  2  0
 24 25  1  0
 11 12  1  0
 25 26  2  0
  2  3  1  0
 26 27  1  0
 27 21  2  0
 12 13  1  0
 23 28  1  0
  3  6  2  0
 28 29  1  0
 13 14  2  0
 29 30  1  0
  1  2  2  0
 29 31  2  0
 14 15  1  0
 30 32  2  0
 32 36  1  0
  5  4  2  0
 35 33  1  0
 15 16  2  0
 33 34  2  0
 34 30  1  0
  4  1  1  0
 16 17  1  0
 35 36  2  0
  5 10  1  0
 36 37  1  0
 17 18  2  0
 37 38  2  0
 18 13  1  0
 38 39  1  0
  6  7  1  0
 39 40  2  0
 40 35  1  0
M  END
>  <Classification>  (179) 
1

>  <pchembl>  (179) 
6.31

>  <InChI_steorem>  (179) 
InChI=1S/C34H30N4O2/c39-33(28-21-26-8-3-5-11-31(26)35-22-28)37-32-12-6-4-10-30(32)34(40)36-29-15-13-24(14-16-29)17-19-38-20-18-25-7-1-2-9-27(25)23-38/h1-16,21-22H,17-20,23H2,(H,36,40)(H,37,39)

>  <source>  (179) 
ChEMBL25

>  <source_id>  (179) 
25

>  <optional_reference>  (179) 
10.1016/j.bmc.2007.07.024

>  <optional_origin>  (179) 
None

>  <target>  (179) 
MDR1

$$$$

     RDKit          2D

 41 45  0  0  0  0  0  0  0  0999 V2000
  -10.7270   -4.7913    0.0000 C   0  0  0  0  0  0  0  0  0  0  0  0
  -10.7259   -5.6186    0.0000 C   0  0  0  0  0  0  0  0  0  0  0  0
  -10.0157   -6.0315    0.0000 C   0  0  0  0  0  0  0  0  0  0  0  0
  -10.0139   -4.3786    0.0000 C   0  0  0  0  0  0  0  0  0  0  0  0
   -9.2960   -4.7877    0.0000 C   0  0  0  0  0  0  0  0  0  0  0  0
   -9.2911   -5.6207    0.0000 C   0  0  0  0  0  0  0  0  0  0  0  0
   -8.5770   -6.0320    0.0000 C   0  0  0  0  0  0  0  0  0  0  0  0
   -7.8558   -5.6148    0.0000 N   0  0  0  0  0  0  0  0  0  0  0  0
   -7.8607   -4.7818    0.0000 C   0  0  0  0  0  0  0  0  0  0  0  0
   -8.5868   -4.3659    0.0000 C   0  0  0  0  0  0  0  0  0  0  0  0
   -7.1381   -6.0253    0.0000 C   0  0  0  0  0  0  0  0  0  0  0  0
   -6.4265   -5.6109    0.0000 C   0  0  0  0  0  0  0  0  0  0  0  0
   -5.7071   -6.0214    0.0000 C   0  0  0  0  0  0  0  0  0  0  0  0
   -5.7085   -6.8464    0.0000 C   0  0  0  0  0  0  0  0  0  0  0  0
   -4.9938   -7.2569    0.0000 C   0  0  0  0  0  0  0  0  0  0  0  0
   -4.2795   -6.8424    0.0000 C   0  0  0  0  0  0  0  0  0  0  0  0
   -4.2844   -6.0132    0.0000 C   0  0  0  0  0  0  0  0  0  0  0  0
   -4.9997   -5.6065    0.0000 C   0  0  0  0  0  0  0  0  0  0  0  0
   -3.5634   -7.2520    0.0000 N   0  0  0  0  0  0  0  0  0  0  0  0
   -2.8507   -6.8367    0.0000 C   0  0  0  0  0  0  0  0  0  0  0  0
   -2.1346   -7.2462    0.0000 C   0  0  0  0  0  0  0  0  0  0  0  0
   -2.8540   -6.0117    0.0000 O   0  0  0  0  0  0  0  0  0  0  0  0
   -2.1327   -8.0714    0.0000 C   0  0  0  0  0  0  0  0  0  0  0  0
   -1.4174   -8.4808    0.0000 C   0  0  0  0  0  0  0  0  0  0  0  0
   -0.7037   -8.0655    0.0000 C   0  0  0  0  0  0  0  0  0  0  0  0
   -0.7097   -7.2362    0.0000 C   0  0  0  0  0  0  0  0  0  0  0  0
   -1.4255   -6.8305    0.0000 C   0  0  0  0  0  0  0  0  0  0  0  0
   -2.8458   -8.4859    0.0000 N   0  0  0  0  0  0  0  0  0  0  0  0
   -2.8433   -9.3109    0.0000 C   0  0  0  0  0  0  0  0  0  0  0  0
   -3.5566   -9.7256    0.0000 C   0  0  0  0  0  0  0  0  0  0  0  0
   -2.1277   -9.7213    0.0000 O   0  0  0  0  0  0  0  0  0  0  0  0
  -11.4374   -4.3790    0.0000 O   0  0  0  0  0  0  0  0  0  0  0  0
  -11.4372   -3.5541    0.0000 C   0  0  0  0  0  0  0  0  0  0  0  0
  -11.4443   -6.0305    0.0000 O   0  0  0  0  0  0  0  0  0  0  0  0
  -11.4437   -6.8554    0.0000 C   0  0  0  0  0  0  0  0  0  0  0  0
   -4.2699   -9.3115    0.0000 C   0  0  0  0  0  0  0  0  0  0  0  0
   -4.9827   -9.7254    0.0000 C   0  0  0  0  0  0  0  0  0  0  0  0
   -4.9807  -10.5512    0.0000 C   0  0  0  0  0  0  0  0  0  0  0  0
   -4.2599  -10.9614    0.0000 C   0  0  0  0  0  0  0  0  0  0  0  0
   -3.5502  -10.5451    0.0000 C   0  0  0  0  0  0  0  0  0  0  0  0
   -5.6932  -10.9668    0.0000 C   0  0  0  0  0  0  0  0  0  0  0  0
  7  8  1  0
 19 20  1  0
  8  9  1  0
 20 21  1  0
  9 10  1  0
 20 22  2  0
  5  6  1  0
 21 23  1  0
  8 11  1  0
 23 24  2  0
 24 25  1  0
 11 12  1  0
 25 26  2  0
  2  3  1  0
 26 27  1  0
 27 21  2  0
 12 13  1  0
 23 28  1  0
  3  6  2  0
 28 29  1  0
 13 14  2  0
 29 30  1  0
  1  2  2  0
 29 31  2  0
 14 15  1  0
  1 32  1  0
  5  4  2  0
 32 33  1  0
 15 16  2  0
  2 34  1  0
  4  1  1  0
 34 35  1  0
 16 17  1  0
 30 36  2  0
  5 10  1  0
 36 37  1  0
 17 18  2  0
 37 38  2  0
 18 13  1  0
 38 39  1  0
  6  7  1  0
 39 40  2  0
 40 30  1  0
 16 19  1  0
 38 41  1  0
M  END
>  <Classification>  (180) 
1

>  <pchembl>  (180) 
6.28

>  <InChI_steorem>  (180) 
InChI=1S/C34H35N3O4/c1-23-8-12-25(13-9-23)33(38)36-30-7-5-4-6-29(30)34(39)35-28-14-10-24(11-15-28)16-18-37-19-17-26-20-31(40-2)32(41-3)21-27(26)22-37/h4-15,20-21H,16-19,22H2,1-3H3,(H,35,39)(H,36,38)

>  <source>  (180) 
ChEMBL25

>  <source_id>  (180) 
25

>  <optional_reference>  (180) 
10.1016/j.bmc.2007.11.057

>  <optional_origin>  (180) 
None

>  <target>  (180) 
MDR1

$$$$

     RDKit          2D

 44 49  0  0  0  0  0  0  0  0999 V2000
   -0.1056    2.2709    0.0000 C   0  0  0  0  0  0  0  0  0  0  0  0
   -0.1068    1.4435    0.0000 C   0  0  0  0  0  0  0  0  0  0  0  0
    0.6081    1.0306    0.0000 C   0  0  0  0  0  0  0  0  0  0  0  0
    0.6063    2.6836    0.0000 C   0  0  0  0  0  0  0  0  0  0  0  0
    1.3216    2.2745    0.0000 C   0  0  0  0  0  0  0  0  0  0  0  0
    1.3251    1.4414    0.0000 C   0  0  0  0  0  0  0  0  0  0  0  0
    2.0442    1.0301    0.0000 C   0  0  0  0  0  0  0  0  0  0  0  0
    2.7646    1.4473    0.0000 N   0  0  0  0  0  0  0  0  0  0  0  0
    2.7612    2.2804    0.0000 C   0  0  0  0  0  0  0  0  0  0  0  0
    2.0374    2.6963    0.0000 C   0  0  0  0  0  0  0  0  0  0  0  0
    3.4802    1.0368    0.0000 C   0  0  0  0  0  0  0  0  0  0  0  0
    4.1936    1.4512    0.0000 C   0  0  0  0  0  0  0  0  0  0  0  0
    4.9092    1.0407    0.0000 C   0  0  0  0  0  0  0  0  0  0  0  0
    4.9078    0.2156    0.0000 C   0  0  0  0  0  0  0  0  0  0  0  0
    5.6226   -0.1949    0.0000 C   0  0  0  0  0  0  0  0  0  0  0  0
    6.3369    0.2196    0.0000 C   0  0  0  0  0  0  0  0  0  0  0  0
    6.3320    1.0489    0.0000 C   0  0  0  0  0  0  0  0  0  0  0  0
    5.6167    1.4556    0.0000 C   0  0  0  0  0  0  0  0  0  0  0  0
    7.0530   -0.1900    0.0000 N   0  0  0  0  0  0  0  0  0  0  0  0
    7.7658    0.2254    0.0000 C   0  0  0  0  0  0  0  0  0  0  0  0
    8.4819   -0.1842    0.0000 C   0  0  0  0  0  0  0  0  0  0  0  0
    7.7625    1.0504    0.0000 O   0  0  0  0  0  0  0  0  0  0  0  0
    8.4839   -1.0094    0.0000 C   0  0  0  0  0  0  0  0  0  0  0  0
    9.1992   -1.4189    0.0000 C   0  0  0  0  0  0  0  0  0  0  0  0
    9.9130   -1.0035    0.0000 C   0  0  0  0  0  0  0  0  0  0  0  0
    9.9070   -0.1742    0.0000 C   0  0  0  0  0  0  0  0  0  0  0  0
    9.1911    0.2316    0.0000 C   0  0  0  0  0  0  0  0  0  0  0  0
    7.7707   -1.4240    0.0000 N   0  0  0  0  0  0  0  0  0  0  0  0
    7.7731   -2.2490    0.0000 C   0  0  0  0  0  0  0  0  0  0  0  0
    7.0599   -2.6637    0.0000 C   0  0  0  0  0  0  0  0  0  0  0  0
    8.4888   -2.6594    0.0000 O   0  0  0  0  0  0  0  0  0  0  0  0
   -0.8202    2.6832    0.0000 O   0  0  0  0  0  0  0  0  0  0  0  0
   -0.8204    3.5082    0.0000 C   0  0  0  0  0  0  0  0  0  0  0  0
   -0.8216    1.0316    0.0000 O   0  0  0  0  0  0  0  0  0  0  0  0
   -0.8222    0.2066    0.0000 C   0  0  0  0  0  0  0  0  0  0  0  0
    6.3464   -2.2496    0.0000 C   0  0  0  0  0  0  0  0  0  0  0  0
    6.3564   -3.8996    0.0000 N   0  0  0  0  0  0  0  0  0  0  0  0
    7.0662   -3.4833    0.0000 C   0  0  0  0  0  0  0  0  0  0  0  0
    5.6357   -3.4894    0.0000 C   0  0  0  0  0  0  0  0  0  0  0  0
    5.6366   -2.6664    0.0000 C   0  0  0  0  0  0  0  0  0  0  0  0
    4.9255   -2.2559    0.0000 C   0  0  0  0  0  0  0  0  0  0  0  0
    4.2129   -2.6673    0.0000 C   0  0  0  0  0  0  0  0  0  0  0  0
    4.2160   -3.4935    0.0000 C   0  0  0  0  0  0  0  0  0  0  0  0
    4.9277   -3.9002    0.0000 C   0  0  0  0  0  0  0  0  0  0  0  0
 20 21  1  0
  9 10  1  0
 20 22  2  0
  5  6  1  0
 21 23  1  0
  8 11  1  0
 23 24  2  0
 24 25  1  0
 11 12  1  0
 25 26  2  0
  2  3  1  0
 26 27  1  0
 27 21  2  0
 12 13  1  0
 23 28  1  0
  3  6  2  0
 28 29  1  0
 13 14  2  0
 29 30  1  0
  1  2  2  0
 29 31  2  0
 14 15  1  0
  1 32  1  0
  5  4  2  0
 32 33  1  0
 15 16  2  0
  2 34  1  0
  4  1  1  0
 34 35  1  0
 16 17  1  0
 30 36  2  0
 36 40  1  0
  5 10  1  0
 39 37  1  0
 17 18  2  0
 37 38  2  0
 38 30  1  0
 18 13  1  0
  6  7  1  0
 39 40  2  0
 16 19  1  0
 40 41  1  0
  7  8  1  0
 41 42  2  0
 19 20  1  0
 42 43  1  0
  8  9  1  0
 43 44  2  0
 44 39  1  0
M  END
>  <Classification>  (181) 
1

>  <pchembl>  (181) 
6.78

>  <InChI_steorem>  (181) 
InChI=1S/C36H34N4O4/c1-43-33-20-25-16-18-40(23-28(25)21-34(33)44-2)17-15-24-11-13-29(14-12-24)38-36(42)30-8-4-6-10-32(30)39-35(41)27-19-26-7-3-5-9-31(26)37-22-27/h3-14,19-22H,15-18,23H2,1-2H3,(H,38,42)(H,39,41)

>  <source>  (181) 
ChEMBL25

>  <source_id>  (181) 
25

>  <optional_reference>  (181) 
10.1016/j.bmc.2007.11.057

>  <optional_origin>  (181) 
None

>  <target>  (181) 
MDR1

$$$$

     RDKit          2D

 26 29  0  0  0  0  0  0  0  0999 V2000
   -3.5113    0.1123    0.0000 C   0  0  0  0  0  0  0  0  0  0  0  0
   -3.5125   -0.7134    0.0000 C   0  0  0  0  0  0  0  0  0  0  0  0
   -2.7990   -1.1255    0.0000 C   0  0  0  0  0  0  0  0  0  0  0  0
   -2.8008    0.5243    0.0000 C   0  0  0  0  0  0  0  0  0  0  0  0
   -2.0868    0.1160    0.0000 C   0  0  0  0  0  0  0  0  0  0  0  0
   -2.0880   -0.7155    0.0000 C   0  0  0  0  0  0  0  0  0  0  0  0
   -1.3725   -1.1300    0.0000 S   0  0  0  0  0  0  0  0  0  0  0  0
   -1.3701    0.5330    0.0000 C   0  0  0  0  0  0  0  0  0  0  0  0
   -0.6500    0.1139    0.0000 C   0  0  0  0  0  0  0  0  0  0  0  0
   -0.6484   -0.7196    0.0000 C   0  0  0  0  0  0  0  0  0  0  0  0
    0.0702   -1.1327    0.0000 C   0  0  0  0  0  0  0  0  0  0  0  0
    0.7919   -0.7169    0.0000 C   0  0  0  0  0  0  0  0  0  0  0  0
    0.7903    0.1166    0.0000 C   0  0  0  0  0  0  0  0  0  0  0  0
    0.0671    0.5343    0.0000 C   0  0  0  0  0  0  0  0  0  0  0  0
    1.5052   -1.1283    0.0000 N   0  0  0  0  0  0  0  0  0  0  0  0
    1.5056   -1.9517    0.0000 C   0  0  0  0  0  0  0  0  0  0  0  0
    2.2180   -0.7162    0.0000 C   0  0  0  0  0  0  0  0  0  0  0  0
   -1.3700    1.3564    0.0000 C   0  0  0  0  0  0  0  0  0  0  0  0
   -0.6565    1.7625    0.0000 C   0  0  0  0  0  0  0  0  0  0  0  0
   -0.6561    2.5851    0.0000 C   0  0  0  0  0  0  0  0  0  0  0  0
   -1.3697    2.9977    0.0000 C   0  0  0  0  0  0  0  0  0  0  0  0
   -2.0852    2.5816    0.0000 C   0  0  0  0  0  0  0  0  0  0  0  0
   -2.0822    1.7603    0.0000 C   0  0  0  0  0  0  0  0  0  0  0  0
   -4.2259   -1.1246    0.0000 N   0  0  0  0  0  0  0  0  0  0  0  0
   -4.9386   -0.7123    0.0000 C   0  0  0  0  0  0  0  0  0  0  0  0
   -4.2265   -1.9480    0.0000 C   0  0  0  0  0  0  0  0  0  0  0  0
  9 14  1  0
 10 11  2  0
 11 12  1  0
 12 13  1  0
 13 14  2  0
  2  3  2  0
 12 15  2  3
  3  6  1  0
 15 16  1  0
  5  8  1  0
 15 17  1  0
  6  7  1  0
  8 18  1  0
  7 10  1  0
 18 19  2  0
  9  8  2  0
 19 20  1  0
  9 10  1  0
 20 21  2  0
 21 22  1  0
  5  4  1  0
 22 23  2  0
 23 18  1  0
  4  1  2  0
  2 24  1  0
  5  6  2  0
 24 25  1  0
  1  2  1  0
 24 26  1  0
M  CHG  1  15   1
M  END
>  <Classification>  (182) 
0

>  <pchembl>  (182) 
4.96

>  <InChI_steorem>  (182) 
InChI=1S/C23H23N2S/c1-24(2)17-10-12-19-21(14-17)26-22-15-18(25(3)4)11-13-20(22)23(19)16-8-6-5-7-9-16/h5-15H,1-4H3

>  <source>  (182) 
ChEMBL25

>  <source_id>  (182) 
25

>  <optional_reference>  (182) 
10.1021/jm900253g

>  <optional_origin>  (182) 
None

>  <target>  (182) 
MDR1

$$$$

     RDKit          2D

 26 29  0  0  0  0  0  0  0  0999 V2000
    6.8806    0.3078    0.0000 C   0  0  0  0  0  0  0  0  0  0  0  0
    6.8794   -0.5180    0.0000 C   0  0  0  0  0  0  0  0  0  0  0  0
    7.5929   -0.9300    0.0000 C   0  0  0  0  0  0  0  0  0  0  0  0
    7.5911    0.7197    0.0000 C   0  0  0  0  0  0  0  0  0  0  0  0
    8.3049    0.3114    0.0000 C   0  0  0  0  0  0  0  0  0  0  0  0
    8.3037   -0.5201    0.0000 C   0  0  0  0  0  0  0  0  0  0  0  0
    9.0192   -0.9344    0.0000 Se  0  0  0  0  0  2  0  0  0  0  0  0
    9.0216    0.7283    0.0000 C   0  0  0  0  0  0  0  0  0  0  0  0
    9.7417    0.3093    0.0000 C   0  0  0  0  0  0  0  0  0  0  0  0
    9.7433   -0.5241    0.0000 C   0  0  0  0  0  0  0  0  0  0  0  0
   10.4618   -0.9372    0.0000 C   0  0  0  0  0  0  0  0  0  0  0  0
   11.1835   -0.5215    0.0000 C   0  0  0  0  0  0  0  0  0  0  0  0
   11.1819    0.3120    0.0000 C   0  0  0  0  0  0  0  0  0  0  0  0
   10.4587    0.7297    0.0000 C   0  0  0  0  0  0  0  0  0  0  0  0
   11.8967   -0.9327    0.0000 N   0  0  0  0  0  0  0  0  0  0  0  0
   11.8971   -1.7561    0.0000 C   0  0  0  0  0  0  0  0  0  0  0  0
   12.6095   -0.5208    0.0000 C   0  0  0  0  0  0  0  0  0  0  0  0
    9.0217    1.5517    0.0000 C   0  0  0  0  0  0  0  0  0  0  0  0
    9.7352    1.9578    0.0000 C   0  0  0  0  0  0  0  0  0  0  0  0
    9.7356    2.7803    0.0000 C   0  0  0  0  0  0  0  0  0  0  0  0
    9.0220    3.1929    0.0000 C   0  0  0  0  0  0  0  0  0  0  0  0
    8.3065    2.7768    0.0000 C   0  0  0  0  0  0  0  0  0  0  0  0
    8.3096    1.9556    0.0000 C   0  0  0  0  0  0  0  0  0  0  0  0
    6.1660   -0.9290    0.0000 N   0  0  0  0  0  0  0  0  0  0  0  0
    5.4534   -0.5169    0.0000 C   0  0  0  0  0  0  0  0  0  0  0  0
    6.1654   -1.7524    0.0000 C   0  0  0  0  0  0  0  0  0  0  0  0
  9 14  1  0
 10 11  2  0
 11 12  1  0
 12 13  1  0
 13 14  2  0
  2  3  2  0
 12 15  2  3
  3  6  1  0
 15 16  1  0
  5  8  1  0
 15 17  1  0
  6  7  1  0
  8 18  1  0
  7 10  1  0
 18 19  2  0
  9  8  2  0
 19 20  1  0
  9 10  1  0
 20 21  2  0
 21 22  1  0
  5  4  1  0
 22 23  2  0
 23 18  1  0
  4  1  2  0
  2 24  1  0
  5  6  2  0
 24 25  1  0
  1  2  1  0
 24 26  1  0
M  CHG  1  15   1
M  END
>  <Classification>  (183) 
0

>  <pchembl>  (183) 
4.96

>  <InChI_steorem>  (183) 
InChI=1S/C23H23N2Se/c1-24(2)17-10-12-19-21(14-17)26-22-15-18(25(3)4)11-13-20(22)23(19)16-8-6-5-7-9-16/h5-15H,1-4H3

>  <source>  (183) 
ChEMBL25

>  <source_id>  (183) 
25

>  <optional_reference>  (183) 
10.1021/jm900253g

>  <optional_origin>  (183) 
None

>  <target>  (183) 
MDR1

$$$$

     RDKit          2D

 31 33  0  0  0  0  0  0  0  0999 V2000
   12.4884   -0.6135    0.0000 C   0  0  0  0  0  0  0  0  0  0  0  0
   12.4871   -1.4402    0.0000 C   0  0  0  0  0  0  0  0  0  0  0  0
   13.1993   -1.8526    0.0000 C   0  0  0  0  0  0  0  0  0  0  0  0
   13.1973   -0.2011    0.0000 C   0  0  0  0  0  0  0  0  0  0  0  0
   13.9147   -0.6095    0.0000 C   0  0  0  0  0  0  0  0  0  0  0  0
   13.9185   -1.4422    0.0000 C   0  0  0  0  0  0  0  0  0  0  0  0
   14.6374   -1.8531    0.0000 C   0  0  0  0  0  0  0  0  0  0  0  0
   15.3574   -1.4358    0.0000 C   0  0  0  0  0  0  0  0  0  0  0  0
   15.3538   -0.6030    0.0000 C   0  0  0  0  0  0  0  0  0  0  0  0
   14.6301   -0.1876    0.0000 O   0  0  0  0  0  0  0  0  0  0  0  0
   16.0645   -0.1897    0.0000 C   0  0  0  0  0  0  0  0  0  0  0  0
   16.7799   -0.6009    0.0000 C   0  0  0  0  0  0  0  0  0  0  0  0
   17.4916   -0.1871    0.0000 C   0  0  0  0  0  0  0  0  0  0  0  0
   17.4893    0.6379    0.0000 C   0  0  0  0  0  0  0  0  0  0  0  0
   16.7691    1.0473    0.0000 C   0  0  0  0  0  0  0  0  0  0  0  0
   16.0603    0.6311    0.0000 C   0  0  0  0  0  0  0  0  0  0  0  0
   14.6400   -2.6772    0.0000 O   0  0  0  0  0  0  0  0  0  0  0  0
   13.1968   -2.6767    0.0000 O   0  0  0  0  0  0  0  0  0  0  0  0
   11.7728   -1.8512    0.0000 O   0  0  0  0  0  0  0  0  0  0  0  0
   11.0597   -1.4381    0.0000 C   0  0  0  0  0  0  0  0  0  0  0  0
   11.7743   -0.2020    0.0000 O   0  0  0  0  0  0  0  0  0  0  0  0
   11.7737    0.6222    0.0000 C   0  0  0  0  0  0  0  0  0  0  0  0
   13.1935    0.6230    0.0000 O   0  0  0  0  0  0  0  0  0  0  0  0
   13.9053    1.0384    0.0000 C   0  0  0  0  0  0  0  0  0  0  0  0
   18.2010    1.0533    0.0000 O   0  0  0  0  0  0  0  0  0  0  0  0
   18.9167    0.6447    0.0000 C   0  0  0  0  0  0  0  0  0  0  0  0
   12.4818   -3.0866    0.0000 C   0  0  0  0  0  0  0  0  0  0  0  0
   16.0724   -1.8457    0.0000 O   0  0  0  0  0  0  0  0  0  0  0  0
   16.0749   -2.6698    0.0000 C   0  0  0  0  0  0  0  0  0  0  0  0
   16.7634    1.8714    0.0000 O   0  0  0  0  0  0  0  0  0  0  0  0
   17.4743    2.2884    0.0000 C   0  0  0  0  0  0  0  0  0  0  0  0
  5  4  1  0
 15 16  2  0
 16 11  1  0
  9 11  1  0
  4  1  2  0
  7 17  2  0
  5 10  1  0
  3 18  1  0
  6  7  1  0
  2 19  1  0
  7  8  1  0
 19 20  1  0
  8  9  2  0
  1 21  1  0
  9 10  1  0
 21 22  1  0
  5  6  2  0
  4 23  1  0
 23 24  1  0
 11 12  2  0
 14 25  1  0
  2  3  2  0
 25 26  1  0
 12 13  1  0
 18 27  1  0
  3  6  1  0
  8 28  1  0
 13 14  2  0
 28 29  1  0
  1  2  1  0
 15 30  1  0
 14 15  1  0
 30 31  1  0
M  END
>  <Classification>  (184) 
0

>  <pchembl>  (184) 
4.51

>  <InChI_steorem>  (184) 
InChI=1S/C22H24O9/c1-24-12-9-8-11(10-13(12)25-2)16-19(27-4)15(23)14-17(26-3)20(28-5)22(30-7)21(29-6)18(14)31-16/h8-10H,1-7H3

>  <source>  (184) 
ChEMBL25

>  <source_id>  (184) 
25

>  <optional_reference>  (184) 
10.1016/j.bmc.2010.12.043

>  <optional_origin>  (184) 
None

>  <target>  (184) 
MDR1

$$$$

     RDKit          2D

 19 21  0  0  0  0  0  0  0  0999 V2000
    5.5639  -19.6923    0.0000 C   0  0  0  0  0  0  0  0  0  0  0  0
    5.5639  -20.5181    0.0000 C   0  0  0  0  0  0  0  0  0  0  0  0
    4.8531  -20.9288    0.0000 C   0  0  0  0  0  0  0  0  0  0  0  0
    4.8531  -21.7547    0.0000 O   0  0  0  0  0  0  0  0  0  0  0  0
    4.1376  -20.5181    0.0000 C   0  0  0  0  0  0  0  0  0  0  0  0
    3.4266  -20.9288    0.0000 C   0  0  0  0  0  0  0  0  0  0  0  0
    2.7111  -20.5181    0.0000 C   0  0  0  0  0  0  0  0  0  0  0  0
    2.7111  -19.6923    0.0000 C   0  0  0  0  0  0  0  0  0  0  0  0
    3.4266  -19.2817    0.0000 C   0  0  0  0  0  0  0  0  0  0  0  0
    4.1376  -19.6923    0.0000 C   0  0  0  0  0  0  0  0  0  0  0  0
    4.8531  -19.2817    0.0000 O   0  0  0  0  0  0  0  0  0  0  0  0
    6.2795  -19.2817    0.0000 C   0  0  0  0  0  0  0  0  0  0  0  0
    6.2795  -18.4558    0.0000 C   0  0  0  0  0  0  0  0  0  0  0  0
    6.9904  -18.0451    0.0000 C   0  0  0  0  0  0  0  0  0  0  0  0
    7.7059  -18.4558    0.0000 C   0  0  0  0  0  0  0  0  0  0  0  0
    7.7059  -19.2817    0.0000 C   0  0  0  0  0  0  0  0  0  0  0  0
    6.9904  -19.6923    0.0000 C   0  0  0  0  0  0  0  0  0  0  0  0
    2.0004  -20.9298    0.0000 O   0  0  0  0  0  0  0  0  0  0  0  0
    1.2886  -20.5200    0.0000 C   0  0  0  0  0  0  0  0  0  0  0  0
  2  3  1  0
  3  4  2  0
  3  5  1  0
  5  6  2  0
  6  7  1  0
  7  8  2  0
  8  9  1  0
  9 10  2  0
  5 10  1  0
 10 11  1  0
  1 11  1  0
  1 12  1  0
 12 13  2  0
 13 14  1  0
 14 15  2  0
 15 16  1  0
 16 17  2  0
 12 17  1  0
  7 18  1  0
  1  2  2  0
 18 19  1  0
M  END
>  <Classification>  (185) 
0

>  <pchembl>  (185) 
4.82

>  <InChI_steorem>  (185) 
InChI=1S/C16H12O3/c1-18-12-7-8-15-13(9-12)14(17)10-16(19-15)11-5-3-2-4-6-11/h2-10H,1H3

>  <source>  (185) 
ChEMBL25

>  <source_id>  (185) 
25

>  <optional_reference>  (185) 
10.1016/j.bmc.2010.12.043

>  <optional_origin>  (185) 
None

>  <target>  (185) 
MDR1

$$$$

     RDKit          2D

 26 28  0  0  0  0  0  0  0  0999 V2000
   -4.3099    1.5034    0.0000 C   0  0  0  0  0  0  0  0  0  0  0  0
   -4.3112    0.6757    0.0000 C   0  0  0  0  0  0  0  0  0  0  0  0
   -3.5982    0.2629    0.0000 C   0  0  0  0  0  0  0  0  0  0  0  0
   -2.8789    0.6763    0.0000 C   0  0  0  0  0  0  0  0  0  0  0  0
   -3.6002    1.9162    0.0000 C   0  0  0  0  0  0  0  0  0  0  0  0
   -2.1640    0.2644    0.0000 C   0  0  0  0  0  0  0  0  0  0  0  0
   -1.4499    0.6776    0.0000 C   0  0  0  0  0  0  0  0  0  0  0  0
   -0.7351    0.2658    0.0000 C   0  0  0  0  0  0  0  0  0  0  0  0
   -0.7396   -0.5602    0.0000 C   0  0  0  0  0  0  0  0  0  0  0  0
   -0.0256   -0.9721    0.0000 C   0  0  0  0  0  0  0  0  0  0  0  0
    0.6894   -0.5588    0.0000 C   0  0  0  0  0  0  0  0  0  0  0  0
    0.6860    0.2705    0.0000 C   0  0  0  0  0  0  0  0  0  0  0  0
   -0.0286    0.6785    0.0000 C   0  0  0  0  0  0  0  0  0  0  0  0
   -2.8921    1.5079    0.0000 C   0  0  0  0  0  0  0  0  0  0  0  0
   -3.6018    2.7412    0.0000 O   0  0  0  0  0  0  0  0  0  0  0  0
   -2.8881    3.1550    0.0000 C   0  0  0  0  0  0  0  0  0  0  0  0
   -0.0327    1.5035    0.0000 O   0  0  0  0  0  0  0  0  0  0  0  0
    0.6798    1.9195    0.0000 C   0  0  0  0  0  0  0  0  0  0  0  0
    1.3962    1.5105    0.0000 C   0  0  0  0  0  0  0  0  0  0  0  0
    2.1087    1.9265    0.0000 N   0  0  0  0  0  0  0  0  0  0  0  0
    2.8223    1.5166    0.0000 C   0  0  0  0  0  0  0  0  0  0  0  0
    3.5325    1.9291    0.0000 C   0  0  0  0  0  0  0  0  0  0  0  0
    3.5327    2.7545    0.0000 N   0  0  0  0  0  0  0  0  0  0  0  0
    2.8164    3.1656    0.0000 C   0  0  0  0  0  0  0  0  0  0  0  0
    2.0999    2.7514    0.0000 C   0  0  0  0  0  0  0  0  0  0  0  0
    4.2467    3.1678    0.0000 C   0  0  0  0  0  0  0  0  0  0  0  0
 12 13  2  0
 13  8  1  0
  1  2  2  0
  5 14  2  0
  6  7  1  0
  5 15  1  0
  3  4  2  0
 15 16  1  0
  7  8  1  0
 13 17  1  0
  4 14  1  0
 17 18  1  0
  8  9  2  0
 18 19  1  0
 19 20  1  0
 20 21  1  0
  9 10  1  0
  5  1  1  0
 10 11  2  0
  2  3  1  0
 11 12  1  0
 20 25  1  0
 21 22  1  0
 22 23  1  0
 23 24  1  0
 24 25  1  0
  4  6  1  0
 23 26  1  0
M  END
>  <Classification>  (186) 
1

>  <pchembl>  (186) 
6.1

>  <InChI_steorem>  (186) 
InChI=1S/C22H30N2O2/c1-23-12-14-24(15-13-23)16-17-26-22-9-4-3-7-20(22)11-10-19-6-5-8-21(18-19)25-2/h3-9,18H,10-17H2,1-2H3

>  <source>  (186) 
ChEMBL25

>  <source_id>  (186) 
25

>  <optional_reference>  (186) 
10.1021/jm800928j

>  <optional_origin>  (186) 
None

>  <target>  (186) 
MDR1

$$$$

     RDKit          2D

 27 29  0  0  0  0  0  0  0  0999 V2000
   15.6854    1.6642    0.0000 N   0  0  0  0  0  0  0  0  0  0  0  0
   15.6849    0.8412    0.0000 C   0  0  0  0  0  0  0  0  0  0  0  0
   16.3963    0.4305    0.0000 C   0  0  0  0  0  0  0  0  0  0  0  0
   17.1121    0.8411    0.0000 N   0  0  0  0  0  0  0  0  0  0  0  0
   17.1122    1.6671    0.0000 C   0  0  0  0  0  0  0  0  0  0  0  0
   16.3964    2.0823    0.0000 C   0  0  0  0  0  0  0  0  0  0  0  0
    8.5506    1.6499    0.0000 C   0  0  0  0  0  0  0  0  0  0  0  0
    8.5493    0.8224    0.0000 C   0  0  0  0  0  0  0  0  0  0  0  0
    9.2623    0.4095    0.0000 C   0  0  0  0  0  0  0  0  0  0  0  0
    9.9815    0.8229    0.0000 C   0  0  0  0  0  0  0  0  0  0  0  0
    9.2603    2.0627    0.0000 C   0  0  0  0  0  0  0  0  0  0  0  0
   10.6964    0.4111    0.0000 C   0  0  0  0  0  0  0  0  0  0  0  0
   11.4104    0.8242    0.0000 C   0  0  0  0  0  0  0  0  0  0  0  0
   12.1253    0.4124    0.0000 C   0  0  0  0  0  0  0  0  0  0  0  0
   12.1206   -0.4136    0.0000 C   0  0  0  0  0  0  0  0  0  0  0  0
   12.8346   -0.8253    0.0000 C   0  0  0  0  0  0  0  0  0  0  0  0
   13.5497   -0.4122    0.0000 C   0  0  0  0  0  0  0  0  0  0  0  0
   13.5463    0.4171    0.0000 C   0  0  0  0  0  0  0  0  0  0  0  0
   12.8318    0.8251    0.0000 C   0  0  0  0  0  0  0  0  0  0  0  0
    9.9683    1.6546    0.0000 C   0  0  0  0  0  0  0  0  0  0  0  0
    9.2587    2.8877    0.0000 O   0  0  0  0  0  0  0  0  0  0  0  0
    9.9723    3.3015    0.0000 C   0  0  0  0  0  0  0  0  0  0  0  0
   12.8277    1.6500    0.0000 O   0  0  0  0  0  0  0  0  0  0  0  0
   13.5400    2.0660    0.0000 C   0  0  0  0  0  0  0  0  0  0  0  0
   14.2565    1.6571    0.0000 C   0  0  0  0  0  0  0  0  0  0  0  0
   14.9690    2.0731    0.0000 C   0  0  0  0  0  0  0  0  0  0  0  0
   17.8260    0.4276    0.0000 C   0  0  0  0  0  0  0  0  0  0  0  0
  1  2  1  0
 13 14  1  0
 14 15  2  0
  7  8  2  0
 15 16  1  0
  1  6  1  0
 16 17  2  0
  8  9  1  0
 17 18  1  0
  2  3  1  0
 18 19  2  0
 19 14  1  0
  9 10  2  0
 11 20  2  0
 10 20  1  0
 11 21  1  0
  3  4  1  0
 21 22  1  0
 11  7  1  0
 19 23  1  0
  4  5  1  0
 23 24  1  0
 10 12  1  0
 24 25  1  0
  5  6  1  0
 25 26  1  0
 26  1  1  0
 12 13  1  0
  4 27  1  0
M  END
>  <Classification>  (187) 
1

>  <pchembl>  (187) 
5.6

>  <InChI_steorem>  (187) 
InChI=1S/C23H32N2O2/c1-24-14-16-25(17-15-24)13-6-18-27-23-10-4-3-8-21(23)12-11-20-7-5-9-22(19-20)26-2/h3-5,7-10,19H,6,11-18H2,1-2H3

>  <source>  (187) 
ChEMBL25

>  <source_id>  (187) 
25

>  <optional_reference>  (187) 
10.1021/jm800928j

>  <optional_origin>  (187) 
None

>  <target>  (187) 
MDR1

$$$$

     RDKit          2D

 28 30  0  0  0  0  0  0  0  0999 V2000
   12.1166   -0.4125    0.0000 C   0  0  0  0  0  0  0  0  0  0  0  0
   12.1154   -1.2400    0.0000 C   0  0  0  0  0  0  0  0  0  0  0  0
   12.8283   -1.6529    0.0000 C   0  0  0  0  0  0  0  0  0  0  0  0
   13.5477   -1.2396    0.0000 C   0  0  0  0  0  0  0  0  0  0  0  0
   12.8263    0.0003    0.0000 C   0  0  0  0  0  0  0  0  0  0  0  0
   14.2624   -1.6514    0.0000 C   0  0  0  0  0  0  0  0  0  0  0  0
   14.9765   -1.2383    0.0000 C   0  0  0  0  0  0  0  0  0  0  0  0
   15.6914   -1.6501    0.0000 C   0  0  0  0  0  0  0  0  0  0  0  0
   15.6868   -2.4761    0.0000 C   0  0  0  0  0  0  0  0  0  0  0  0
   16.4008   -2.8878    0.0000 C   0  0  0  0  0  0  0  0  0  0  0  0
   17.1159   -2.4746    0.0000 C   0  0  0  0  0  0  0  0  0  0  0  0
   17.1125   -1.6454    0.0000 C   0  0  0  0  0  0  0  0  0  0  0  0
   16.3978   -1.2374    0.0000 C   0  0  0  0  0  0  0  0  0  0  0  0
   13.5345   -0.4079    0.0000 C   0  0  0  0  0  0  0  0  0  0  0  0
   12.8247    0.8253    0.0000 O   0  0  0  0  0  0  0  0  0  0  0  0
   13.5384    1.2391    0.0000 C   0  0  0  0  0  0  0  0  0  0  0  0
   16.3938   -0.4124    0.0000 N   0  0  0  0  0  0  0  0  0  0  0  0
   17.1062    0.0036    0.0000 C   0  0  0  0  0  0  0  0  0  0  0  0
   17.1022    0.8286    0.0000 C   0  0  0  0  0  0  0  0  0  0  0  0
   17.8170    1.2409    0.0000 C   0  0  0  0  0  0  0  0  0  0  0  0
   17.8133    2.0651    0.0000 C   0  0  0  0  0  0  0  0  0  0  0  0
   17.0963    2.4749    0.0000 C   0  0  0  0  0  0  0  0  0  0  0  0
   16.3816    2.0544    0.0000 C   0  0  0  0  0  0  0  0  0  0  0  0
   16.3888    1.2315    0.0000 C   0  0  0  0  0  0  0  0  0  0  0  0
   18.5324    0.8298    0.0000 O   0  0  0  0  0  0  0  0  0  0  0  0
   18.5260    2.4808    0.0000 O   0  0  0  0  0  0  0  0  0  0  0  0
   18.5340    0.0048    0.0000 C   0  0  0  0  0  0  0  0  0  0  0  0
   18.5222    3.3058    0.0000 C   0  0  0  0  0  0  0  0  0  0  0  0
  1  2  2  0
  5 14  2  0
  6  7  1  0
  5 15  1  0
  3  4  2  0
 15 16  1  0
  7  8  1  0
 13 17  1  0
  4 14  1  0
 17 18  1  0
  8  9  2  0
 18 19  1  0
 19 20  2  0
  9 10  1  0
 20 21  1  0
  5  1  1  0
 21 22  2  0
 10 11  2  0
 22 23  1  0
  2  3  1  0
 23 24  2  0
 24 19  1  0
 11 12  1  0
 20 25  1  0
  4  6  1  0
 21 26  1  0
 12 13  2  0
 25 27  1  0
 13  8  1  0
 26 28  1  0
M  END
>  <Classification>  (188) 
1

>  <pchembl>  (188) 
7.07

>  <InChI_steorem>  (188) 
InChI=1S/C24H27NO3/c1-26-21-11-6-8-18(16-21)14-15-19-9-4-5-12-22(19)25-17-20-10-7-13-23(27-2)24(20)28-3/h4-13,16,25H,14-15,17H2,1-3H3

>  <source>  (188) 
ChEMBL25

>  <source_id>  (188) 
25

>  <optional_reference>  (188) 
10.1021/jm800928j

>  <optional_origin>  (188) 
None

>  <target>  (188) 
MDR1

$$$$

     RDKit          2D

 28 30  0  0  0  0  0  0  0  0999 V2000
    2.6254   -4.4095    0.0000 N   0  0  0  0  0  0  0  0  0  0  0  0
    3.3389   -4.8195    0.0000 C   0  0  0  0  0  0  0  0  0  0  0  0
    4.0493   -4.4070    0.0000 C   0  0  0  0  0  0  0  0  0  0  0  0
    4.0494   -3.5817    0.0000 N   0  0  0  0  0  0  0  0  0  0  0  0
    3.3331   -3.1705    0.0000 C   0  0  0  0  0  0  0  0  0  0  0  0
    2.6166   -3.5848    0.0000 C   0  0  0  0  0  0  0  0  0  0  0  0
   -5.2219   -4.8398    0.0000 C   0  0  0  0  0  0  0  0  0  0  0  0
   -5.2231   -5.6673    0.0000 C   0  0  0  0  0  0  0  0  0  0  0  0
   -4.5102   -6.0803    0.0000 C   0  0  0  0  0  0  0  0  0  0  0  0
   -3.7908   -5.6669    0.0000 C   0  0  0  0  0  0  0  0  0  0  0  0
   -4.5122   -4.4270    0.0000 C   0  0  0  0  0  0  0  0  0  0  0  0
   -3.0761   -6.0787    0.0000 C   0  0  0  0  0  0  0  0  0  0  0  0
   -2.3620   -5.6656    0.0000 C   0  0  0  0  0  0  0  0  0  0  0  0
   -1.6471   -6.0774    0.0000 C   0  0  0  0  0  0  0  0  0  0  0  0
   -1.6517   -6.9034    0.0000 C   0  0  0  0  0  0  0  0  0  0  0  0
   -0.9377   -7.3151    0.0000 C   0  0  0  0  0  0  0  0  0  0  0  0
   -0.2226   -6.9019    0.0000 C   0  0  0  0  0  0  0  0  0  0  0  0
   -0.2260   -6.0727    0.0000 C   0  0  0  0  0  0  0  0  0  0  0  0
   -0.9407   -5.6647    0.0000 C   0  0  0  0  0  0  0  0  0  0  0  0
   -3.8040   -4.8352    0.0000 C   0  0  0  0  0  0  0  0  0  0  0  0
   -4.5137   -3.6021    0.0000 O   0  0  0  0  0  0  0  0  0  0  0  0
   -3.8000   -3.1882    0.0000 C   0  0  0  0  0  0  0  0  0  0  0  0
   -0.9448   -4.8397    0.0000 O   0  0  0  0  0  0  0  0  0  0  0  0
   -0.2323   -4.4237    0.0000 C   0  0  0  0  0  0  0  0  0  0  0  0
    0.4842   -4.8327    0.0000 C   0  0  0  0  0  0  0  0  0  0  0  0
    1.1965   -4.4166    0.0000 C   0  0  0  0  0  0  0  0  0  0  0  0
    1.9131   -4.8255    0.0000 C   0  0  0  0  0  0  0  0  0  0  0  0
    4.7634   -3.1683    0.0000 C   0  0  0  0  0  0  0  0  0  0  0  0
 13 14  1  0
 14 15  2  0
  7  8  2  0
 15 16  1  0
  1  6  1  0
 16 17  2  0
  8  9  1  0
 17 18  1  0
  2  3  1  0
 18 19  2  0
 19 14  1  0
  9 10  2  0
 11 20  2  0
 10 20  1  0
 11 21  1  0
  3  4  1  0
 21 22  1  0
 11  7  1  0
 19 23  1  0
  4  5  1  0
 23 24  1  0
 10 12  1  0
 24 25  1  0
  5  6  1  0
 25 26  1  0
 12 13  1  0
 26 27  1  0
 27  1  1  0
  1  2  1  0
  4 28  1  0
M  END
>  <Classification>  (189) 
1

>  <pchembl>  (189) 
6.82

>  <InChI_steorem>  (189) 
InChI=1S/C24H34N2O2/c1-25-15-17-26(18-16-25)14-5-6-19-28-24-11-4-3-9-22(24)13-12-21-8-7-10-23(20-21)27-2/h3-4,7-11,20H,5-6,12-19H2,1-2H3

>  <source>  (189) 
ChEMBL25

>  <source_id>  (189) 
25

>  <optional_reference>  (189) 
10.1021/jm800928j

>  <optional_origin>  (189) 
None

>  <target>  (189) 
MDR1

$$$$

     RDKit          2D

 28 30  0  0  0  0  0  0  0  0999 V2000
    3.9629   -0.6507    0.0000 C   0  0  0  0  0  0  0  0  0  0  0  0
    3.9617   -1.4784    0.0000 C   0  0  0  0  0  0  0  0  0  0  0  0
    4.6746   -1.8913    0.0000 C   0  0  0  0  0  0  0  0  0  0  0  0
    5.3940   -1.4778    0.0000 C   0  0  0  0  0  0  0  0  0  0  0  0
    4.6726   -0.2380    0.0000 C   0  0  0  0  0  0  0  0  0  0  0  0
    6.1088   -1.8897    0.0000 C   0  0  0  0  0  0  0  0  0  0  0  0
    6.8229   -1.4765    0.0000 C   0  0  0  0  0  0  0  0  0  0  0  0
    7.5377   -1.8883    0.0000 C   0  0  0  0  0  0  0  0  0  0  0  0
    7.5331   -2.7144    0.0000 C   0  0  0  0  0  0  0  0  0  0  0  0
    8.2471   -3.1262    0.0000 C   0  0  0  0  0  0  0  0  0  0  0  0
    8.9622   -2.7129    0.0000 C   0  0  0  0  0  0  0  0  0  0  0  0
    8.9588   -1.8837    0.0000 C   0  0  0  0  0  0  0  0  0  0  0  0
    8.2441   -1.4756    0.0000 C   0  0  0  0  0  0  0  0  0  0  0  0
    5.3808   -0.6462    0.0000 C   0  0  0  0  0  0  0  0  0  0  0  0
    4.6711    0.5870    0.0000 O   0  0  0  0  0  0  0  0  0  0  0  0
    5.3847    1.0009    0.0000 C   0  0  0  0  0  0  0  0  0  0  0  0
    8.2401   -0.6506    0.0000 O   0  0  0  0  0  0  0  0  0  0  0  0
    8.9525   -0.2346    0.0000 C   0  0  0  0  0  0  0  0  0  0  0  0
    8.9485    0.5904    0.0000 C   0  0  0  0  0  0  0  0  0  0  0  0
    9.6633    1.0025    0.0000 C   0  0  0  0  0  0  0  0  0  0  0  0
    9.6596    1.8267    0.0000 C   0  0  0  0  0  0  0  0  0  0  0  0
    8.9426    2.2365    0.0000 C   0  0  0  0  0  0  0  0  0  0  0  0
    8.2279    1.8161    0.0000 C   0  0  0  0  0  0  0  0  0  0  0  0
    8.2351    0.9933    0.0000 C   0  0  0  0  0  0  0  0  0  0  0  0
   10.3723    2.2424    0.0000 O   0  0  0  0  0  0  0  0  0  0  0  0
   10.3685    3.0674    0.0000 C   0  0  0  0  0  0  0  0  0  0  0  0
    8.9375    3.0615    0.0000 O   0  0  0  0  0  0  0  0  0  0  0  0
    9.6493    3.4785    0.0000 C   0  0  0  0  0  0  0  0  0  0  0  0
  1  2  2  0
  5 14  2  0
  6  7  1  0
  5 15  1  0
  3  4  2  0
 15 16  1  0
  7  8  1  0
 13 17  1  0
  4 14  1  0
 17 18  1  0
  8  9  2  0
 18 19  1  0
 19 20  2  0
  9 10  1  0
 20 21  1  0
  5  1  1  0
 21 22  2  0
 10 11  2  0
 22 23  1  0
  2  3  1  0
 23 24  2  0
 24 19  1  0
 11 12  1  0
 21 25  1  0
  4  6  1  0
 25 26  1  0
 12 13  2  0
 22 27  1  0
 13  8  1  0
 27 28  1  0
M  END
>  <Classification>  (190) 
1

>  <pchembl>  (190) 
6.19

>  <InChI_steorem>  (190) 
InChI=1S/C24H26O4/c1-25-21-9-6-7-18(15-21)11-13-20-8-4-5-10-22(20)28-17-19-12-14-23(26-2)24(16-19)27-3/h4-10,12,14-16H,11,13,17H2,1-3H3

>  <source>  (190) 
ChEMBL25

>  <source_id>  (190) 
25

>  <optional_reference>  (190) 
10.1021/jm800928j

>  <optional_origin>  (190) 
None

>  <target>  (190) 
MDR1

$$$$

     RDKit          2D

 28 30  0  0  0  0  0  0  0  0999 V2000
   -4.8920   -8.1031    0.0000 C   0  0  0  0  0  0  0  0  0  0  0  0
   -4.8932   -8.9308    0.0000 C   0  0  0  0  0  0  0  0  0  0  0  0
   -4.1803   -9.3437    0.0000 C   0  0  0  0  0  0  0  0  0  0  0  0
   -3.4609   -8.9302    0.0000 C   0  0  0  0  0  0  0  0  0  0  0  0
   -4.1822   -7.6904    0.0000 C   0  0  0  0  0  0  0  0  0  0  0  0
   -2.7461   -9.3420    0.0000 C   0  0  0  0  0  0  0  0  0  0  0  0
   -2.0320   -8.9289    0.0000 C   0  0  0  0  0  0  0  0  0  0  0  0
   -1.3171   -9.3407    0.0000 C   0  0  0  0  0  0  0  0  0  0  0  0
   -1.3217  -10.1668    0.0000 C   0  0  0  0  0  0  0  0  0  0  0  0
   -0.6077  -10.5785    0.0000 C   0  0  0  0  0  0  0  0  0  0  0  0
    0.1074  -10.1653    0.0000 C   0  0  0  0  0  0  0  0  0  0  0  0
    0.1039   -9.3361    0.0000 C   0  0  0  0  0  0  0  0  0  0  0  0
   -0.6107   -8.9280    0.0000 C   0  0  0  0  0  0  0  0  0  0  0  0
   -3.4741   -8.0986    0.0000 C   0  0  0  0  0  0  0  0  0  0  0  0
   -4.1838   -6.8654    0.0000 O   0  0  0  0  0  0  0  0  0  0  0  0
   -3.4701   -6.4515    0.0000 C   0  0  0  0  0  0  0  0  0  0  0  0
   -0.6148   -8.1030    0.0000 N   0  0  0  0  0  0  0  0  0  0  0  0
    0.0977   -7.6870    0.0000 C   0  0  0  0  0  0  0  0  0  0  0  0
    0.0936   -6.8620    0.0000 C   0  0  0  0  0  0  0  0  0  0  0  0
    0.8085   -6.4499    0.0000 C   0  0  0  0  0  0  0  0  0  0  0  0
    0.8047   -5.6256    0.0000 C   0  0  0  0  0  0  0  0  0  0  0  0
    0.0878   -5.2159    0.0000 C   0  0  0  0  0  0  0  0  0  0  0  0
   -0.6270   -5.6363    0.0000 C   0  0  0  0  0  0  0  0  0  0  0  0
   -0.6197   -6.4591    0.0000 C   0  0  0  0  0  0  0  0  0  0  0  0
    1.5174   -5.2100    0.0000 O   0  0  0  0  0  0  0  0  0  0  0  0
    1.5137   -4.3850    0.0000 C   0  0  0  0  0  0  0  0  0  0  0  0
    0.0826   -4.3909    0.0000 O   0  0  0  0  0  0  0  0  0  0  0  0
    0.7944   -3.9739    0.0000 C   0  0  0  0  0  0  0  0  0  0  0  0
  1  2  2  0
  5 14  2  0
  6  7  1  0
  5 15  1  0
  3  4  2  0
 15 16  1  0
  7  8  1  0
 13 17  1  0
  4 14  1  0
 17 18  1  0
  8  9  2  0
 18 19  1  0
 19 20  2  0
  9 10  1  0
 20 21  1  0
  5  1  1  0
 21 22  2  0
 10 11  2  0
 22 23  1  0
  2  3  1  0
 23 24  2  0
 24 19  1  0
 11 12  1  0
 21 25  1  0
  4  6  1  0
 25 26  1  0
 12 13  2  0
 22 27  1  0
 13  8  1  0
 27 28  1  0
M  END
>  <Classification>  (191) 
1

>  <pchembl>  (191) 
6.75

>  <InChI_steorem>  (191) 
InChI=1S/C24H27NO3/c1-26-21-9-6-7-18(15-21)11-13-20-8-4-5-10-22(20)25-17-19-12-14-23(27-2)24(16-19)28-3/h4-10,12,14-16,25H,11,13,17H2,1-3H3

>  <source>  (191) 
ChEMBL25

>  <source_id>  (191) 
25

>  <optional_reference>  (191) 
10.1021/jm800928j

>  <optional_origin>  (191) 
None

>  <target>  (191) 
MDR1

$$$$

     RDKit          2D

 28 30  0  0  0  0  0  0  0  0999 V2000
   -5.4602   -0.4491    0.0000 C   0  0  0  0  0  0  0  0  0  0  0  0
   -5.4615   -1.2768    0.0000 C   0  0  0  0  0  0  0  0  0  0  0  0
   -4.7485   -1.6896    0.0000 C   0  0  0  0  0  0  0  0  0  0  0  0
   -4.0293   -1.2762    0.0000 C   0  0  0  0  0  0  0  0  0  0  0  0
   -4.7505   -0.0363    0.0000 C   0  0  0  0  0  0  0  0  0  0  0  0
   -3.3144   -1.6880    0.0000 C   0  0  0  0  0  0  0  0  0  0  0  0
   -2.6004   -1.2749    0.0000 C   0  0  0  0  0  0  0  0  0  0  0  0
   -1.8855   -1.6867    0.0000 C   0  0  0  0  0  0  0  0  0  0  0  0
   -1.8901   -2.5127    0.0000 C   0  0  0  0  0  0  0  0  0  0  0  0
   -1.1761   -2.9245    0.0000 C   0  0  0  0  0  0  0  0  0  0  0  0
   -0.4610   -2.5113    0.0000 C   0  0  0  0  0  0  0  0  0  0  0  0
   -0.4644   -1.6820    0.0000 C   0  0  0  0  0  0  0  0  0  0  0  0
   -1.1790   -1.2740    0.0000 C   0  0  0  0  0  0  0  0  0  0  0  0
   -4.0425   -0.4446    0.0000 C   0  0  0  0  0  0  0  0  0  0  0  0
   -4.7522    0.7887    0.0000 O   0  0  0  0  0  0  0  0  0  0  0  0
   -4.0385    1.2025    0.0000 C   0  0  0  0  0  0  0  0  0  0  0  0
   -1.1830   -0.4490    0.0000 O   0  0  0  0  0  0  0  0  0  0  0  0
   -0.4707   -0.0330    0.0000 C   0  0  0  0  0  0  0  0  0  0  0  0
   -0.4748    0.7920    0.0000 C   0  0  0  0  0  0  0  0  0  0  0  0
    0.2401    1.2042    0.0000 C   0  0  0  0  0  0  0  0  0  0  0  0
    0.2365    2.0284    0.0000 C   0  0  0  0  0  0  0  0  0  0  0  0
   -0.4806    2.4382    0.0000 C   0  0  0  0  0  0  0  0  0  0  0  0
   -1.1954    2.0177    0.0000 C   0  0  0  0  0  0  0  0  0  0  0  0
   -1.1881    1.1949    0.0000 C   0  0  0  0  0  0  0  0  0  0  0  0
    0.9554    0.7931    0.0000 O   0  0  0  0  0  0  0  0  0  0  0  0
    0.9491    2.4441    0.0000 O   0  0  0  0  0  0  0  0  0  0  0  0
    0.9571   -0.0319    0.0000 C   0  0  0  0  0  0  0  0  0  0  0  0
    0.9454    3.2691    0.0000 C   0  0  0  0  0  0  0  0  0  0  0  0
  1  2  2  0
  5 14  2  0
  6  7  1  0
  5 15  1  0
  3  4  2  0
 15 16  1  0
  7  8  1  0
 13 17  1  0
  4 14  1  0
 17 18  1  0
  8  9  2  0
 18 19  1  0
 19 20  2  0
  9 10  1  0
 20 21  1  0
  5  1  1  0
 21 22  2  0
 10 11  2  0
 22 23  1  0
  2  3  1  0
 23 24  2  0
 24 19  1  0
 11 12  1  0
 20 25  1  0
  4  6  1  0
 21 26  1  0
 12 13  2  0
 25 27  1  0
 13  8  1  0
 26 28  1  0
M  END
>  <Classification>  (192) 
1

>  <pchembl>  (192) 
6.6

>  <InChI_steorem>  (192) 
InChI=1S/C24H26O4/c1-25-21-11-6-8-18(16-21)14-15-19-9-4-5-12-22(19)28-17-20-10-7-13-23(26-2)24(20)27-3/h4-13,16H,14-15,17H2,1-3H3

>  <source>  (192) 
ChEMBL25

>  <source_id>  (192) 
25

>  <optional_reference>  (192) 
10.1021/jm800928j

>  <optional_origin>  (192) 
None

>  <target>  (192) 
MDR1

$$$$

     RDKit          2D

 29 31  0  0  0  0  0  0  0  0999 V2000
   16.2986   -4.6948    0.0000 N   0  0  0  0  0  0  0  0  0  0  0  0
   16.2982   -5.5178    0.0000 C   0  0  0  0  0  0  0  0  0  0  0  0
   17.0094   -5.9285    0.0000 C   0  0  0  0  0  0  0  0  0  0  0  0
   17.7254   -5.5179    0.0000 N   0  0  0  0  0  0  0  0  0  0  0  0
   17.7255   -4.6919    0.0000 C   0  0  0  0  0  0  0  0  0  0  0  0
   17.0096   -4.2766    0.0000 C   0  0  0  0  0  0  0  0  0  0  0  0
    7.7348   -4.7161    0.0000 C   0  0  0  0  0  0  0  0  0  0  0  0
    7.7335   -5.5436    0.0000 C   0  0  0  0  0  0  0  0  0  0  0  0
    8.4465   -5.9565    0.0000 C   0  0  0  0  0  0  0  0  0  0  0  0
    9.1658   -5.5432    0.0000 C   0  0  0  0  0  0  0  0  0  0  0  0
    8.4445   -4.3033    0.0000 C   0  0  0  0  0  0  0  0  0  0  0  0
    9.8807   -5.9550    0.0000 C   0  0  0  0  0  0  0  0  0  0  0  0
   10.5948   -5.5418    0.0000 C   0  0  0  0  0  0  0  0  0  0  0  0
   11.3095   -5.9537    0.0000 C   0  0  0  0  0  0  0  0  0  0  0  0
   11.3050   -6.7796    0.0000 C   0  0  0  0  0  0  0  0  0  0  0  0
   12.0190   -7.1913    0.0000 C   0  0  0  0  0  0  0  0  0  0  0  0
   12.7340   -6.7782    0.0000 C   0  0  0  0  0  0  0  0  0  0  0  0
   12.7306   -5.9489    0.0000 C   0  0  0  0  0  0  0  0  0  0  0  0
   12.0160   -5.5410    0.0000 C   0  0  0  0  0  0  0  0  0  0  0  0
    9.1526   -4.7115    0.0000 C   0  0  0  0  0  0  0  0  0  0  0  0
    8.4429   -3.4783    0.0000 O   0  0  0  0  0  0  0  0  0  0  0  0
    9.1565   -3.0645    0.0000 C   0  0  0  0  0  0  0  0  0  0  0  0
   12.0119   -4.7160    0.0000 O   0  0  0  0  0  0  0  0  0  0  0  0
   12.7244   -4.3000    0.0000 C   0  0  0  0  0  0  0  0  0  0  0  0
   13.4408   -4.7089    0.0000 C   0  0  0  0  0  0  0  0  0  0  0  0
   14.1532   -4.2928    0.0000 C   0  0  0  0  0  0  0  0  0  0  0  0
   14.8697   -4.7018    0.0000 C   0  0  0  0  0  0  0  0  0  0  0  0
   15.5821   -4.2858    0.0000 C   0  0  0  0  0  0  0  0  0  0  0  0
   18.4391   -5.9315    0.0000 C   0  0  0  0  0  0  0  0  0  0  0  0
 14 15  2  0
  7  8  2  0
 15 16  1  0
  1  6  1  0
 16 17  2  0
  8  9  1  0
 17 18  1  0
  2  3  1  0
 18 19  2  0
 19 14  1  0
  9 10  2  0
 11 20  2  0
 10 20  1  0
 11 21  1  0
  3  4  1  0
 21 22  1  0
 11  7  1  0
 19 23  1  0
  4  5  1  0
 23 24  1  0
 10 12  1  0
 24 25  1  0
  5  6  1  0
 25 26  1  0
 12 13  1  0
 26 27  1  0
  1  2  1  0
 27 28  1  0
 28  1  1  0
 13 14  1  0
  4 29  1  0
M  END
>  <Classification>  (193) 
1

>  <pchembl>  (193) 
5.17

>  <InChI_steorem>  (193) 
InChI=1S/C25H36N2O2/c1-26-16-18-27(19-17-26)15-6-3-7-20-29-25-12-5-4-10-23(25)14-13-22-9-8-11-24(21-22)28-2/h4-5,8-12,21H,3,6-7,13-20H2,1-2H3

>  <source>  (193) 
ChEMBL25

>  <source_id>  (193) 
25

>  <optional_reference>  (193) 
10.1021/jm800928j

>  <optional_origin>  (193) 
None

>  <target>  (193) 
MDR1

$$$$

     RDKit          2D

 29 32  0  0  0  0  0  0  0  0999 V2000
   -4.3882  -12.4814    0.0000 C   0  0  0  0  0  0  0  0  0  0  0  0
   -4.3895  -13.3091    0.0000 C   0  0  0  0  0  0  0  0  0  0  0  0
   -3.6764  -13.7220    0.0000 C   0  0  0  0  0  0  0  0  0  0  0  0
   -2.9570  -13.3086    0.0000 C   0  0  0  0  0  0  0  0  0  0  0  0
   -3.6784  -12.0686    0.0000 C   0  0  0  0  0  0  0  0  0  0  0  0
   -2.2421  -13.7205    0.0000 C   0  0  0  0  0  0  0  0  0  0  0  0
   -1.5280  -13.3073    0.0000 C   0  0  0  0  0  0  0  0  0  0  0  0
   -0.8131  -13.7191    0.0000 C   0  0  0  0  0  0  0  0  0  0  0  0
   -0.8177  -14.5452    0.0000 C   0  0  0  0  0  0  0  0  0  0  0  0
   -0.1036  -14.9571    0.0000 C   0  0  0  0  0  0  0  0  0  0  0  0
    0.6115  -14.5438    0.0000 C   0  0  0  0  0  0  0  0  0  0  0  0
    0.6081  -13.7144    0.0000 C   0  0  0  0  0  0  0  0  0  0  0  0
   -0.1065  -13.3064    0.0000 C   0  0  0  0  0  0  0  0  0  0  0  0
   -2.9702  -12.4769    0.0000 C   0  0  0  0  0  0  0  0  0  0  0  0
   -3.6800  -11.2435    0.0000 O   0  0  0  0  0  0  0  0  0  0  0  0
   -2.9663  -10.8296    0.0000 C   0  0  0  0  0  0  0  0  0  0  0  0
   -0.1106  -12.4813    0.0000 O   0  0  0  0  0  0  0  0  0  0  0  0
    0.6019  -12.0653    0.0000 C   0  0  0  0  0  0  0  0  0  0  0  0
    1.3185  -12.4743    0.0000 C   0  0  0  0  0  0  0  0  0  0  0  0
    2.0310  -12.0582    0.0000 N   0  0  0  0  0  0  0  0  0  0  0  0
    2.7445  -12.4682    0.0000 C   0  0  0  0  0  0  0  0  0  0  0  0
    3.4549  -12.0557    0.0000 C   0  0  0  0  0  0  0  0  0  0  0  0
    2.0221  -11.2333    0.0000 C   0  0  0  0  0  0  0  0  0  0  0  0
    2.7387  -10.8191    0.0000 C   0  0  0  0  0  0  0  0  0  0  0  0
    3.4526  -11.2307    0.0000 C   0  0  0  0  0  0  0  0  0  0  0  0
    4.1640  -10.8184    0.0000 C   0  0  0  0  0  0  0  0  0  0  0  0
    4.1626   -9.9946    0.0000 C   0  0  0  0  0  0  0  0  0  0  0  0
    3.4439   -9.5848    0.0000 C   0  0  0  0  0  0  0  0  0  0  0  0
    2.7356   -9.9994    0.0000 C   0  0  0  0  0  0  0  0  0  0  0  0
  5 14  1  0
  6  7  1  0
  5 15  1  0
  3  4  1  0
 15 16  1  0
  7  8  1  0
 13 17  1  0
  4 14  2  0
 17 18  1  0
  8  9  2  0
 18 19  1  0
 19 20  1  0
 20 21  1  0
  9 10  1  0
  5  1  2  0
 10 11  2  0
 20 23  1  0
 21 22  1  0
 22 25  1  0
 24 23  1  0
  2  3  2  0
 11 12  1  0
 24 25  2  0
  4  6  1  0
 25 26  1  0
 12 13  2  0
 26 27  2  0
 13  8  1  0
 27 28  1  0
  1  2  1  0
 28 29  2  0
 29 24  1  0
M  END
>  <Classification>  (194) 
0

>  <pchembl>  (194) 
4.92

>  <InChI_steorem>  (194) 
InChI=1S/C26H29NO2/c1-28-25-11-6-7-21(19-25)13-14-23-9-4-5-12-26(23)29-18-17-27-16-15-22-8-2-3-10-24(22)20-27/h2-12,19H,13-18,20H2,1H3

>  <source>  (194) 
ChEMBL25

>  <source_id>  (194) 
25

>  <optional_reference>  (194) 
10.1021/jm800928j

>  <optional_origin>  (194) 
None

>  <target>  (194) 
MDR1

$$$$

     RDKit          2D

 30 33  0  0  0  0  0  0  0  0999 V2000
   15.0271  -11.5228    0.0000 N   0  0  0  0  0  0  0  0  0  0  0  0
   15.0266  -12.3458    0.0000 C   0  0  0  0  0  0  0  0  0  0  0  0
   15.7380  -12.7566    0.0000 C   0  0  0  0  0  0  0  0  0  0  0  0
   15.7381  -11.1046    0.0000 C   0  0  0  0  0  0  0  0  0  0  0  0
    7.8915  -11.5371    0.0000 C   0  0  0  0  0  0  0  0  0  0  0  0
    7.8902  -12.3646    0.0000 C   0  0  0  0  0  0  0  0  0  0  0  0
    8.6033  -12.7776    0.0000 C   0  0  0  0  0  0  0  0  0  0  0  0
    9.3226  -12.3642    0.0000 C   0  0  0  0  0  0  0  0  0  0  0  0
    8.6013  -11.1242    0.0000 C   0  0  0  0  0  0  0  0  0  0  0  0
   10.0375  -12.7761    0.0000 C   0  0  0  0  0  0  0  0  0  0  0  0
   10.7516  -12.3629    0.0000 C   0  0  0  0  0  0  0  0  0  0  0  0
   11.4665  -12.7748    0.0000 C   0  0  0  0  0  0  0  0  0  0  0  0
   11.4619  -13.6008    0.0000 C   0  0  0  0  0  0  0  0  0  0  0  0
   12.1760  -14.0126    0.0000 C   0  0  0  0  0  0  0  0  0  0  0  0
   12.8911  -13.5994    0.0000 C   0  0  0  0  0  0  0  0  0  0  0  0
   12.8877  -12.7700    0.0000 C   0  0  0  0  0  0  0  0  0  0  0  0
   12.1731  -12.3620    0.0000 C   0  0  0  0  0  0  0  0  0  0  0  0
    9.3094  -11.5324    0.0000 C   0  0  0  0  0  0  0  0  0  0  0  0
    8.5996  -10.2991    0.0000 O   0  0  0  0  0  0  0  0  0  0  0  0
    9.3134   -9.8853    0.0000 C   0  0  0  0  0  0  0  0  0  0  0  0
   12.1691  -11.5370    0.0000 O   0  0  0  0  0  0  0  0  0  0  0  0
   12.8815  -11.1209    0.0000 C   0  0  0  0  0  0  0  0  0  0  0  0
   13.5981  -11.5299    0.0000 C   0  0  0  0  0  0  0  0  0  0  0  0
   14.3106  -11.1139    0.0000 C   0  0  0  0  0  0  0  0  0  0  0  0
   16.4541  -11.5199    0.0000 C   0  0  0  0  0  0  0  0  0  0  0  0
   16.4526  -12.3422    0.0000 C   0  0  0  0  0  0  0  0  0  0  0  0
   17.1629  -12.7528    0.0000 C   0  0  0  0  0  0  0  0  0  0  0  0
   17.8749  -12.3422    0.0000 C   0  0  0  0  0  0  0  0  0  0  0  0
   17.8724  -11.5169    0.0000 C   0  0  0  0  0  0  0  0  0  0  0  0
   17.1616  -11.1100    0.0000 C   0  0  0  0  0  0  0  0  0  0  0  0
  6  7  2  0
 14 15  2  0
  2  3  1  0
 15 16  1  0
  7  8  1  0
 16 17  2  0
 17 12  1  0
  8 18  2  0
  9 18  1  0
  3 26  1  0
  9 19  1  0
  9  5  2  0
 19 20  1  0
 25  4  1  0
 17 21  1  0
  8 10  1  0
 21 22  1  0
  1  2  1  0
 22 23  1  0
 10 11  1  0
 23 24  1  0
 24  1  1  0
 11 12  1  0
 25 26  2  0
  5  6  1  0
 26 27  1  0
 12 13  2  0
 27 28  2  0
  1  4  1  0
 28 29  1  0
 13 14  1  0
 29 30  2  0
 30 25  1  0
M  END
>  <Classification>  (195) 
1

>  <pchembl>  (195) 
6.3

>  <InChI_steorem>  (195) 
InChI=1S/C27H31NO2/c1-29-26-12-6-8-22(20-26)14-15-24-10-4-5-13-27(24)30-19-7-17-28-18-16-23-9-2-3-11-25(23)21-28/h2-6,8-13,20H,7,14-19,21H2,1H3

>  <source>  (195) 
ChEMBL25

>  <source_id>  (195) 
25

>  <optional_reference>  (195) 
10.1021/jm800928j

>  <optional_origin>  (195) 
None

>  <target>  (195) 
MDR1

$$$$

     RDKit          2D

 31 34  0  0  0  0  0  0  0  0999 V2000
    3.0655  -19.3560    0.0000 N   0  0  0  0  0  0  0  0  0  0  0  0
    3.7791  -19.7660    0.0000 C   0  0  0  0  0  0  0  0  0  0  0  0
    4.4894  -19.3535    0.0000 C   0  0  0  0  0  0  0  0  0  0  0  0
    3.0567  -18.5312    0.0000 C   0  0  0  0  0  0  0  0  0  0  0  0
   -4.7820  -19.7863    0.0000 C   0  0  0  0  0  0  0  0  0  0  0  0
   -4.7833  -20.6138    0.0000 C   0  0  0  0  0  0  0  0  0  0  0  0
   -4.0703  -21.0268    0.0000 C   0  0  0  0  0  0  0  0  0  0  0  0
   -3.3509  -20.6134    0.0000 C   0  0  0  0  0  0  0  0  0  0  0  0
   -4.0723  -19.3735    0.0000 C   0  0  0  0  0  0  0  0  0  0  0  0
   -2.6362  -21.0252    0.0000 C   0  0  0  0  0  0  0  0  0  0  0  0
   -1.9220  -20.6121    0.0000 C   0  0  0  0  0  0  0  0  0  0  0  0
   -1.2071  -21.0239    0.0000 C   0  0  0  0  0  0  0  0  0  0  0  0
   -1.2118  -21.8499    0.0000 C   0  0  0  0  0  0  0  0  0  0  0  0
   -0.4978  -22.2616    0.0000 C   0  0  0  0  0  0  0  0  0  0  0  0
    0.2174  -21.8485    0.0000 C   0  0  0  0  0  0  0  0  0  0  0  0
    0.2140  -21.0192    0.0000 C   0  0  0  0  0  0  0  0  0  0  0  0
   -0.5007  -20.6112    0.0000 C   0  0  0  0  0  0  0  0  0  0  0  0
   -3.3641  -19.7817    0.0000 C   0  0  0  0  0  0  0  0  0  0  0  0
   -4.0739  -18.5485    0.0000 O   0  0  0  0  0  0  0  0  0  0  0  0
   -3.3602  -18.1347    0.0000 C   0  0  0  0  0  0  0  0  0  0  0  0
   -0.5048  -19.7862    0.0000 O   0  0  0  0  0  0  0  0  0  0  0  0
    0.2077  -19.3702    0.0000 C   0  0  0  0  0  0  0  0  0  0  0  0
    0.9242  -19.7792    0.0000 C   0  0  0  0  0  0  0  0  0  0  0  0
    1.6366  -19.3630    0.0000 C   0  0  0  0  0  0  0  0  0  0  0  0
    2.3531  -19.7720    0.0000 C   0  0  0  0  0  0  0  0  0  0  0  0
    3.7732  -18.1169    0.0000 C   0  0  0  0  0  0  0  0  0  0  0  0
    4.4859  -18.5268    0.0000 C   0  0  0  0  0  0  0  0  0  0  0  0
    5.1951  -18.1146    0.0000 C   0  0  0  0  0  0  0  0  0  0  0  0
    5.1928  -17.2927    0.0000 C   0  0  0  0  0  0  0  0  0  0  0  0
    4.4754  -16.8848    0.0000 C   0  0  0  0  0  0  0  0  0  0  0  0
    3.7692  -17.2993    0.0000 C   0  0  0  0  0  0  0  0  0  0  0  0
 14 15  2  0
  2  3  1  0
 15 16  1  0
  7  8  1  0
 16 17  2  0
 17 12  1  0
  8 18  2  0
  9 18  1  0
  3 27  1  0
  9 19  1  0
  9  5  2  0
 19 20  1  0
 26  4  1  0
 17 21  1  0
  8 10  1  0
 21 22  1  0
  1  2  1  0
 22 23  1  0
 10 11  1  0
 23 24  1  0
 24 25  1  0
 25  1  1  0
 11 12  1  0
  5  6  1  0
 26 27  2  0
 12 13  2  0
 27 28  1  0
  1  4  1  0
 28 29  2  0
 13 14  1  0
 29 30  1  0
  6  7  2  0
 30 31  2  0
 31 26  1  0
M  END
>  <Classification>  (196) 
1

>  <pchembl>  (196) 
7.1

>  <InChI_steorem>  (196) 
InChI=1S/C28H33NO2/c1-30-27-13-8-9-23(21-27)15-16-25-11-4-5-14-28(25)31-20-7-6-18-29-19-17-24-10-2-3-12-26(24)22-29/h2-5,8-14,21H,6-7,15-20,22H2,1H3

>  <source>  (196) 
ChEMBL25

>  <source_id>  (196) 
25

>  <optional_reference>  (196) 
10.1021/jm800928j

>  <optional_origin>  (196) 
None

>  <target>  (196) 
MDR1

$$$$

     RDKit          2D

 31 34  0  0  0  0  0  0  0  0999 V2000
   -5.4556  -17.2876    0.0000 C   0  0  0  0  0  0  0  0  0  0  0  0
   -5.4568  -18.1152    0.0000 C   0  0  0  0  0  0  0  0  0  0  0  0
   -4.7439  -18.5281    0.0000 C   0  0  0  0  0  0  0  0  0  0  0  0
   -4.0245  -18.1146    0.0000 C   0  0  0  0  0  0  0  0  0  0  0  0
   -4.7459  -16.8749    0.0000 C   0  0  0  0  0  0  0  0  0  0  0  0
   -3.3098  -18.5264    0.0000 C   0  0  0  0  0  0  0  0  0  0  0  0
   -2.5957  -18.1133    0.0000 C   0  0  0  0  0  0  0  0  0  0  0  0
   -1.8808  -18.5251    0.0000 C   0  0  0  0  0  0  0  0  0  0  0  0
   -1.8854  -19.3512    0.0000 C   0  0  0  0  0  0  0  0  0  0  0  0
   -1.1715  -19.7629    0.0000 C   0  0  0  0  0  0  0  0  0  0  0  0
   -0.4564  -19.3496    0.0000 C   0  0  0  0  0  0  0  0  0  0  0  0
   -0.4598  -18.5205    0.0000 C   0  0  0  0  0  0  0  0  0  0  0  0
   -1.1744  -18.1124    0.0000 C   0  0  0  0  0  0  0  0  0  0  0  0
   -4.0377  -17.2831    0.0000 C   0  0  0  0  0  0  0  0  0  0  0  0
   -4.7474  -16.0499    0.0000 O   0  0  0  0  0  0  0  0  0  0  0  0
   -4.0338  -15.6360    0.0000 C   0  0  0  0  0  0  0  0  0  0  0  0
   -1.1785  -17.2875    0.0000 O   0  0  0  0  0  0  0  0  0  0  0  0
   -0.4661  -16.8714    0.0000 C   0  0  0  0  0  0  0  0  0  0  0  0
    0.2505  -17.2804    0.0000 C   0  0  0  0  0  0  0  0  0  0  0  0
    0.9628  -16.8644    0.0000 N   0  0  0  0  0  0  0  0  0  0  0  0
    1.6763  -17.2744    0.0000 C   0  0  0  0  0  0  0  0  0  0  0  0
    2.3866  -16.8619    0.0000 C   0  0  0  0  0  0  0  0  0  0  0  0
    2.3868  -16.0366    0.0000 N   0  0  0  0  0  0  0  0  0  0  0  0
    1.6705  -15.6254    0.0000 C   0  0  0  0  0  0  0  0  0  0  0  0
    0.9540  -16.0396    0.0000 C   0  0  0  0  0  0  0  0  0  0  0  0
    3.0958  -15.6248    0.0000 C   0  0  0  0  0  0  0  0  0  0  0  0
    3.8110  -16.0381    0.0000 N   0  0  0  0  0  0  0  0  0  0  0  0
    4.5244  -15.6255    0.0000 C   0  0  0  0  0  0  0  0  0  0  0  0
    4.5240  -14.7997    0.0000 C   0  0  0  0  0  0  0  0  0  0  0  0
    3.8041  -14.3882    0.0000 C   0  0  0  0  0  0  0  0  0  0  0  0
    3.0935  -14.8031    0.0000 N   0  0  0  0  0  0  0  0  0  0  0  0
  5 15  1  0
  3  4  1  0
 15 16  1  0
  7  8  1  0
 13 17  1  0
  4 14  2  0
 17 18  1  0
  8  9  2  0
 18 19  1  0
 19 20  1  0
 20 21  1  0
  9 10  1  0
  5  1  2  0
 10 11  2  0
  2  3  2  0
 11 12  1  0
 20 25  1  0
 21 22  1  0
 22 23  1  0
 23 24  1  0
 24 25  1  0
  4  6  1  0
 12 13  2  0
 26 27  2  0
 13  8  1  0
 27 28  1  0
  1  2  1  0
 28 29  2  0
  5 14  1  0
 29 30  1  0
  6  7  1  0
 30 31  2  0
 31 26  1  0
 23 26  1  0
M  END
>  <Classification>  (197) 
1

>  <pchembl>  (197) 
5.7

>  <InChI_steorem>  (197) 
InChI=1S/C25H30N4O2/c1-30-23-8-4-6-21(20-23)10-11-22-7-2-3-9-24(22)31-19-18-28-14-16-29(17-15-28)25-26-12-5-13-27-25/h2-9,12-13,20H,10-11,14-19H2,1H3

>  <source>  (197) 
ChEMBL25

>  <source_id>  (197) 
25

>  <optional_reference>  (197) 
10.1021/jm800928j

>  <optional_origin>  (197) 
None

>  <target>  (197) 
MDR1

$$$$

     RDKit          2D

 32 35  0  0  0  0  0  0  0  0999 V2000
   14.8926  -16.0544    0.0000 N   0  0  0  0  0  0  0  0  0  0  0  0
   14.8921  -16.8772    0.0000 C   0  0  0  0  0  0  0  0  0  0  0  0
   15.6034  -17.2880    0.0000 C   0  0  0  0  0  0  0  0  0  0  0  0
   16.3193  -16.8775    0.0000 N   0  0  0  0  0  0  0  0  0  0  0  0
   16.3194  -16.0515    0.0000 C   0  0  0  0  0  0  0  0  0  0  0  0
   15.6036  -15.6362    0.0000 C   0  0  0  0  0  0  0  0  0  0  0  0
   17.0294  -17.2874    0.0000 C   0  0  0  0  0  0  0  0  0  0  0  0
   17.0268  -18.1135    0.0000 N   0  0  0  0  0  0  0  0  0  0  0  0
   17.7398  -18.5270    0.0000 C   0  0  0  0  0  0  0  0  0  0  0  0
   18.4559  -18.1155    0.0000 C   0  0  0  0  0  0  0  0  0  0  0  0
   18.4545  -17.2862    0.0000 C   0  0  0  0  0  0  0  0  0  0  0  0
   17.7408  -16.8765    0.0000 N   0  0  0  0  0  0  0  0  0  0  0  0
    7.7577  -16.0685    0.0000 C   0  0  0  0  0  0  0  0  0  0  0  0
    7.7565  -16.8962    0.0000 C   0  0  0  0  0  0  0  0  0  0  0  0
    8.4694  -17.3090    0.0000 C   0  0  0  0  0  0  0  0  0  0  0  0
    9.1887  -16.8956    0.0000 C   0  0  0  0  0  0  0  0  0  0  0  0
    8.4674  -15.6557    0.0000 C   0  0  0  0  0  0  0  0  0  0  0  0
    9.9035  -17.3074    0.0000 C   0  0  0  0  0  0  0  0  0  0  0  0
   10.6176  -16.8943    0.0000 C   0  0  0  0  0  0  0  0  0  0  0  0
   11.3325  -17.3061    0.0000 C   0  0  0  0  0  0  0  0  0  0  0  0
   11.3278  -18.1321    0.0000 C   0  0  0  0  0  0  0  0  0  0  0  0
   12.0418  -18.5439    0.0000 C   0  0  0  0  0  0  0  0  0  0  0  0
   12.7569  -18.1306    0.0000 C   0  0  0  0  0  0  0  0  0  0  0  0
   12.7535  -17.3014    0.0000 C   0  0  0  0  0  0  0  0  0  0  0  0
   12.0388  -16.8934    0.0000 C   0  0  0  0  0  0  0  0  0  0  0  0
    9.1755  -16.0640    0.0000 C   0  0  0  0  0  0  0  0  0  0  0  0
    8.4658  -14.8308    0.0000 O   0  0  0  0  0  0  0  0  0  0  0  0
    9.1795  -14.4170    0.0000 C   0  0  0  0  0  0  0  0  0  0  0  0
   12.0348  -16.0684    0.0000 O   0  0  0  0  0  0  0  0  0  0  0  0
   12.7472  -15.6524    0.0000 C   0  0  0  0  0  0  0  0  0  0  0  0
   13.4637  -16.0614    0.0000 C   0  0  0  0  0  0  0  0  0  0  0  0
   14.1761  -15.6454    0.0000 C   0  0  0  0  0  0  0  0  0  0  0  0
 15 16  1  0
 16 26  2  0
  1  6  1  0
 17 13  2  0
  8  9  2  0
 16 18  1  0
  2  3  1  0
 18 19  1  0
  9 10  1  0
 19 20  1  0
  3  4  1  0
 20 21  2  0
 10 11  2  0
 21 22  1  0
  4  5  1  0
 22 23  2  0
 11 12  1  0
 23 24  1  0
 12  7  2  0
 24 25  2  0
 25 20  1  0
  4  7  1  0
 17 26  1  0
  5  6  1  0
 17 27  1  0
  1  2  1  0
 27 28  1  0
 13 14  1  0
 25 29  1  0
 29 30  1  0
 14 15  2  0
 30 31  1  0
  7  8  1  0
 31 32  1  0
 32  1  1  0
M  END
>  <Classification>  (198) 
1

>  <pchembl>  (198) 
5.92

>  <InChI_steorem>  (198) 
InChI=1S/C26H32N4O2/c1-31-24-9-4-7-22(21-24)11-12-23-8-2-3-10-25(23)32-20-6-15-29-16-18-30(19-17-29)26-27-13-5-14-28-26/h2-5,7-10,13-14,21H,6,11-12,15-20H2,1H3

>  <source>  (198) 
ChEMBL25

>  <source_id>  (198) 
25

>  <optional_reference>  (198) 
10.1021/jm800928j

>  <optional_origin>  (198) 
None

>  <target>  (198) 
MDR1

$$$$

     RDKit          2D

 32 35  0  0  0  0  0  0  0  0999 V2000
   16.0894  -18.5333    0.0000 N   0  0  0  0  0  0  0  0  0  0  0  0
   16.0890  -19.3563    0.0000 C   0  0  0  0  0  0  0  0  0  0  0  0
   16.8003  -19.7672    0.0000 C   0  0  0  0  0  0  0  0  0  0  0  0
   16.8005  -18.1151    0.0000 C   0  0  0  0  0  0  0  0  0  0  0  0
    7.5247  -18.5546    0.0000 C   0  0  0  0  0  0  0  0  0  0  0  0
    7.5235  -19.3823    0.0000 C   0  0  0  0  0  0  0  0  0  0  0  0
    8.2365  -19.7952    0.0000 C   0  0  0  0  0  0  0  0  0  0  0  0
    8.9559  -19.3817    0.0000 C   0  0  0  0  0  0  0  0  0  0  0  0
    8.2345  -18.1418    0.0000 C   0  0  0  0  0  0  0  0  0  0  0  0
    9.6708  -19.7936    0.0000 C   0  0  0  0  0  0  0  0  0  0  0  0
   10.3849  -19.3804    0.0000 C   0  0  0  0  0  0  0  0  0  0  0  0
   11.0999  -19.7923    0.0000 C   0  0  0  0  0  0  0  0  0  0  0  0
   11.0953  -20.6184    0.0000 C   0  0  0  0  0  0  0  0  0  0  0  0
   11.8093  -21.0302    0.0000 C   0  0  0  0  0  0  0  0  0  0  0  0
   12.5245  -20.6169    0.0000 C   0  0  0  0  0  0  0  0  0  0  0  0
   12.5211  -19.7876    0.0000 C   0  0  0  0  0  0  0  0  0  0  0  0
   11.8064  -19.3795    0.0000 C   0  0  0  0  0  0  0  0  0  0  0  0
    8.9427  -18.5501    0.0000 C   0  0  0  0  0  0  0  0  0  0  0  0
    8.2330  -17.3168    0.0000 O   0  0  0  0  0  0  0  0  0  0  0  0
    8.9467  -16.9028    0.0000 C   0  0  0  0  0  0  0  0  0  0  0  0
   11.8023  -18.5545    0.0000 O   0  0  0  0  0  0  0  0  0  0  0  0
   12.5148  -18.1384    0.0000 C   0  0  0  0  0  0  0  0  0  0  0  0
   13.2314  -18.5474    0.0000 C   0  0  0  0  0  0  0  0  0  0  0  0
   13.9438  -18.1314    0.0000 C   0  0  0  0  0  0  0  0  0  0  0  0
   14.6604  -18.5404    0.0000 C   0  0  0  0  0  0  0  0  0  0  0  0
   15.3728  -18.1243    0.0000 C   0  0  0  0  0  0  0  0  0  0  0  0
   17.5164  -18.5305    0.0000 C   0  0  0  0  0  0  0  0  0  0  0  0
   17.5160  -19.3549    0.0000 C   0  0  0  0  0  0  0  0  0  0  0  0
   18.2285  -19.7657    0.0000 C   0  0  0  0  0  0  0  0  0  0  0  0
   18.9421  -19.3533    0.0000 C   0  0  0  0  0  0  0  0  0  0  0  0
   18.9386  -18.5257    0.0000 C   0  0  0  0  0  0  0  0  0  0  0  0
   18.2254  -18.1186    0.0000 C   0  0  0  0  0  0  0  0  0  0  0  0
  2  3  1  0
 15 16  1  0
  7  8  1  0
 16 17  2  0
 17 12  1  0
  8 18  2  0
  9 18  1  0
  3 28  1  0
  9 19  1  0
  9  5  2  0
 19 20  1  0
 27  4  1  0
 17 21  1  0
  8 10  1  0
 21 22  1  0
  1  2  1  0
 22 23  1  0
 10 11  1  0
 23 24  1  0
 24 25  1  0
 11 12  1  0
 25 26  1  0
 26  1  1  0
  5  6  1  0
 12 13  2  0
 27 28  2  0
  1  4  1  0
 28 29  1  0
 13 14  1  0
 29 30  2  0
  6  7  2  0
 30 31  1  0
 14 15  2  0
 31 32  2  0
 32 27  1  0
M  END
>  <Classification>  (199) 
1

>  <pchembl>  (199) 
5.5

>  <InChI_steorem>  (199) 
InChI=1S/C29H35NO2/c1-31-28-14-9-10-24(22-28)16-17-26-12-5-6-15-29(26)32-21-8-2-7-19-30-20-18-25-11-3-4-13-27(25)23-30/h3-6,9-15,22H,2,7-8,16-21,23H2,1H3

>  <source>  (199) 
ChEMBL25

>  <source_id>  (199) 
25

>  <optional_reference>  (199) 
10.1021/jm800928j

>  <optional_origin>  (199) 
None

>  <target>  (199) 
MDR1

$$$$

     RDKit          2D

 32 35  0  0  0  0  0  0  0  0999 V2000
   -5.0476  -15.6606    0.0000 C   0  0  0  0  0  0  0  0  0  0  0  0
   -5.0489  -16.4881    0.0000 C   0  0  0  0  0  0  0  0  0  0  0  0
   -4.3359  -16.9010    0.0000 C   0  0  0  0  0  0  0  0  0  0  0  0
   -3.6167  -16.4877    0.0000 C   0  0  0  0  0  0  0  0  0  0  0  0
   -4.3379  -15.2478    0.0000 C   0  0  0  0  0  0  0  0  0  0  0  0
   -2.9018  -16.8995    0.0000 C   0  0  0  0  0  0  0  0  0  0  0  0
   -2.1878  -16.4864    0.0000 C   0  0  0  0  0  0  0  0  0  0  0  0
   -1.4730  -16.8982    0.0000 C   0  0  0  0  0  0  0  0  0  0  0  0
   -1.4776  -17.7241    0.0000 C   0  0  0  0  0  0  0  0  0  0  0  0
   -0.7636  -18.1358    0.0000 C   0  0  0  0  0  0  0  0  0  0  0  0
   -0.0485  -17.7227    0.0000 C   0  0  0  0  0  0  0  0  0  0  0  0
   -0.0519  -16.8934    0.0000 C   0  0  0  0  0  0  0  0  0  0  0  0
   -0.7664  -16.4855    0.0000 C   0  0  0  0  0  0  0  0  0  0  0  0
   -3.6299  -15.6560    0.0000 C   0  0  0  0  0  0  0  0  0  0  0  0
   -4.3395  -14.4228    0.0000 O   0  0  0  0  0  0  0  0  0  0  0  0
   -3.6259  -14.0090    0.0000 C   0  0  0  0  0  0  0  0  0  0  0  0
   -0.7705  -15.6605    0.0000 O   0  0  0  0  0  0  0  0  0  0  0  0
   -0.0582  -15.2445    0.0000 C   0  0  0  0  0  0  0  0  0  0  0  0
    0.6583  -15.6535    0.0000 C   0  0  0  0  0  0  0  0  0  0  0  0
    1.3708  -15.2374    0.0000 N   0  0  0  0  0  0  0  0  0  0  0  0
    2.0842  -15.6473    0.0000 C   0  0  0  0  0  0  0  0  0  0  0  0
    2.7945  -15.2348    0.0000 C   0  0  0  0  0  0  0  0  0  0  0  0
    2.7947  -14.4095    0.0000 N   0  0  0  0  0  0  0  0  0  0  0  0
    2.0784  -13.9984    0.0000 C   0  0  0  0  0  0  0  0  0  0  0  0
    1.3619  -14.4126    0.0000 C   0  0  0  0  0  0  0  0  0  0  0  0
    3.5037  -13.9977    0.0000 C   0  0  0  0  0  0  0  0  0  0  0  0
    4.2189  -14.4111    0.0000 C   0  0  0  0  0  0  0  0  0  0  0  0
    4.9324  -13.9985    0.0000 C   0  0  0  0  0  0  0  0  0  0  0  0
    4.9319  -13.1726    0.0000 C   0  0  0  0  0  0  0  0  0  0  0  0
    4.2120  -12.7611    0.0000 C   0  0  0  0  0  0  0  0  0  0  0  0
    3.5014  -13.1761    0.0000 C   0  0  0  0  0  0  0  0  0  0  0  0
    5.6472  -14.4105    0.0000 Cl  0  0  0  0  0  0  0  0  0  0  0  0
  3  4  1  0
 15 16  1  0
  7  8  1  0
 13 17  1  0
  4 14  2  0
 17 18  1  0
  8  9  2  0
 18 19  1  0
 19 20  1  0
 20 21  1  0
  9 10  1  0
  5  1  2  0
 10 11  2  0
  2  3  2  0
 11 12  1  0
 20 25  1  0
 21 22  1  0
 22 23  1  0
 23 24  1  0
 24 25  1  0
  4  6  1  0
 12 13  2  0
 26 27  2  0
 13  8  1  0
 27 28  1  0
  1  2  1  0
 28 29  2  0
  5 14  1  0
 29 30  1  0
  6  7  1  0
 30 31  2  0
 31 26  1  0
 23 26  1  0
  5 15  1  0
 28 32  1  0
M  END
>  <Classification>  (200) 
1

>  <pchembl>  (200) 
5.5

>  <InChI_steorem>  (200) 
InChI=1S/C27H31ClN2O2/c1-31-26-10-4-6-22(20-26)12-13-23-7-2-3-11-27(23)32-19-18-29-14-16-30(17-15-29)25-9-5-8-24(28)21-25/h2-11,20-21H,12-19H2,1H3

>  <source>  (200) 
ChEMBL25

>  <source_id>  (200) 
25

>  <optional_reference>  (200) 
10.1021/jm800928j

>  <optional_origin>  (200) 
None

>  <target>  (200) 
MDR1

$$$$

     RDKit          2D

 32 35  0  0  0  0  0  0  0  0999 V2000
   -5.2538   -0.0458    0.0000 C   0  0  0  0  0  0  0  0  0  0  0  0
   -5.2551   -0.8734    0.0000 C   0  0  0  0  0  0  0  0  0  0  0  0
   -4.5422   -1.2863    0.0000 C   0  0  0  0  0  0  0  0  0  0  0  0
   -3.8229   -0.8728    0.0000 C   0  0  0  0  0  0  0  0  0  0  0  0
   -4.5441    0.3669    0.0000 C   0  0  0  0  0  0  0  0  0  0  0  0
   -3.1080   -1.2846    0.0000 C   0  0  0  0  0  0  0  0  0  0  0  0
   -2.3941   -0.8715    0.0000 C   0  0  0  0  0  0  0  0  0  0  0  0
   -1.6792   -1.2833    0.0000 C   0  0  0  0  0  0  0  0  0  0  0  0
   -1.6838   -2.1094    0.0000 C   0  0  0  0  0  0  0  0  0  0  0  0
   -0.9698   -2.5211    0.0000 C   0  0  0  0  0  0  0  0  0  0  0  0
   -0.2547   -2.1078    0.0000 C   0  0  0  0  0  0  0  0  0  0  0  0
   -0.2582   -1.2787    0.0000 C   0  0  0  0  0  0  0  0  0  0  0  0
   -0.9727   -0.8706    0.0000 C   0  0  0  0  0  0  0  0  0  0  0  0
   -3.8361   -0.0412    0.0000 C   0  0  0  0  0  0  0  0  0  0  0  0
   -4.5458    1.1919    0.0000 O   0  0  0  0  0  0  0  0  0  0  0  0
   -3.8321    1.6058    0.0000 C   0  0  0  0  0  0  0  0  0  0  0  0
   -0.9768   -0.0456    0.0000 O   0  0  0  0  0  0  0  0  0  0  0  0
   -0.2644    0.3704    0.0000 C   0  0  0  0  0  0  0  0  0  0  0  0
    0.4521   -0.0386    0.0000 C   0  0  0  0  0  0  0  0  0  0  0  0
    1.1645    0.3774    0.0000 N   0  0  0  0  0  0  0  0  0  0  0  0
    1.8780   -0.0326    0.0000 C   0  0  0  0  0  0  0  0  0  0  0  0
    2.5883    0.3799    0.0000 C   0  0  0  0  0  0  0  0  0  0  0  0
    2.5884    1.2052    0.0000 N   0  0  0  0  0  0  0  0  0  0  0  0
    1.8721    1.6164    0.0000 C   0  0  0  0  0  0  0  0  0  0  0  0
    1.1556    1.2023    0.0000 C   0  0  0  0  0  0  0  0  0  0  0  0
    3.2974    1.6170    0.0000 C   0  0  0  0  0  0  0  0  0  0  0  0
    4.0126    1.2037    0.0000 C   0  0  0  0  0  0  0  0  0  0  0  0
    4.7262    1.6163    0.0000 C   0  0  0  0  0  0  0  0  0  0  0  0
    4.7256    2.4421    0.0000 C   0  0  0  0  0  0  0  0  0  0  0  0
    4.0057    2.8536    0.0000 C   0  0  0  0  0  0  0  0  0  0  0  0
    3.2951    2.4387    0.0000 C   0  0  0  0  0  0  0  0  0  0  0  0
    5.4391    2.8565    0.0000 F   0  0  0  0  0  0  0  0  0  0  0  0
  3  4  1  0
 15 16  1  0
  7  8  1  0
 13 17  1  0
  4 14  2  0
 17 18  1  0
  8  9  2  0
 18 19  1  0
 19 20  1  0
 20 21  1  0
  9 10  1  0
  5  1  2  0
 10 11  2  0
  2  3  2  0
 11 12  1  0
 20 25  1  0
 21 22  1  0
 22 23  1  0
 23 24  1  0
 24 25  1  0
  4  6  1  0
 12 13  2  0
 26 27  2  0
 13  8  1  0
 27 28  1  0
  1  2  1  0
 28 29  2  0
  5 14  1  0
 29 30  1  0
  6  7  1  0
 30 31  2  0
 31 26  1  0
 23 26  1  0
  5 15  1  0
 29 32  1  0
M  END
>  <Classification>  (201) 
1

>  <pchembl>  (201) 
5.0

>  <InChI_steorem>  (201) 
InChI=1S/C27H31FN2O2/c1-31-26-7-4-5-22(21-26)9-10-23-6-2-3-8-27(23)32-20-19-29-15-17-30(18-16-29)25-13-11-24(28)12-14-25/h2-8,11-14,21H,9-10,15-20H2,1H3

>  <source>  (201) 
ChEMBL25

>  <source_id>  (201) 
25

>  <optional_reference>  (201) 
10.1021/jm800928j

>  <optional_origin>  (201) 
None

>  <target>  (201) 
MDR1

$$$$

     RDKit          2D

 33 36  0  0  0  0  0  0  0  0999 V2000
   15.0941    1.1875    0.0000 N   0  0  0  0  0  0  0  0  0  0  0  0
   15.0937    0.3646    0.0000 C   0  0  0  0  0  0  0  0  0  0  0  0
   15.8050   -0.0461    0.0000 C   0  0  0  0  0  0  0  0  0  0  0  0
   16.5209    0.3644    0.0000 N   0  0  0  0  0  0  0  0  0  0  0  0
   16.5210    1.1904    0.0000 C   0  0  0  0  0  0  0  0  0  0  0  0
   15.8052    1.6057    0.0000 C   0  0  0  0  0  0  0  0  0  0  0  0
   17.2310   -0.0455    0.0000 C   0  0  0  0  0  0  0  0  0  0  0  0
   17.2284   -0.8716    0.0000 C   0  0  0  0  0  0  0  0  0  0  0  0
   17.9414   -1.2851    0.0000 C   0  0  0  0  0  0  0  0  0  0  0  0
   18.6574   -0.8736    0.0000 C   0  0  0  0  0  0  0  0  0  0  0  0
   18.6560   -0.0443    0.0000 C   0  0  0  0  0  0  0  0  0  0  0  0
   17.9425    0.3654    0.0000 C   0  0  0  0  0  0  0  0  0  0  0  0
    7.9594    1.1733    0.0000 C   0  0  0  0  0  0  0  0  0  0  0  0
    7.9581    0.3457    0.0000 C   0  0  0  0  0  0  0  0  0  0  0  0
    8.6711   -0.0671    0.0000 C   0  0  0  0  0  0  0  0  0  0  0  0
    9.3903    0.3463    0.0000 C   0  0  0  0  0  0  0  0  0  0  0  0
    8.6691    1.5861    0.0000 C   0  0  0  0  0  0  0  0  0  0  0  0
   10.1052   -0.0656    0.0000 C   0  0  0  0  0  0  0  0  0  0  0  0
   10.8192    0.3476    0.0000 C   0  0  0  0  0  0  0  0  0  0  0  0
   11.5340   -0.0642    0.0000 C   0  0  0  0  0  0  0  0  0  0  0  0
   11.5294   -0.8902    0.0000 C   0  0  0  0  0  0  0  0  0  0  0  0
   12.2434   -1.3020    0.0000 C   0  0  0  0  0  0  0  0  0  0  0  0
   12.9585   -0.8888    0.0000 C   0  0  0  0  0  0  0  0  0  0  0  0
   12.9551   -0.0595    0.0000 C   0  0  0  0  0  0  0  0  0  0  0  0
   12.2405    0.3485    0.0000 C   0  0  0  0  0  0  0  0  0  0  0  0
    9.3771    1.1778    0.0000 C   0  0  0  0  0  0  0  0  0  0  0  0
    8.6674    2.4111    0.0000 O   0  0  0  0  0  0  0  0  0  0  0  0
    9.3811    2.8249    0.0000 C   0  0  0  0  0  0  0  0  0  0  0  0
   12.2365    1.1734    0.0000 O   0  0  0  0  0  0  0  0  0  0  0  0
   12.9488    1.5894    0.0000 C   0  0  0  0  0  0  0  0  0  0  0  0
   13.6653    1.1805    0.0000 C   0  0  0  0  0  0  0  0  0  0  0  0
   14.3777    1.5965    0.0000 C   0  0  0  0  0  0  0  0  0  0  0  0
   19.3719   -1.2862    0.0000 F   0  0  0  0  0  0  0  0  0  0  0  0
 16 26  2  0
  1  6  1  0
 17 13  2  0
  8  9  2  0
 16 18  1  0
  2  3  1  0
 18 19  1  0
  9 10  1  0
 19 20  1  0
  3  4  1  0
 20 21  2  0
 10 11  2  0
 21 22  1  0
  4  5  1  0
 22 23  2  0
 11 12  1  0
 23 24  1  0
 12  7  2  0
 24 25  2  0
 25 20  1  0
  4  7  1  0
 17 26  1  0
  5  6  1  0
 17 27  1  0
  1  2  1  0
 27 28  1  0
 13 14  1  0
 25 29  1  0
 29 30  1  0
 14 15  2  0
 30 31  1  0
  7  8  1  0
 31 32  1  0
 32  1  1  0
 15 16  1  0
 10 33  1  0
M  END
>  <Classification>  (202) 
1

>  <pchembl>  (202) 
5.28

>  <InChI_steorem>  (202) 
InChI=1S/C28H33FN2O2/c1-32-27-8-4-6-23(22-27)10-11-24-7-2-3-9-28(24)33-21-5-16-30-17-19-31(20-18-30)26-14-12-25(29)13-15-26/h2-4,6-9,12-15,22H,5,10-11,16-21H2,1H3

>  <source>  (202) 
ChEMBL25

>  <source_id>  (202) 
25

>  <optional_reference>  (202) 
10.1021/jm800928j

>  <optional_origin>  (202) 
None

>  <target>  (202) 
MDR1

$$$$

     RDKit          2D

 33 36  0  0  0  0  0  0  0  0999 V2000
   15.2364  -14.1432    0.0000 N   0  0  0  0  0  0  0  0  0  0  0  0
   15.2359  -14.9661    0.0000 C   0  0  0  0  0  0  0  0  0  0  0  0
   15.9472  -15.3768    0.0000 C   0  0  0  0  0  0  0  0  0  0  0  0
   16.6631  -14.9663    0.0000 N   0  0  0  0  0  0  0  0  0  0  0  0
   16.6633  -14.1404    0.0000 C   0  0  0  0  0  0  0  0  0  0  0  0
   15.9474  -13.7250    0.0000 C   0  0  0  0  0  0  0  0  0  0  0  0
   17.3732  -15.3763    0.0000 C   0  0  0  0  0  0  0  0  0  0  0  0
   17.3706  -16.2024    0.0000 C   0  0  0  0  0  0  0  0  0  0  0  0
   18.0836  -16.6158    0.0000 C   0  0  0  0  0  0  0  0  0  0  0  0
   18.7997  -16.2044    0.0000 C   0  0  0  0  0  0  0  0  0  0  0  0
   18.7983  -15.3751    0.0000 C   0  0  0  0  0  0  0  0  0  0  0  0
   18.0846  -14.9654    0.0000 C   0  0  0  0  0  0  0  0  0  0  0  0
   18.0820  -17.4408    0.0000 Cl  0  0  0  0  0  0  0  0  0  0  0  0
    8.1015  -14.1574    0.0000 C   0  0  0  0  0  0  0  0  0  0  0  0
    8.1003  -14.9850    0.0000 C   0  0  0  0  0  0  0  0  0  0  0  0
    8.8131  -15.3979    0.0000 C   0  0  0  0  0  0  0  0  0  0  0  0
    9.5325  -14.9845    0.0000 C   0  0  0  0  0  0  0  0  0  0  0  0
    8.8112  -13.7446    0.0000 C   0  0  0  0  0  0  0  0  0  0  0  0
   10.2473  -15.3963    0.0000 C   0  0  0  0  0  0  0  0  0  0  0  0
   10.9614  -14.9832    0.0000 C   0  0  0  0  0  0  0  0  0  0  0  0
   11.6762  -15.3950    0.0000 C   0  0  0  0  0  0  0  0  0  0  0  0
   11.6716  -16.2210    0.0000 C   0  0  0  0  0  0  0  0  0  0  0  0
   12.3856  -16.6328    0.0000 C   0  0  0  0  0  0  0  0  0  0  0  0
   13.1007  -16.2195    0.0000 C   0  0  0  0  0  0  0  0  0  0  0  0
   13.0973  -15.3903    0.0000 C   0  0  0  0  0  0  0  0  0  0  0  0
   12.3826  -14.9823    0.0000 C   0  0  0  0  0  0  0  0  0  0  0  0
    9.5193  -14.1529    0.0000 C   0  0  0  0  0  0  0  0  0  0  0  0
    8.8096  -12.9196    0.0000 O   0  0  0  0  0  0  0  0  0  0  0  0
    9.5233  -12.5058    0.0000 C   0  0  0  0  0  0  0  0  0  0  0  0
   12.3786  -14.1573    0.0000 O   0  0  0  0  0  0  0  0  0  0  0  0
   13.0910  -13.7413    0.0000 C   0  0  0  0  0  0  0  0  0  0  0  0
   13.8075  -14.1503    0.0000 C   0  0  0  0  0  0  0  0  0  0  0  0
   14.5199  -13.7343    0.0000 C   0  0  0  0  0  0  0  0  0  0  0  0
  1  6  1  0
 16 17  1  0
 17 27  2  0
  8  9  2  0
 18 14  2  0
  2  3  1  0
 17 19  1  0
  9 10  1  0
 19 20  1  0
  3  4  1  0
 20 21  1  0
 10 11  2  0
 21 22  2  0
  4  5  1  0
 22 23  1  0
 11 12  1  0
 23 24  2  0
 12  7  2  0
 24 25  1  0
  4  7  1  0
 25 26  2  0
 26 21  1  0
  5  6  1  0
 18 27  1  0
  9 13  1  0
 18 28  1  0
  1  2  1  0
 28 29  1  0
 26 30  1  0
 14 15  1  0
 30 31  1  0
  7  8  1  0
 31 32  1  0
 15 16  2  0
 32 33  1  0
 33  1  1  0
M  END
>  <Classification>  (203) 
1

>  <pchembl>  (203) 
5.6

>  <InChI_steorem>  (203) 
InChI=1S/C28H33ClN2O2/c1-32-27-11-4-7-23(21-27)13-14-24-8-2-3-12-28(24)33-20-6-15-30-16-18-31(19-17-30)26-10-5-9-25(29)22-26/h2-5,7-12,21-22H,6,13-20H2,1H3

>  <source>  (203) 
ChEMBL25

>  <source_id>  (203) 
25

>  <optional_reference>  (203) 
10.1021/jm800928j

>  <optional_origin>  (203) 
None

>  <target>  (203) 
MDR1

$$$$

     RDKit          2D

 33 36  0  0  0  0  0  0  0  0999 V2000
    2.1441  -24.8779    0.0000 N   0  0  0  0  0  0  0  0  0  0  0  0
    2.8577  -25.2879    0.0000 C   0  0  0  0  0  0  0  0  0  0  0  0
    3.5680  -24.8754    0.0000 C   0  0  0  0  0  0  0  0  0  0  0  0
    3.5681  -24.0500    0.0000 N   0  0  0  0  0  0  0  0  0  0  0  0
    2.8519  -23.6388    0.0000 C   0  0  0  0  0  0  0  0  0  0  0  0
    2.1353  -24.0531    0.0000 C   0  0  0  0  0  0  0  0  0  0  0  0
    4.2772  -23.6382    0.0000 C   0  0  0  0  0  0  0  0  0  0  0  0
    4.9924  -24.0515    0.0000 N   0  0  0  0  0  0  0  0  0  0  0  0
    5.7059  -23.6389    0.0000 C   0  0  0  0  0  0  0  0  0  0  0  0
    5.7054  -22.8131    0.0000 C   0  0  0  0  0  0  0  0  0  0  0  0
    4.9854  -22.4016    0.0000 C   0  0  0  0  0  0  0  0  0  0  0  0
    4.2749  -22.8166    0.0000 N   0  0  0  0  0  0  0  0  0  0  0  0
   -5.7031  -25.3081    0.0000 C   0  0  0  0  0  0  0  0  0  0  0  0
   -5.7043  -26.1357    0.0000 C   0  0  0  0  0  0  0  0  0  0  0  0
   -4.9914  -26.5485    0.0000 C   0  0  0  0  0  0  0  0  0  0  0  0
   -4.2720  -26.1352    0.0000 C   0  0  0  0  0  0  0  0  0  0  0  0
   -4.9934  -24.8953    0.0000 C   0  0  0  0  0  0  0  0  0  0  0  0
   -3.5573  -26.5470    0.0000 C   0  0  0  0  0  0  0  0  0  0  0  0
   -2.8432  -26.1338    0.0000 C   0  0  0  0  0  0  0  0  0  0  0  0
   -2.1283  -26.5457    0.0000 C   0  0  0  0  0  0  0  0  0  0  0  0
   -2.1329  -27.3716    0.0000 C   0  0  0  0  0  0  0  0  0  0  0  0
   -1.4189  -27.7834    0.0000 C   0  0  0  0  0  0  0  0  0  0  0  0
   -0.7039  -27.3702    0.0000 C   0  0  0  0  0  0  0  0  0  0  0  0
   -0.7073  -26.5409    0.0000 C   0  0  0  0  0  0  0  0  0  0  0  0
   -1.4219  -26.1330    0.0000 C   0  0  0  0  0  0  0  0  0  0  0  0
   -4.2852  -25.3036    0.0000 C   0  0  0  0  0  0  0  0  0  0  0  0
   -4.9949  -24.0703    0.0000 O   0  0  0  0  0  0  0  0  0  0  0  0
   -4.2812  -23.6565    0.0000 C   0  0  0  0  0  0  0  0  0  0  0  0
   -1.4260  -25.3080    0.0000 O   0  0  0  0  0  0  0  0  0  0  0  0
   -0.7135  -24.8920    0.0000 C   0  0  0  0  0  0  0  0  0  0  0  0
    0.0030  -25.3010    0.0000 C   0  0  0  0  0  0  0  0  0  0  0  0
    0.7153  -24.8850    0.0000 C   0  0  0  0  0  0  0  0  0  0  0  0
    1.4318  -25.2939    0.0000 C   0  0  0  0  0  0  0  0  0  0  0  0
 16 26  2  0
  1  6  1  0
 17 13  2  0
  8  9  2  0
 16 18  1  0
  2  3  1  0
 18 19  1  0
  9 10  1  0
 19 20  1  0
  3  4  1  0
 20 21  2  0
 10 11  2  0
 21 22  1  0
  4  5  1  0
 22 23  2  0
 11 12  1  0
 23 24  1  0
 12  7  2  0
 24 25  2  0
 25 20  1  0
  4  7  1  0
 17 26  1  0
  5  6  1  0
 17 27  1  0
  1  2  1  0
 27 28  1  0
 13 14  1  0
 25 29  1  0
 29 30  1  0
 14 15  2  0
 30 31  1  0
  7  8  1  0
 31 32  1  0
 15 16  1  0
 32 33  1  0
 33  1  1  0
M  END
>  <Classification>  (204) 
1

>  <pchembl>  (204) 
6.7

>  <InChI_steorem>  (204) 
InChI=1S/C27H34N4O2/c1-32-25-10-6-8-23(22-25)12-13-24-9-2-3-11-26(24)33-21-5-4-16-30-17-19-31(20-18-30)27-28-14-7-15-29-27/h2-3,6-11,14-15,22H,4-5,12-13,16-21H2,1H3

>  <source>  (204) 
ChEMBL25

>  <source_id>  (204) 
25

>  <optional_reference>  (204) 
10.1021/jm800928j

>  <optional_origin>  (204) 
None

>  <target>  (204) 
MDR1

$$$$

     RDKit          2D

 33 36  0  0  0  0  0  0  0  0999 V2000
   -5.1592   -0.7205    0.0000 C   0  0  0  0  0  0  0  0  0  0  0  0
   -5.1605   -1.5485    0.0000 C   0  0  0  0  0  0  0  0  0  0  0  0
   -4.4466   -1.9639    0.0000 C   0  0  0  0  0  0  0  0  0  0  0  0
   -3.7263   -1.5480    0.0000 C   0  0  0  0  0  0  0  0  0  0  0  0
   -4.4486   -0.3097    0.0000 C   0  0  0  0  0  0  0  0  0  0  0  0
   -3.0104   -1.9623    0.0000 C   0  0  0  0  0  0  0  0  0  0  0  0
   -2.3000   -1.5467    0.0000 C   0  0  0  0  0  0  0  0  0  0  0  0
   -1.5841   -1.9610    0.0000 C   0  0  0  0  0  0  0  0  0  0  0  0
   -1.5887   -2.7874    0.0000 C   0  0  0  0  0  0  0  0  0  0  0  0
   -0.8737   -3.1972    0.0000 C   0  0  0  0  0  0  0  0  0  0  0  0
   -0.1577   -2.7860    0.0000 C   0  0  0  0  0  0  0  0  0  0  0  0
   -0.1611   -1.9564    0.0000 C   0  0  0  0  0  0  0  0  0  0  0  0
   -0.8767   -1.5458    0.0000 C   0  0  0  0  0  0  0  0  0  0  0  0
   -3.7395   -0.7160    0.0000 C   0  0  0  0  0  0  0  0  0  0  0  0
   -4.4501    0.5202    0.0000 O   0  0  0  0  0  0  0  0  0  0  0  0
   -3.7355    0.9319    0.0000 C   0  0  0  0  0  0  0  0  0  0  0  0
   -0.8807   -0.7204    0.0000 O   0  0  0  0  0  0  0  0  0  0  0  0
   -0.1673   -0.3065    0.0000 C   0  0  0  0  0  0  0  0  0  0  0  0
    0.5502   -0.7134    0.0000 C   0  0  0  0  0  0  0  0  0  0  0  0
    1.2636   -0.2948    0.0000 N   0  0  0  0  0  0  0  0  0  0  0  0
    1.9780   -0.7074    0.0000 C   0  0  0  0  0  0  0  0  0  0  0  0
    2.6848   -0.2923    0.0000 C   0  0  0  0  0  0  0  0  0  0  0  0
    1.2548    0.5304    0.0000 C   0  0  0  0  0  0  0  0  0  0  0  0
    1.9722    0.9426    0.0000 C   0  0  0  0  0  0  0  0  0  0  0  0
    2.6825    0.5330    0.0000 C   0  0  0  0  0  0  0  0  0  0  0  0
    3.3947    0.9432    0.0000 C   0  0  0  0  0  0  0  0  0  0  0  0
    3.3934    1.7673    0.0000 C   0  0  0  0  0  0  0  0  0  0  0  0
    2.6739    2.1796    0.0000 C   0  0  0  0  0  0  0  0  0  0  0  0
    1.9692    1.7625    0.0000 C   0  0  0  0  0  0  0  0  0  0  0  0
    2.6693    3.0050    0.0000 O   0  0  0  0  0  0  0  0  0  0  0  0
    4.1074    2.1849    0.0000 O   0  0  0  0  0  0  0  0  0  0  0  0
    4.8243    1.7724    0.0000 C   0  0  0  0  0  0  0  0  0  0  0  0
    1.9560    3.4113    0.0000 C   0  0  0  0  0  0  0  0  0  0  0  0
 15 16  1  0
  7  8  1  0
 13 17  1  0
  4 14  2  0
 17 18  1  0
  8  9  2  0
 18 19  1  0
 19 20  1  0
 20 21  1  0
  9 10  1  0
  5  1  2  0
 10 11  2  0
 20 23  1  0
 21 22  1  0
 22 25  1  0
 24 23  1  0
  2  3  2  0
 11 12  1  0
 24 25  2  0
  4  6  1  0
 25 26  1  0
 12 13  2  0
 26 27  2  0
 13  8  1  0
 27 28  1  0
  1  2  1  0
 28 29  2  0
 29 24  1  0
  5 14  1  0
 28 30  1  0
  6  7  1  0
 27 31  1  0
  5 15  1  0
 31 32  1  0
  3  4  1  0
 30 33  1  0
M  END
>  <Classification>  (205) 
1

>  <pchembl>  (205) 
6.12

>  <InChI_steorem>  (205) 
InChI=1S/C28H33NO4/c1-30-25-9-6-7-21(17-25)11-12-22-8-4-5-10-26(22)33-16-15-29-14-13-23-18-27(31-2)28(32-3)19-24(23)20-29/h4-10,17-19H,11-16,20H2,1-3H3

>  <source>  (205) 
ChEMBL25

>  <source_id>  (205) 
25

>  <optional_reference>  (205) 
10.1021/jm800928j

>  <optional_origin>  (205) 
None

>  <target>  (205) 
MDR1

$$$$

     RDKit          2D

 33 36  0  0  0  0  0  0  0  0999 V2000
   -5.3226  -16.6597    0.0000 C   0  0  0  0  0  0  0  0  0  0  0  0
   -5.3239  -17.4873    0.0000 C   0  0  0  0  0  0  0  0  0  0  0  0
   -4.6109  -17.9001    0.0000 C   0  0  0  0  0  0  0  0  0  0  0  0
   -3.8916  -17.4868    0.0000 C   0  0  0  0  0  0  0  0  0  0  0  0
   -4.6129  -16.2469    0.0000 C   0  0  0  0  0  0  0  0  0  0  0  0
   -3.1768  -17.8986    0.0000 C   0  0  0  0  0  0  0  0  0  0  0  0
   -2.4628  -17.4854    0.0000 C   0  0  0  0  0  0  0  0  0  0  0  0
   -1.7479  -17.8973    0.0000 C   0  0  0  0  0  0  0  0  0  0  0  0
   -1.7526  -18.7232    0.0000 C   0  0  0  0  0  0  0  0  0  0  0  0
   -1.0386  -19.1350    0.0000 C   0  0  0  0  0  0  0  0  0  0  0  0
   -0.3235  -18.7218    0.0000 C   0  0  0  0  0  0  0  0  0  0  0  0
   -0.3269  -17.8925    0.0000 C   0  0  0  0  0  0  0  0  0  0  0  0
   -1.0414  -17.4846    0.0000 C   0  0  0  0  0  0  0  0  0  0  0  0
   -3.9048  -16.6552    0.0000 C   0  0  0  0  0  0  0  0  0  0  0  0
   -4.6145  -15.4219    0.0000 O   0  0  0  0  0  0  0  0  0  0  0  0
   -3.9009  -15.0081    0.0000 C   0  0  0  0  0  0  0  0  0  0  0  0
   -1.0455  -16.6596    0.0000 O   0  0  0  0  0  0  0  0  0  0  0  0
   -0.3332  -16.2436    0.0000 C   0  0  0  0  0  0  0  0  0  0  0  0
    0.3833  -16.6526    0.0000 C   0  0  0  0  0  0  0  0  0  0  0  0
    1.0958  -16.2366    0.0000 N   0  0  0  0  0  0  0  0  0  0  0  0
    1.8092  -16.6465    0.0000 C   0  0  0  0  0  0  0  0  0  0  0  0
    2.5196  -16.2340    0.0000 C   0  0  0  0  0  0  0  0  0  0  0  0
    2.5197  -15.4086    0.0000 N   0  0  0  0  0  0  0  0  0  0  0  0
    1.8034  -14.9976    0.0000 C   0  0  0  0  0  0  0  0  0  0  0  0
    1.0869  -15.4117    0.0000 C   0  0  0  0  0  0  0  0  0  0  0  0
    3.2287  -14.9968    0.0000 C   0  0  0  0  0  0  0  0  0  0  0  0
    3.9439  -15.4103    0.0000 C   0  0  0  0  0  0  0  0  0  0  0  0
    4.6574  -14.9976    0.0000 C   0  0  0  0  0  0  0  0  0  0  0  0
    4.6569  -14.1717    0.0000 C   0  0  0  0  0  0  0  0  0  0  0  0
    3.9370  -13.7602    0.0000 C   0  0  0  0  0  0  0  0  0  0  0  0
    3.2264  -14.1752    0.0000 C   0  0  0  0  0  0  0  0  0  0  0  0
    3.9440  -16.2352    0.0000 O   0  0  0  0  0  0  0  0  0  0  0  0
    4.6585  -16.6476    0.0000 C   0  0  0  0  0  0  0  0  0  0  0  0
 15 16  1  0
  7  8  1  0
 13 17  1  0
  4 14  2  0
 17 18  1  0
  8  9  2  0
 18 19  1  0
 19 20  1  0
 20 21  1  0
  9 10  1  0
  5  1  2  0
 10 11  2  0
  2  3  2  0
 11 12  1  0
 20 25  1  0
 21 22  1  0
 22 23  1  0
 23 24  1  0
 24 25  1  0
  4  6  1  0
 12 13  2  0
 26 27  2  0
 13  8  1  0
 27 28  1  0
  1  2  1  0
 28 29  2  0
  5 14  1  0
 29 30  1  0
  6  7  1  0
 30 31  2  0
 31 26  1  0
 23 26  1  0
  5 15  1  0
 27 32  1  0
  3  4  1  0
 32 33  1  0
M  END
>  <Classification>  (206) 
0

>  <pchembl>  (206) 
4.6

>  <InChI_steorem>  (206) 
InChI=1S/C28H34N2O3/c1-31-25-10-7-8-23(22-25)14-15-24-9-3-5-12-27(24)33-21-20-29-16-18-30(19-17-29)26-11-4-6-13-28(26)32-2/h3-13,22H,14-21H2,1-2H3

>  <source>  (206) 
ChEMBL25

>  <source_id>  (206) 
25

>  <optional_reference>  (206) 
10.1021/jm800928j

>  <optional_origin>  (206) 
None

>  <target>  (206) 
MDR1

$$$$

     RDKit          2D

 34 37  0  0  0  0  0  0  0  0999 V2000
   14.7812    0.4886    0.0000 N   0  0  0  0  0  0  0  0  0  0  0  0
   14.7808   -0.3350    0.0000 C   0  0  0  0  0  0  0  0  0  0  0  0
   15.4932   -0.7484    0.0000 C   0  0  0  0  0  0  0  0  0  0  0  0
   15.4935    0.9048    0.0000 C   0  0  0  0  0  0  0  0  0  0  0  0
    7.6389    0.4745    0.0000 C   0  0  0  0  0  0  0  0  0  0  0  0
    7.6377   -0.3583    0.0000 C   0  0  0  0  0  0  0  0  0  0  0  0
    8.3519   -0.7693    0.0000 C   0  0  0  0  0  0  0  0  0  0  0  0
    9.0723   -0.3579    0.0000 C   0  0  0  0  0  0  0  0  0  0  0  0
    8.3499    0.8852    0.0000 C   0  0  0  0  0  0  0  0  0  0  0  0
    9.7883   -0.7678    0.0000 C   0  0  0  0  0  0  0  0  0  0  0  0
   10.5036   -0.3566    0.0000 C   0  0  0  0  0  0  0  0  0  0  0  0
   11.2150   -0.7664    0.0000 C   0  0  0  0  0  0  0  0  0  0  0  0
   11.2105   -1.5931    0.0000 C   0  0  0  0  0  0  0  0  0  0  0  0
   11.9256   -2.0075    0.0000 C   0  0  0  0  0  0  0  0  0  0  0  0
   12.6419   -1.5916    0.0000 C   0  0  0  0  0  0  0  0  0  0  0  0
   12.6385   -0.7617    0.0000 C   0  0  0  0  0  0  0  0  0  0  0  0
   11.9228   -0.3511    0.0000 C   0  0  0  0  0  0  0  0  0  0  0  0
    9.0592    0.4790    0.0000 C   0  0  0  0  0  0  0  0  0  0  0  0
    8.3482    1.7109    0.0000 O   0  0  0  0  0  0  0  0  0  0  0  0
    9.0631    2.1273    0.0000 C   0  0  0  0  0  0  0  0  0  0  0  0
   11.9187    0.4746    0.0000 O   0  0  0  0  0  0  0  0  0  0  0  0
   12.6323    0.8886    0.0000 C   0  0  0  0  0  0  0  0  0  0  0  0
   13.3499    0.4816    0.0000 C   0  0  0  0  0  0  0  0  0  0  0  0
   14.0636    0.8956    0.0000 C   0  0  0  0  0  0  0  0  0  0  0  0
   16.2058    0.4914    0.0000 C   0  0  0  0  0  0  0  0  0  0  0  0
   16.2044   -0.3314    0.0000 C   0  0  0  0  0  0  0  0  0  0  0  0
   16.9158   -0.7446    0.0000 C   0  0  0  0  0  0  0  0  0  0  0  0
   17.6290   -0.3315    0.0000 C   0  0  0  0  0  0  0  0  0  0  0  0
   17.6265    0.4945    0.0000 C   0  0  0  0  0  0  0  0  0  0  0  0
   16.9146    0.8994    0.0000 C   0  0  0  0  0  0  0  0  0  0  0  0
   18.3407    0.9075    0.0000 O   0  0  0  0  0  0  0  0  0  0  0  0
   18.3451   -0.7458    0.0000 O   0  0  0  0  0  0  0  0  0  0  0  0
   19.0578    0.4993    0.0000 C   0  0  0  0  0  0  0  0  0  0  0  0
   19.0603   -0.3297    0.0000 C   0  0  0  0  0  0  0  0  0  0  0  0
  7  8  1  0
 16 17  2  0
 17 12  1  0
  8 18  2  0
  9 18  1  0
  3 26  1  0
  9 19  1  0
  9  5  2  0
 19 20  1  0
 25  4  1  0
 17 21  1  0
  8 10  1  0
 21 22  1  0
  1  2  1  0
 22 23  1  0
 10 11  1  0
 23 24  1  0
 24  1  1  0
 11 12  1  0
 25 26  2  0
  5  6  1  0
 26 27  1  0
 12 13  2  0
 27 28  2  0
  1  4  1  0
 28 29  1  0
 13 14  1  0
 29 30  2  0
 30 25  1  0
  6  7  2  0
 29 31  1  0
 14 15  2  0
 28 32  1  0
  2  3  1  0
 31 33  1  0
 15 16  1  0
 32 34  1  0
M  END
>  <Classification>  (207) 
1

>  <pchembl>  (207) 
6.85

>  <InChI_steorem>  (207) 
InChI=1S/C29H35NO4/c1-31-26-10-6-8-22(18-26)12-13-23-9-4-5-11-27(23)34-17-7-15-30-16-14-24-19-28(32-2)29(33-3)20-25(24)21-30/h4-6,8-11,18-20H,7,12-17,21H2,1-3H3

>  <source>  (207) 
ChEMBL25

>  <source_id>  (207) 
25

>  <optional_reference>  (207) 
10.1021/jm800928j

>  <optional_origin>  (207) 
None

>  <target>  (207) 
MDR1

$$$$

     RDKit          2D

 34 37  0  0  0  0  0  0  0  0999 V2000
   14.9614  -15.1423    0.0000 N   0  0  0  0  0  0  0  0  0  0  0  0
   14.9610  -15.9652    0.0000 C   0  0  0  0  0  0  0  0  0  0  0  0
   15.6722  -16.3761    0.0000 C   0  0  0  0  0  0  0  0  0  0  0  0
   16.3882  -15.9654    0.0000 N   0  0  0  0  0  0  0  0  0  0  0  0
   16.3883  -15.1395    0.0000 C   0  0  0  0  0  0  0  0  0  0  0  0
   15.6724  -14.7241    0.0000 C   0  0  0  0  0  0  0  0  0  0  0  0
   17.0982  -16.3754    0.0000 C   0  0  0  0  0  0  0  0  0  0  0  0
   17.0957  -17.2015    0.0000 C   0  0  0  0  0  0  0  0  0  0  0  0
   17.8087  -17.6149    0.0000 C   0  0  0  0  0  0  0  0  0  0  0  0
   18.5247  -17.2034    0.0000 C   0  0  0  0  0  0  0  0  0  0  0  0
   18.5233  -16.3743    0.0000 C   0  0  0  0  0  0  0  0  0  0  0  0
   17.8096  -15.9646    0.0000 C   0  0  0  0  0  0  0  0  0  0  0  0
    7.8265  -15.1565    0.0000 C   0  0  0  0  0  0  0  0  0  0  0  0
    7.8253  -15.9841    0.0000 C   0  0  0  0  0  0  0  0  0  0  0  0
    8.5381  -16.3971    0.0000 C   0  0  0  0  0  0  0  0  0  0  0  0
    9.2575  -15.9836    0.0000 C   0  0  0  0  0  0  0  0  0  0  0  0
    8.5362  -14.7438    0.0000 C   0  0  0  0  0  0  0  0  0  0  0  0
    9.9723  -16.3954    0.0000 C   0  0  0  0  0  0  0  0  0  0  0  0
   10.6864  -15.9823    0.0000 C   0  0  0  0  0  0  0  0  0  0  0  0
   11.4012  -16.3941    0.0000 C   0  0  0  0  0  0  0  0  0  0  0  0
   11.3966  -17.2202    0.0000 C   0  0  0  0  0  0  0  0  0  0  0  0
   12.1106  -17.6319    0.0000 C   0  0  0  0  0  0  0  0  0  0  0  0
   12.8257  -17.2186    0.0000 C   0  0  0  0  0  0  0  0  0  0  0  0
   12.8223  -16.3895    0.0000 C   0  0  0  0  0  0  0  0  0  0  0  0
   12.1076  -15.9814    0.0000 C   0  0  0  0  0  0  0  0  0  0  0  0
    9.2443  -15.1520    0.0000 C   0  0  0  0  0  0  0  0  0  0  0  0
    8.5346  -13.9188    0.0000 O   0  0  0  0  0  0  0  0  0  0  0  0
    9.2483  -13.5049    0.0000 C   0  0  0  0  0  0  0  0  0  0  0  0
   12.1036  -15.1564    0.0000 O   0  0  0  0  0  0  0  0  0  0  0  0
   12.8160  -14.7404    0.0000 C   0  0  0  0  0  0  0  0  0  0  0  0
   13.5325  -15.1494    0.0000 C   0  0  0  0  0  0  0  0  0  0  0  0
   14.2449  -14.7334    0.0000 C   0  0  0  0  0  0  0  0  0  0  0  0
   17.8087  -15.1396    0.0000 O   0  0  0  0  0  0  0  0  0  0  0  0
   18.5226  -14.7261    0.0000 C   0  0  0  0  0  0  0  0  0  0  0  0
  1  6  1  0
 17 13  2  0
  8  9  2  0
 16 18  1  0
  2  3  1  0
 18 19  1  0
  9 10  1  0
 19 20  1  0
  3  4  1  0
 20 21  2  0
 10 11  2  0
 21 22  1  0
  4  5  1  0
 22 23  2  0
 11 12  1  0
 23 24  1  0
 12  7  2  0
 24 25  2  0
 25 20  1  0
  4  7  1  0
 17 26  1  0
  5  6  1  0
 17 27  1  0
  1  2  1  0
 27 28  1  0
 13 14  1  0
 25 29  1  0
 29 30  1  0
 14 15  2  0
 30 31  1  0
  7  8  1  0
 31 32  1  0
 32  1  1  0
 15 16  1  0
 12 33  1  0
 16 26  2  0
 33 34  1  0
M  END
>  <Classification>  (208) 
0

>  <pchembl>  (208) 
4.85

>  <InChI_steorem>  (208) 
InChI=1S/C29H36N2O3/c1-32-26-11-7-9-24(23-26)15-16-25-10-3-5-13-28(25)34-22-8-17-30-18-20-31(21-19-30)27-12-4-6-14-29(27)33-2/h3-7,9-14,23H,8,15-22H2,1-2H3

>  <source>  (208) 
ChEMBL25

>  <source_id>  (208) 
25

>  <optional_reference>  (208) 
10.1021/jm800928j

>  <optional_origin>  (208) 
None

>  <target>  (208) 
MDR1

$$$$

     RDKit          2D

 34 37  0  0  0  0  0  0  0  0999 V2000
   15.4415  -24.6315    0.0000 N   0  0  0  0  0  0  0  0  0  0  0  0
   15.4410  -25.4545    0.0000 C   0  0  0  0  0  0  0  0  0  0  0  0
   16.1523  -25.8652    0.0000 C   0  0  0  0  0  0  0  0  0  0  0  0
   16.8682  -25.4546    0.0000 N   0  0  0  0  0  0  0  0  0  0  0  0
   16.8683  -24.6287    0.0000 C   0  0  0  0  0  0  0  0  0  0  0  0
   16.1525  -24.2133    0.0000 C   0  0  0  0  0  0  0  0  0  0  0  0
   17.5784  -25.8646    0.0000 C   0  0  0  0  0  0  0  0  0  0  0  0
   17.5757  -26.6906    0.0000 N   0  0  0  0  0  0  0  0  0  0  0  0
   18.2887  -27.1041    0.0000 C   0  0  0  0  0  0  0  0  0  0  0  0
   19.0048  -26.6927    0.0000 C   0  0  0  0  0  0  0  0  0  0  0  0
   19.0034  -25.8635    0.0000 C   0  0  0  0  0  0  0  0  0  0  0  0
   18.2898  -25.4537    0.0000 N   0  0  0  0  0  0  0  0  0  0  0  0
    6.8777  -24.6529    0.0000 C   0  0  0  0  0  0  0  0  0  0  0  0
    6.8765  -25.4804    0.0000 C   0  0  0  0  0  0  0  0  0  0  0  0
    7.5894  -25.8933    0.0000 C   0  0  0  0  0  0  0  0  0  0  0  0
    8.3088  -25.4799    0.0000 C   0  0  0  0  0  0  0  0  0  0  0  0
    7.5874  -24.2400    0.0000 C   0  0  0  0  0  0  0  0  0  0  0  0
    9.0235  -25.8917    0.0000 C   0  0  0  0  0  0  0  0  0  0  0  0
    9.7376  -25.4786    0.0000 C   0  0  0  0  0  0  0  0  0  0  0  0
   10.4525  -25.8904    0.0000 C   0  0  0  0  0  0  0  0  0  0  0  0
   10.4479  -26.7164    0.0000 C   0  0  0  0  0  0  0  0  0  0  0  0
   11.1618  -27.1281    0.0000 C   0  0  0  0  0  0  0  0  0  0  0  0
   11.8769  -26.7150    0.0000 C   0  0  0  0  0  0  0  0  0  0  0  0
   11.8735  -25.8857    0.0000 C   0  0  0  0  0  0  0  0  0  0  0  0
   11.1589  -25.4777    0.0000 C   0  0  0  0  0  0  0  0  0  0  0  0
    8.2956  -24.6482    0.0000 C   0  0  0  0  0  0  0  0  0  0  0  0
    7.5859  -23.4151    0.0000 O   0  0  0  0  0  0  0  0  0  0  0  0
    8.2995  -23.0013    0.0000 C   0  0  0  0  0  0  0  0  0  0  0  0
   11.1548  -24.6527    0.0000 O   0  0  0  0  0  0  0  0  0  0  0  0
   11.8673  -24.2367    0.0000 C   0  0  0  0  0  0  0  0  0  0  0  0
   12.5838  -24.6457    0.0000 C   0  0  0  0  0  0  0  0  0  0  0  0
   13.2961  -24.2296    0.0000 C   0  0  0  0  0  0  0  0  0  0  0  0
   14.0126  -24.6386    0.0000 C   0  0  0  0  0  0  0  0  0  0  0  0
   14.7249  -24.2226    0.0000 C   0  0  0  0  0  0  0  0  0  0  0  0
  1  6  1  0
 17 13  2  0
  8  9  2  0
 16 18  1  0
  2  3  1  0
 18 19  1  0
  9 10  1  0
 19 20  1  0
  3  4  1  0
 20 21  2  0
 10 11  2  0
 21 22  1  0
  4  5  1  0
 22 23  2  0
 11 12  1  0
 23 24  1  0
 12  7  2  0
 24 25  2  0
 25 20  1  0
  4  7  1  0
 17 26  1  0
  5  6  1  0
 17 27  1  0
  1  2  1  0
 27 28  1  0
 13 14  1  0
 25 29  1  0
 29 30  1  0
 14 15  2  0
 30 31  1  0
  7  8  1  0
 31 32  1  0
 15 16  1  0
 32 33  1  0
 16 26  2  0
 33 34  1  0
 34  1  1  0
M  END
>  <Classification>  (209) 
1

>  <pchembl>  (209) 
5.76

>  <InChI_steorem>  (209) 
InChI=1S/C28H36N4O2/c1-33-26-11-7-9-24(23-26)13-14-25-10-3-4-12-27(25)34-22-6-2-5-17-31-18-20-32(21-19-31)28-29-15-8-16-30-28/h3-4,7-12,15-16,23H,2,5-6,13-14,17-22H2,1H3

>  <source>  (209) 
ChEMBL25

>  <source_id>  (209) 
25

>  <optional_reference>  (209) 
10.1021/jm800928j

>  <optional_origin>  (209) 
None

>  <target>  (209) 
MDR1

$$$$

     RDKit          2D

 34 37  0  0  0  0  0  0  0  0999 V2000
    1.9701  -23.2561    0.0000 N   0  0  0  0  0  0  0  0  0  0  0  0
    2.6836  -23.6661    0.0000 C   0  0  0  0  0  0  0  0  0  0  0  0
    3.3939  -23.2536    0.0000 C   0  0  0  0  0  0  0  0  0  0  0  0
    3.3941  -22.4282    0.0000 N   0  0  0  0  0  0  0  0  0  0  0  0
    2.6778  -22.0170    0.0000 C   0  0  0  0  0  0  0  0  0  0  0  0
    1.9613  -22.4313    0.0000 C   0  0  0  0  0  0  0  0  0  0  0  0
    4.1032  -22.0163    0.0000 C   0  0  0  0  0  0  0  0  0  0  0  0
    4.8184  -22.4297    0.0000 C   0  0  0  0  0  0  0  0  0  0  0  0
    5.5318  -22.0171    0.0000 C   0  0  0  0  0  0  0  0  0  0  0  0
    5.5314  -21.1912    0.0000 C   0  0  0  0  0  0  0  0  0  0  0  0
    4.8113  -20.7797    0.0000 C   0  0  0  0  0  0  0  0  0  0  0  0
    4.1009  -21.1948    0.0000 C   0  0  0  0  0  0  0  0  0  0  0  0
    6.2466  -22.4292    0.0000 Cl  0  0  0  0  0  0  0  0  0  0  0  0
   -5.8773  -23.6863    0.0000 C   0  0  0  0  0  0  0  0  0  0  0  0
   -5.8787  -24.5140    0.0000 C   0  0  0  0  0  0  0  0  0  0  0  0
   -5.1656  -24.9268    0.0000 C   0  0  0  0  0  0  0  0  0  0  0  0
   -4.4464  -24.5134    0.0000 C   0  0  0  0  0  0  0  0  0  0  0  0
   -5.1676  -23.2735    0.0000 C   0  0  0  0  0  0  0  0  0  0  0  0
   -3.7315  -24.9253    0.0000 C   0  0  0  0  0  0  0  0  0  0  0  0
   -3.0174  -24.5121    0.0000 C   0  0  0  0  0  0  0  0  0  0  0  0
   -2.3026  -24.9239    0.0000 C   0  0  0  0  0  0  0  0  0  0  0  0
   -2.3071  -25.7499    0.0000 C   0  0  0  0  0  0  0  0  0  0  0  0
   -1.5931  -26.1618    0.0000 C   0  0  0  0  0  0  0  0  0  0  0  0
   -0.8781  -25.7485    0.0000 C   0  0  0  0  0  0  0  0  0  0  0  0
   -0.8815  -24.9192    0.0000 C   0  0  0  0  0  0  0  0  0  0  0  0
   -1.5961  -24.5112    0.0000 C   0  0  0  0  0  0  0  0  0  0  0  0
   -4.4596  -23.6818    0.0000 C   0  0  0  0  0  0  0  0  0  0  0  0
   -5.1693  -22.4485    0.0000 O   0  0  0  0  0  0  0  0  0  0  0  0
   -4.4556  -22.0347    0.0000 C   0  0  0  0  0  0  0  0  0  0  0  0
   -1.6002  -23.6862    0.0000 O   0  0  0  0  0  0  0  0  0  0  0  0
   -0.8877  -23.2702    0.0000 C   0  0  0  0  0  0  0  0  0  0  0  0
   -0.1713  -23.6792    0.0000 C   0  0  0  0  0  0  0  0  0  0  0  0
    0.5412  -23.2632    0.0000 C   0  0  0  0  0  0  0  0  0  0  0  0
    1.2576  -23.6722    0.0000 C   0  0  0  0  0  0  0  0  0  0  0  0
 16 17  1  0
 17 27  2  0
  8  9  2  0
 18 14  2  0
  2  3  1  0
 17 19  1  0
  9 10  1  0
 19 20  1  0
  3  4  1  0
 20 21  1  0
 10 11  2  0
 21 22  2  0
  4  5  1  0
 22 23  1  0
 11 12  1  0
 23 24  2  0
 12  7  2  0
 24 25  1  0
  4  7  1  0
 25 26  2  0
 26 21  1  0
  5  6  1  0
 18 27  1  0
  9 13  1  0
 18 28  1  0
  1  2  1  0
 28 29  1  0
 26 30  1  0
 14 15  1  0
 30 31  1  0
  7  8  1  0
 31 32  1  0
 15 16  2  0
 32 33  1  0
  1  6  1  0
 33 34  1  0
 34  1  1  0
M  END
>  <Classification>  (210) 
1

>  <pchembl>  (210) 
5.75

>  <InChI_steorem>  (210) 
InChI=1S/C29H35ClN2O2/c1-33-28-12-6-8-24(22-28)14-15-25-9-2-3-13-29(25)34-21-5-4-16-31-17-19-32(20-18-31)27-11-7-10-26(30)23-27/h2-3,6-13,22-23H,4-5,14-21H2,1H3

>  <source>  (210) 
ChEMBL25

>  <source_id>  (210) 
25

>  <optional_reference>  (210) 
10.1021/jm800928j

>  <optional_origin>  (210) 
None

>  <target>  (210) 
MDR1

$$$$

     RDKit          2D

 34 37  0  0  0  0  0  0  0  0999 V2000
    2.3459   -7.6361    0.0000 N   0  0  0  0  0  0  0  0  0  0  0  0
    3.0594   -8.0461    0.0000 C   0  0  0  0  0  0  0  0  0  0  0  0
    3.7697   -7.6336    0.0000 C   0  0  0  0  0  0  0  0  0  0  0  0
    3.7699   -6.8082    0.0000 N   0  0  0  0  0  0  0  0  0  0  0  0
    3.0535   -6.3970    0.0000 C   0  0  0  0  0  0  0  0  0  0  0  0
    2.3370   -6.8113    0.0000 C   0  0  0  0  0  0  0  0  0  0  0  0
    4.4788   -6.3964    0.0000 C   0  0  0  0  0  0  0  0  0  0  0  0
    5.1941   -6.8097    0.0000 C   0  0  0  0  0  0  0  0  0  0  0  0
    5.9075   -6.3971    0.0000 C   0  0  0  0  0  0  0  0  0  0  0  0
    5.9070   -5.5713    0.0000 C   0  0  0  0  0  0  0  0  0  0  0  0
    5.1871   -5.1598    0.0000 C   0  0  0  0  0  0  0  0  0  0  0  0
    4.4766   -5.5748    0.0000 C   0  0  0  0  0  0  0  0  0  0  0  0
   -5.5013   -8.0663    0.0000 C   0  0  0  0  0  0  0  0  0  0  0  0
   -5.5026   -8.8939    0.0000 C   0  0  0  0  0  0  0  0  0  0  0  0
   -4.7896   -9.3067    0.0000 C   0  0  0  0  0  0  0  0  0  0  0  0
   -4.0704   -8.8934    0.0000 C   0  0  0  0  0  0  0  0  0  0  0  0
   -4.7916   -7.6535    0.0000 C   0  0  0  0  0  0  0  0  0  0  0  0
   -3.3555   -9.3052    0.0000 C   0  0  0  0  0  0  0  0  0  0  0  0
   -2.6415   -8.8920    0.0000 C   0  0  0  0  0  0  0  0  0  0  0  0
   -1.9267   -9.3039    0.0000 C   0  0  0  0  0  0  0  0  0  0  0  0
   -1.9313  -10.1298    0.0000 C   0  0  0  0  0  0  0  0  0  0  0  0
   -1.2173  -10.5416    0.0000 C   0  0  0  0  0  0  0  0  0  0  0  0
   -0.5022  -10.1284    0.0000 C   0  0  0  0  0  0  0  0  0  0  0  0
   -0.5056   -9.2991    0.0000 C   0  0  0  0  0  0  0  0  0  0  0  0
   -1.2202   -8.8912    0.0000 C   0  0  0  0  0  0  0  0  0  0  0  0
   -4.0836   -8.0618    0.0000 C   0  0  0  0  0  0  0  0  0  0  0  0
   -4.7933   -6.8285    0.0000 O   0  0  0  0  0  0  0  0  0  0  0  0
   -4.0796   -6.4147    0.0000 C   0  0  0  0  0  0  0  0  0  0  0  0
   -1.2243   -8.0662    0.0000 O   0  0  0  0  0  0  0  0  0  0  0  0
   -0.5119   -7.6502    0.0000 C   0  0  0  0  0  0  0  0  0  0  0  0
    0.2046   -8.0592    0.0000 C   0  0  0  0  0  0  0  0  0  0  0  0
    0.9170   -7.6432    0.0000 C   0  0  0  0  0  0  0  0  0  0  0  0
    1.6334   -8.0521    0.0000 C   0  0  0  0  0  0  0  0  0  0  0  0
    6.6204   -5.1570    0.0000 F   0  0  0  0  0  0  0  0  0  0  0  0
  1  6  1  0
 17 13  2  0
  8  9  2  0
 16 18  1  0
  2  3  1  0
 18 19  1  0
  9 10  1  0
 19 20  1  0
  3  4  1  0
 20 21  2  0
 10 11  2  0
 21 22  1  0
  4  5  1  0
 22 23  2  0
 11 12  1  0
 23 24  1  0
 12  7  2  0
 24 25  2  0
 25 20  1  0
  4  7  1  0
 17 26  1  0
  5  6  1  0
 17 27  1  0
  1  2  1  0
 27 28  1  0
 13 14  1  0
 25 29  1  0
 29 30  1  0
 14 15  2  0
 30 31  1  0
  7  8  1  0
 31 32  1  0
 15 16  1  0
 32 33  1  0
 33  1  1  0
 16 26  2  0
 10 34  1  0
M  END
>  <Classification>  (211) 
1

>  <pchembl>  (211) 
5.92

>  <InChI_steorem>  (211) 
InChI=1S/C29H35FN2O2/c1-33-28-9-6-7-24(23-28)11-12-25-8-2-3-10-29(25)34-22-5-4-17-31-18-20-32(21-19-31)27-15-13-26(30)14-16-27/h2-3,6-10,13-16,23H,4-5,11-12,17-22H2,1H3

>  <source>  (211) 
ChEMBL25

>  <source_id>  (211) 
25

>  <optional_reference>  (211) 
10.1021/jm800928j

>  <optional_origin>  (211) 
None

>  <target>  (211) 
MDR1

$$$$

     RDKit          2D

 30 34  0  0  0  0  0  0  0  0999 V2000
   -1.5445   -0.6009    0.0000 C   0  0  0  0  0  0  0  0  0  0  0  0
   -1.5445    1.0516    0.0000 C   0  0  0  0  0  0  0  0  0  0  0  0
   -2.2577   -0.1920    0.0000 C   0  0  0  0  0  0  0  0  0  0  0  0
   -2.2577    0.6343    0.0000 C   0  0  0  0  0  0  0  0  0  0  0  0
   -3.6855   -0.1920    0.0000 C   0  0  0  0  0  0  0  0  0  0  0  0
   -2.9693   -0.6073    0.0000 O   0  0  0  0  0  0  0  0  0  0  0  0
   -0.8314    0.6343    0.0000 C   0  0  0  0  0  0  0  0  0  0  0  0
   -0.8304   -0.1920    0.0000 C   0  0  0  0  0  0  0  0  0  0  0  0
    0.5964    0.6362    0.0000 C   0  0  0  0  0  0  0  0  0  0  0  0
   -0.1203    1.0506    0.0000 O   0  0  0  0  0  0  0  0  0  0  0  0
   -1.5445    1.8779    0.0000 O   0  0  0  0  0  0  0  0  0  0  0  0
   -1.5448   -1.4272    0.0000 O   0  0  0  0  0  0  0  0  0  0  0  0
    1.1768    1.2269    0.0000 C   0  0  0  0  0  0  0  0  0  0  0  0
    1.4773    0.2504    0.0000 C   0  0  0  0  0  0  0  0  0  0  0  0
   -4.2774   -0.7762    0.0000 C   0  0  0  0  0  0  0  0  0  0  0  0
   -4.4068    0.2211    0.0000 C   0  0  0  0  0  0  0  0  0  0  0  0
   -3.6855    0.6343    0.0000 C   0  0  0  0  0  0  0  0  0  0  0  0
   -2.9726    1.0460    0.0000 C   0  0  0  0  0  0  0  0  0  0  0  0
   -2.9727    1.8646    0.0000 C   0  0  0  0  0  0  0  0  0  0  0  0
   -3.6840    2.2778    0.0000 C   0  0  0  0  0  0  0  0  0  0  0  0
   -4.3969    1.8661    0.0000 C   0  0  0  0  0  0  0  0  0  0  0  0
   -4.3984    1.0413    0.0000 C   0  0  0  0  0  0  0  0  0  0  0  0
   -3.6830    3.1041    0.0000 C   0  0  0  0  0  0  0  0  0  0  0  0
    0.5974   -0.1901    0.0000 C   0  0  0  0  0  0  0  0  0  0  0  0
   -0.1188   -0.5987    0.0000 C   0  0  0  0  0  0  0  0  0  0  0  0
   -0.1231   -1.4187    0.0000 C   0  0  0  0  0  0  0  0  0  0  0  0
    0.5872   -1.8365    0.0000 C   0  0  0  0  0  0  0  0  0  0  0  0
    1.3035   -1.4278    0.0000 C   0  0  0  0  0  0  0  0  0  0  0  0
    1.3094   -0.6016    0.0000 C   0  0  0  0  0  0  0  0  0  0  0  0
    0.5818   -2.6626    0.0000 C   0  0  0  0  0  0  0  0  0  0  0  0
  5 15  1  0
  5  6  1  0
  5 16  1  0
 17 18  1  0
  7  8  2  0
  7  2  1  0
  3  4  2  0
  4  2  1  0
  7 10  1  0
 17 22  1  0
 18 19  1  0
 19 20  1  0
 20 21  1  0
 21 22  1  0
  8 25  1  0
 20 23  1  0
 24  9  1  0
  9 10  1  0
 24 25  1  0
  3  1  1  0
  2 11  2  0
  1  8  1  0
  1 12  2  0
  3  6  1  0
  9 13  1  0
 24 29  1  0
 25 26  1  0
 26 27  1  0
 27 28  1  0
 28 29  1  0
  4 18  1  0
  9 14  1  0
 17  5  1  0
 27 30  1  0
M  END
>  <Classification>  (212) 
1

>  <pchembl>  (212) 
6.11

>  <InChI_steorem>  (212) 
InChI=1S/C26H36O4/c1-13-7-9-17-15(11-13)19-21(27)24-20(22(28)23(19)29-25(17,3)4)16-12-14(2)8-10-18(16)26(5,6)30-24/h13-18H,7-12H2,1-6H3

>  <source>  (212) 
ChEMBL25

>  <source_id>  (212) 
25

>  <optional_reference>  (212) 
10.1021/jm800403b

>  <optional_origin>  (212) 
None

>  <target>  (212) 
MDR1

$$$$

     RDKit          2D

 35 38  0  0  0  0  0  0  0  0999 V2000
   15.5427  -23.3213    0.0000 N   0  0  0  0  0  0  0  0  0  0  0  0
   15.5423  -24.1443    0.0000 C   0  0  0  0  0  0  0  0  0  0  0  0
   16.2535  -24.5550    0.0000 C   0  0  0  0  0  0  0  0  0  0  0  0
   16.9695  -24.1444    0.0000 N   0  0  0  0  0  0  0  0  0  0  0  0
   16.9696  -23.3185    0.0000 C   0  0  0  0  0  0  0  0  0  0  0  0
   16.2537  -22.9032    0.0000 C   0  0  0  0  0  0  0  0  0  0  0  0
   17.6795  -24.5545    0.0000 C   0  0  0  0  0  0  0  0  0  0  0  0
   17.6770  -25.3805    0.0000 C   0  0  0  0  0  0  0  0  0  0  0  0
   18.3900  -25.7940    0.0000 C   0  0  0  0  0  0  0  0  0  0  0  0
   19.1061  -25.3825    0.0000 C   0  0  0  0  0  0  0  0  0  0  0  0
   19.1047  -24.5532    0.0000 C   0  0  0  0  0  0  0  0  0  0  0  0
   18.3910  -24.1435    0.0000 C   0  0  0  0  0  0  0  0  0  0  0  0
   18.3884  -26.6190    0.0000 Cl  0  0  0  0  0  0  0  0  0  0  0  0
    6.9788  -23.3426    0.0000 C   0  0  0  0  0  0  0  0  0  0  0  0
    6.9774  -24.1702    0.0000 C   0  0  0  0  0  0  0  0  0  0  0  0
    7.6904  -24.5831    0.0000 C   0  0  0  0  0  0  0  0  0  0  0  0
    8.4097  -24.1697    0.0000 C   0  0  0  0  0  0  0  0  0  0  0  0
    7.6885  -22.9298    0.0000 C   0  0  0  0  0  0  0  0  0  0  0  0
    9.1246  -24.5815    0.0000 C   0  0  0  0  0  0  0  0  0  0  0  0
    9.8387  -24.1684    0.0000 C   0  0  0  0  0  0  0  0  0  0  0  0
   10.5535  -24.5802    0.0000 C   0  0  0  0  0  0  0  0  0  0  0  0
   10.5490  -25.4062    0.0000 C   0  0  0  0  0  0  0  0  0  0  0  0
   11.2630  -25.8180    0.0000 C   0  0  0  0  0  0  0  0  0  0  0  0
   11.9780  -25.4047    0.0000 C   0  0  0  0  0  0  0  0  0  0  0  0
   11.9746  -24.5755    0.0000 C   0  0  0  0  0  0  0  0  0  0  0  0
   11.2600  -24.1675    0.0000 C   0  0  0  0  0  0  0  0  0  0  0  0
    8.3965  -23.3381    0.0000 C   0  0  0  0  0  0  0  0  0  0  0  0
    7.6868  -22.1048    0.0000 O   0  0  0  0  0  0  0  0  0  0  0  0
    8.4005  -21.6910    0.0000 C   0  0  0  0  0  0  0  0  0  0  0  0
   11.2559  -23.3425    0.0000 O   0  0  0  0  0  0  0  0  0  0  0  0
   11.9684  -22.9265    0.0000 C   0  0  0  0  0  0  0  0  0  0  0  0
   12.6848  -23.3354    0.0000 C   0  0  0  0  0  0  0  0  0  0  0  0
   13.3973  -22.9194    0.0000 C   0  0  0  0  0  0  0  0  0  0  0  0
   14.1137  -23.3284    0.0000 C   0  0  0  0  0  0  0  0  0  0  0  0
   14.8262  -22.9124    0.0000 C   0  0  0  0  0  0  0  0  0  0  0  0
 17 27  2  0
  8  9  2  0
 18 14  2  0
  2  3  1  0
 17 19  1  0
  9 10  1  0
 19 20  1  0
  3  4  1  0
 20 21  1  0
 10 11  2  0
 21 22  2  0
  4  5  1  0
 22 23  1  0
 11 12  1  0
 23 24  2  0
 12  7  2  0
 24 25  1  0
  4  7  1  0
 25 26  2  0
 26 21  1  0
  5  6  1  0
 18 27  1  0
  9 13  1  0
 18 28  1  0
  1  2  1  0
 28 29  1  0
 26 30  1  0
 14 15  1  0
 30 31  1  0
  7  8  1  0
 31 32  1  0
 15 16  2  0
 32 33  1  0
  1  6  1  0
 33 34  1  0
 16 17  1  0
 34 35  1  0
 35  1  1  0
M  END
>  <Classification>  (213) 
1

>  <pchembl>  (213) 
5.58

>  <InChI_steorem>  (213) 
InChI=1S/C30H37ClN2O2/c1-34-29-13-7-9-25(23-29)15-16-26-10-3-4-14-30(26)35-22-6-2-5-17-32-18-20-33(21-19-32)28-12-8-11-27(31)24-28/h3-4,7-14,23-24H,2,5-6,15-22H2,1H3

>  <source>  (213) 
ChEMBL25

>  <source_id>  (213) 
25

>  <optional_reference>  (213) 
10.1021/jm800928j

>  <optional_origin>  (213) 
None

>  <target>  (213) 
MDR1

$$$$

     RDKit          2D

 35 38  0  0  0  0  0  0  0  0999 V2000
   15.6430   -7.3896    0.0000 N   0  0  0  0  0  0  0  0  0  0  0  0
   15.6426   -8.2126    0.0000 C   0  0  0  0  0  0  0  0  0  0  0  0
   16.3539   -8.6233    0.0000 C   0  0  0  0  0  0  0  0  0  0  0  0
   17.0699   -8.2127    0.0000 N   0  0  0  0  0  0  0  0  0  0  0  0
   17.0699   -7.3868    0.0000 C   0  0  0  0  0  0  0  0  0  0  0  0
   16.3540   -6.9714    0.0000 C   0  0  0  0  0  0  0  0  0  0  0  0
   17.7799   -8.6227    0.0000 C   0  0  0  0  0  0  0  0  0  0  0  0
   17.7773   -9.4487    0.0000 C   0  0  0  0  0  0  0  0  0  0  0  0
   18.4903   -9.8622    0.0000 C   0  0  0  0  0  0  0  0  0  0  0  0
   19.2063   -9.4508    0.0000 C   0  0  0  0  0  0  0  0  0  0  0  0
   19.2049   -8.6216    0.0000 C   0  0  0  0  0  0  0  0  0  0  0  0
   18.4914   -8.2118    0.0000 C   0  0  0  0  0  0  0  0  0  0  0  0
    7.0794   -7.4110    0.0000 C   0  0  0  0  0  0  0  0  0  0  0  0
    7.0781   -8.2384    0.0000 C   0  0  0  0  0  0  0  0  0  0  0  0
    7.7911   -8.6514    0.0000 C   0  0  0  0  0  0  0  0  0  0  0  0
    8.5104   -8.2380    0.0000 C   0  0  0  0  0  0  0  0  0  0  0  0
    7.7891   -6.9981    0.0000 C   0  0  0  0  0  0  0  0  0  0  0  0
    9.2252   -8.6498    0.0000 C   0  0  0  0  0  0  0  0  0  0  0  0
    9.9392   -8.2367    0.0000 C   0  0  0  0  0  0  0  0  0  0  0  0
   10.6541   -8.6485    0.0000 C   0  0  0  0  0  0  0  0  0  0  0  0
   10.6494   -9.4745    0.0000 C   0  0  0  0  0  0  0  0  0  0  0  0
   11.3634   -9.8862    0.0000 C   0  0  0  0  0  0  0  0  0  0  0  0
   12.0785   -9.4730    0.0000 C   0  0  0  0  0  0  0  0  0  0  0  0
   12.0751   -8.6438    0.0000 C   0  0  0  0  0  0  0  0  0  0  0  0
   11.3606   -8.2358    0.0000 C   0  0  0  0  0  0  0  0  0  0  0  0
    8.4972   -7.4063    0.0000 C   0  0  0  0  0  0  0  0  0  0  0  0
    7.7875   -6.1732    0.0000 O   0  0  0  0  0  0  0  0  0  0  0  0
    8.5011   -5.7594    0.0000 C   0  0  0  0  0  0  0  0  0  0  0  0
   11.3565   -7.4108    0.0000 O   0  0  0  0  0  0  0  0  0  0  0  0
   12.0688   -6.9948    0.0000 C   0  0  0  0  0  0  0  0  0  0  0  0
   12.7853   -7.4038    0.0000 C   0  0  0  0  0  0  0  0  0  0  0  0
   13.4978   -6.9877    0.0000 C   0  0  0  0  0  0  0  0  0  0  0  0
   14.2142   -7.3967    0.0000 C   0  0  0  0  0  0  0  0  0  0  0  0
   14.9266   -6.9806    0.0000 C   0  0  0  0  0  0  0  0  0  0  0  0
   19.9207   -9.8634    0.0000 F   0  0  0  0  0  0  0  0  0  0  0  0
 17 13  2  0
  8  9  2  0
 16 18  1  0
  2  3  1  0
 18 19  1  0
  9 10  1  0
 19 20  1  0
  3  4  1  0
 20 21  2  0
 10 11  2  0
 21 22  1  0
  4  5  1  0
 22 23  2  0
 11 12  1  0
 23 24  1  0
 12  7  2  0
 24 25  2  0
 25 20  1  0
  4  7  1  0
 17 26  1  0
  5  6  1  0
 17 27  1  0
  1  2  1  0
 27 28  1  0
 13 14  1  0
 25 29  1  0
 29 30  1  0
 14 15  2  0
 30 31  1  0
  7  8  1  0
 31 32  1  0
 15 16  1  0
 32 33  1  0
 16 26  2  0
 33 34  1  0
 34  1  1  0
  1  6  1  0
 10 35  1  0
M  END
>  <Classification>  (214) 
1

>  <pchembl>  (214) 
5.67

>  <InChI_steorem>  (214) 
InChI=1S/C30H37FN2O2/c1-34-29-10-7-8-25(24-29)12-13-26-9-3-4-11-30(26)35-23-6-2-5-18-32-19-21-33(22-20-32)28-16-14-27(31)15-17-28/h3-4,7-11,14-17,24H,2,5-6,12-13,18-23H2,1H3

>  <source>  (214) 
ChEMBL25

>  <source_id>  (214) 
25

>  <optional_reference>  (214) 
10.1021/jm800928j

>  <optional_origin>  (214) 
None

>  <target>  (214) 
MDR1

$$$$

     RDKit          2D

 35 38  0  0  0  0  0  0  0  0999 V2000
    1.6951  -24.2551    0.0000 N   0  0  0  0  0  0  0  0  0  0  0  0
    2.4086  -24.6650    0.0000 C   0  0  0  0  0  0  0  0  0  0  0  0
    3.1189  -24.2525    0.0000 C   0  0  0  0  0  0  0  0  0  0  0  0
    3.1191  -23.4272    0.0000 N   0  0  0  0  0  0  0  0  0  0  0  0
    2.4028  -23.0161    0.0000 C   0  0  0  0  0  0  0  0  0  0  0  0
    1.6863  -23.4302    0.0000 C   0  0  0  0  0  0  0  0  0  0  0  0
    3.8281  -23.0154    0.0000 C   0  0  0  0  0  0  0  0  0  0  0  0
    4.5434  -23.4288    0.0000 C   0  0  0  0  0  0  0  0  0  0  0  0
    5.2568  -23.0161    0.0000 C   0  0  0  0  0  0  0  0  0  0  0  0
    5.2564  -22.1902    0.0000 C   0  0  0  0  0  0  0  0  0  0  0  0
    4.5363  -21.7787    0.0000 C   0  0  0  0  0  0  0  0  0  0  0  0
    3.8258  -22.1937    0.0000 C   0  0  0  0  0  0  0  0  0  0  0  0
   -6.1523  -24.6853    0.0000 C   0  0  0  0  0  0  0  0  0  0  0  0
   -6.1536  -25.5129    0.0000 C   0  0  0  0  0  0  0  0  0  0  0  0
   -5.4406  -25.9258    0.0000 C   0  0  0  0  0  0  0  0  0  0  0  0
   -4.7213  -25.5124    0.0000 C   0  0  0  0  0  0  0  0  0  0  0  0
   -5.4426  -24.2726    0.0000 C   0  0  0  0  0  0  0  0  0  0  0  0
   -4.0065  -25.9242    0.0000 C   0  0  0  0  0  0  0  0  0  0  0  0
   -3.2923  -25.5110    0.0000 C   0  0  0  0  0  0  0  0  0  0  0  0
   -2.5776  -25.9229    0.0000 C   0  0  0  0  0  0  0  0  0  0  0  0
   -2.5821  -26.7489    0.0000 C   0  0  0  0  0  0  0  0  0  0  0  0
   -1.8681  -27.1607    0.0000 C   0  0  0  0  0  0  0  0  0  0  0  0
   -1.1531  -26.7474    0.0000 C   0  0  0  0  0  0  0  0  0  0  0  0
   -1.1565  -25.9182    0.0000 C   0  0  0  0  0  0  0  0  0  0  0  0
   -1.8711  -25.5102    0.0000 C   0  0  0  0  0  0  0  0  0  0  0  0
   -4.7345  -24.6808    0.0000 C   0  0  0  0  0  0  0  0  0  0  0  0
   -5.4442  -23.4476    0.0000 O   0  0  0  0  0  0  0  0  0  0  0  0
   -4.7306  -23.0337    0.0000 C   0  0  0  0  0  0  0  0  0  0  0  0
   -1.8751  -24.6852    0.0000 O   0  0  0  0  0  0  0  0  0  0  0  0
   -1.1627  -24.2692    0.0000 C   0  0  0  0  0  0  0  0  0  0  0  0
   -0.4463  -24.6781    0.0000 C   0  0  0  0  0  0  0  0  0  0  0  0
    0.2662  -24.2621    0.0000 C   0  0  0  0  0  0  0  0  0  0  0  0
    0.9826  -24.6711    0.0000 C   0  0  0  0  0  0  0  0  0  0  0  0
    4.5435  -24.2538    0.0000 O   0  0  0  0  0  0  0  0  0  0  0  0
    5.2580  -24.6661    0.0000 C   0  0  0  0  0  0  0  0  0  0  0  0
 17 13  2  0
  8  9  2  0
 16 18  1  0
  2  3  1  0
 18 19  1  0
  9 10  1  0
 19 20  1  0
  3  4  1  0
 20 21  2  0
 10 11  2  0
 21 22  1  0
  4  5  1  0
 22 23  2  0
 11 12  1  0
 23 24  1  0
 12  7  2  0
 24 25  2  0
 25 20  1  0
  4  7  1  0
 17 26  1  0
  5  6  1  0
 17 27  1  0
  1  2  1  0
 27 28  1  0
 13 14  1  0
 25 29  1  0
 29 30  1  0
 14 15  2  0
 30 31  1  0
  7  8  1  0
 31 32  1  0
 15 16  1  0
 32 33  1  0
 33  1  1  0
 16 26  2  0
  8 34  1  0
  1  6  1  0
 34 35  1  0
M  END
>  <Classification>  (215) 
1

>  <pchembl>  (215) 
5.24

>  <InChI_steorem>  (215) 
InChI=1S/C30H38N2O3/c1-33-27-12-9-10-25(24-27)16-17-26-11-3-5-14-29(26)35-23-8-7-18-31-19-21-32(22-20-31)28-13-4-6-15-30(28)34-2/h3-6,9-15,24H,7-8,16-23H2,1-2H3

>  <source>  (215) 
ChEMBL25

>  <source_id>  (215) 
25

>  <optional_reference>  (215) 
10.1021/jm800928j

>  <optional_origin>  (215) 
None

>  <target>  (215) 
MDR1

$$$$

     RDKit          2D

 35 38  0  0  0  0  0  0  0  0999 V2000
    2.1929   -9.5821    0.0000 N   0  0  0  0  0  0  0  0  0  0  0  0
    2.9029   -9.9945    0.0000 C   0  0  0  0  0  0  0  0  0  0  0  0
    3.6142   -9.5796    0.0000 C   0  0  0  0  0  0  0  0  0  0  0  0
    2.1841   -8.7568    0.0000 C   0  0  0  0  0  0  0  0  0  0  0  0
   -5.6611  -10.0148    0.0000 C   0  0  0  0  0  0  0  0  0  0  0  0
   -5.6624  -10.8428    0.0000 C   0  0  0  0  0  0  0  0  0  0  0  0
   -4.9484  -11.2582    0.0000 C   0  0  0  0  0  0  0  0  0  0  0  0
   -4.2281  -10.8422    0.0000 C   0  0  0  0  0  0  0  0  0  0  0  0
   -4.9504   -9.6040    0.0000 C   0  0  0  0  0  0  0  0  0  0  0  0
   -3.5123  -11.2566    0.0000 C   0  0  0  0  0  0  0  0  0  0  0  0
   -2.7971  -10.8409    0.0000 C   0  0  0  0  0  0  0  0  0  0  0  0
   -2.0859  -11.2553    0.0000 C   0  0  0  0  0  0  0  0  0  0  0  0
   -2.0904  -12.0818    0.0000 C   0  0  0  0  0  0  0  0  0  0  0  0
   -1.3755  -12.4915    0.0000 C   0  0  0  0  0  0  0  0  0  0  0  0
   -0.6593  -12.0804    0.0000 C   0  0  0  0  0  0  0  0  0  0  0  0
   -0.6627  -11.2506    0.0000 C   0  0  0  0  0  0  0  0  0  0  0  0
   -1.3783  -10.8401    0.0000 C   0  0  0  0  0  0  0  0  0  0  0  0
   -4.2412  -10.0102    0.0000 C   0  0  0  0  0  0  0  0  0  0  0  0
   -4.9520   -8.7741    0.0000 O   0  0  0  0  0  0  0  0  0  0  0  0
   -4.2373   -8.3622    0.0000 C   0  0  0  0  0  0  0  0  0  0  0  0
   -1.3824  -10.0147    0.0000 O   0  0  0  0  0  0  0  0  0  0  0  0
   -0.6690   -9.6007    0.0000 C   0  0  0  0  0  0  0  0  0  0  0  0
    0.0485  -10.0077    0.0000 C   0  0  0  0  0  0  0  0  0  0  0  0
    0.7620   -9.5891    0.0000 C   0  0  0  0  0  0  0  0  0  0  0  0
    1.4795  -10.0006    0.0000 C   0  0  0  0  0  0  0  0  0  0  0  0
    2.8971   -8.3447    0.0000 C   0  0  0  0  0  0  0  0  0  0  0  0
    3.6107   -8.7525    0.0000 C   0  0  0  0  0  0  0  0  0  0  0  0
    4.3209   -8.3423    0.0000 C   0  0  0  0  0  0  0  0  0  0  0  0
    4.3186   -7.5200    0.0000 C   0  0  0  0  0  0  0  0  0  0  0  0
    3.6003   -7.1095    0.0000 C   0  0  0  0  0  0  0  0  0  0  0  0
    2.8930   -7.5265    0.0000 C   0  0  0  0  0  0  0  0  0  0  0  0
    3.5946   -6.2840    0.0000 O   0  0  0  0  0  0  0  0  0  0  0  0
    5.0321   -7.1016    0.0000 O   0  0  0  0  0  0  0  0  0  0  0  0
    5.7495   -7.5133    0.0000 C   0  0  0  0  0  0  0  0  0  0  0  0
    2.8764   -5.8785    0.0000 C   0  0  0  0  0  0  0  0  0  0  0  0
 16 17  2  0
 17 12  1  0
  8 18  2  0
  9 18  1  0
  3 27  1  0
  9 19  1  0
  9  5  2  0
 19 20  1  0
 26  4  1  0
 17 21  1  0
  8 10  1  0
 21 22  1  0
  1  2  1  0
 22 23  1  0
 10 11  1  0
 23 24  1  0
 24 25  1  0
 25  1  1  0
 11 12  1  0
  5  6  1  0
 26 27  2  0
 12 13  2  0
 27 28  1  0
  1  4  1  0
 28 29  2  0
 13 14  1  0
 29 30  1  0
  6  7  2  0
 30 31  2  0
 31 26  1  0
 14 15  2  0
 30 32  1  0
  2  3  1  0
 29 33  1  0
 15 16  1  0
 33 34  1  0
  7  8  1  0
 32 35  1  0
M  END
>  <Classification>  (216) 
1

>  <pchembl>  (216) 
6.72

>  <InChI_steorem>  (216) 
InChI=1S/C30H37NO4/c1-32-27-11-8-9-23(19-27)13-14-24-10-4-5-12-28(24)35-18-7-6-16-31-17-15-25-20-29(33-2)30(34-3)21-26(25)22-31/h4-5,8-12,19-21H,6-7,13-18,22H2,1-3H3

>  <source>  (216) 
ChEMBL25

>  <source_id>  (216) 
25

>  <optional_reference>  (216) 
10.1021/jm800928j

>  <optional_origin>  (216) 
None

>  <target>  (216) 
MDR1

$$$$

     RDKit          2D

 35 38  0  0  0  0  0  0  0  0999 V2000
   -5.3181    0.0046    0.0000 C   0  0  0  0  0  0  0  0  0  0  0  0
   -5.3193   -0.8230    0.0000 C   0  0  0  0  0  0  0  0  0  0  0  0
   -4.6064   -1.2358    0.0000 C   0  0  0  0  0  0  0  0  0  0  0  0
   -3.8871   -0.8224    0.0000 C   0  0  0  0  0  0  0  0  0  0  0  0
   -4.6084    0.4174    0.0000 C   0  0  0  0  0  0  0  0  0  0  0  0
   -3.1723   -1.2343    0.0000 C   0  0  0  0  0  0  0  0  0  0  0  0
   -2.4582   -0.8211    0.0000 C   0  0  0  0  0  0  0  0  0  0  0  0
   -1.7433   -1.2330    0.0000 C   0  0  0  0  0  0  0  0  0  0  0  0
   -1.7480   -2.0589    0.0000 C   0  0  0  0  0  0  0  0  0  0  0  0
   -1.0340   -2.4707    0.0000 C   0  0  0  0  0  0  0  0  0  0  0  0
   -0.3189   -2.0575    0.0000 C   0  0  0  0  0  0  0  0  0  0  0  0
   -0.3223   -1.2282    0.0000 C   0  0  0  0  0  0  0  0  0  0  0  0
   -1.0369   -0.8202    0.0000 C   0  0  0  0  0  0  0  0  0  0  0  0
   -3.9003    0.0091    0.0000 C   0  0  0  0  0  0  0  0  0  0  0  0
   -4.6100    1.2424    0.0000 O   0  0  0  0  0  0  0  0  0  0  0  0
   -3.8963    1.6562    0.0000 C   0  0  0  0  0  0  0  0  0  0  0  0
   -1.0410    0.0047    0.0000 O   0  0  0  0  0  0  0  0  0  0  0  0
   -0.3286    0.4207    0.0000 C   0  0  0  0  0  0  0  0  0  0  0  0
    0.3880    0.0118    0.0000 C   0  0  0  0  0  0  0  0  0  0  0  0
    1.1003    0.4278    0.0000 N   0  0  0  0  0  0  0  0  0  0  0  0
    1.8138    0.0178    0.0000 C   0  0  0  0  0  0  0  0  0  0  0  0
    2.5241    0.4303    0.0000 C   0  0  0  0  0  0  0  0  0  0  0  0
    2.5243    1.2557    0.0000 N   0  0  0  0  0  0  0  0  0  0  0  0
    1.8080    1.6668    0.0000 C   0  0  0  0  0  0  0  0  0  0  0  0
    1.0915    1.2526    0.0000 C   0  0  0  0  0  0  0  0  0  0  0  0
    3.2333    1.6675    0.0000 C   0  0  0  0  0  0  0  0  0  0  0  0
    3.9485    1.2541    0.0000 C   0  0  0  0  0  0  0  0  0  0  0  0
    4.6620    1.6668    0.0000 C   0  0  0  0  0  0  0  0  0  0  0  0
    4.6615    2.4926    0.0000 C   0  0  0  0  0  0  0  0  0  0  0  0
    3.9416    2.9041    0.0000 C   0  0  0  0  0  0  0  0  0  0  0  0
    3.2310    2.4891    0.0000 C   0  0  0  0  0  0  0  0  0  0  0  0
    5.3767    1.2547    0.0000 C   0  0  0  0  0  0  0  0  0  0  0  0
    6.0864    0.8433    0.0000 F   0  0  0  0  0  0  0  0  0  0  0  0
    5.7897    1.9689    0.0000 F   0  0  0  0  0  0  0  0  0  0  0  0
    4.9679    0.5382    0.0000 F   0  0  0  0  0  0  0  0  0  0  0  0
 13 17  1  0
  4 14  2  0
 17 18  1  0
  8  9  2  0
 18 19  1  0
 19 20  1  0
 20 21  1  0
  9 10  1  0
  5  1  2  0
 10 11  2  0
  2  3  2  0
 11 12  1  0
 20 25  1  0
 21 22  1  0
 22 23  1  0
 23 24  1  0
 24 25  1  0
  4  6  1  0
 12 13  2  0
 26 27  2  0
 13  8  1  0
 27 28  1  0
  1  2  1  0
 28 29  2  0
  5 14  1  0
 29 30  1  0
  6  7  1  0
 30 31  2  0
 31 26  1  0
 23 26  1  0
  5 15  1  0
 28 32  1  0
  3  4  1  0
 32 33  1  0
 15 16  1  0
 32 34  1  0
  7  8  1  0
 32 35  1  0
M  END
>  <Classification>  (217) 
0

>  <pchembl>  (217) 
4.4

>  <InChI_steorem>  (217) 
InChI=1S/C28H31F3N2O2/c1-34-26-10-4-6-22(20-26)12-13-23-7-2-3-11-27(23)35-19-18-32-14-16-33(17-15-32)25-9-5-8-24(21-25)28(29,30)31/h2-11,20-21H,12-19H2,1H3

>  <source>  (217) 
ChEMBL25

>  <source_id>  (217) 
25

>  <optional_reference>  (217) 
10.1021/jm800928j

>  <optional_origin>  (217) 
None

>  <target>  (217) 
MDR1

$$$$

     RDKit          2D

 36 39  0  0  0  0  0  0  0  0999 V2000
   14.6471   -8.3122    0.0000 N   0  0  0  0  0  0  0  0  0  0  0  0
   14.6466   -9.1358    0.0000 C   0  0  0  0  0  0  0  0  0  0  0  0
   15.3544   -9.5491    0.0000 C   0  0  0  0  0  0  0  0  0  0  0  0
   15.3547   -7.8960    0.0000 C   0  0  0  0  0  0  0  0  0  0  0  0
    6.0741   -8.3334    0.0000 C   0  0  0  0  0  0  0  0  0  0  0  0
    6.0728   -9.1662    0.0000 C   0  0  0  0  0  0  0  0  0  0  0  0
    6.7868   -9.5770    0.0000 C   0  0  0  0  0  0  0  0  0  0  0  0
    7.5073   -9.1656    0.0000 C   0  0  0  0  0  0  0  0  0  0  0  0
    6.7849   -7.9226    0.0000 C   0  0  0  0  0  0  0  0  0  0  0  0
    8.2233   -9.5755    0.0000 C   0  0  0  0  0  0  0  0  0  0  0  0
    8.9385   -9.1643    0.0000 C   0  0  0  0  0  0  0  0  0  0  0  0
    9.6544   -9.5742    0.0000 C   0  0  0  0  0  0  0  0  0  0  0  0
    9.6499  -10.4008    0.0000 C   0  0  0  0  0  0  0  0  0  0  0  0
   10.3605  -10.8151    0.0000 C   0  0  0  0  0  0  0  0  0  0  0  0
   11.0767  -10.3994    0.0000 C   0  0  0  0  0  0  0  0  0  0  0  0
   11.0733   -9.5695    0.0000 C   0  0  0  0  0  0  0  0  0  0  0  0
   10.3576   -9.1589    0.0000 C   0  0  0  0  0  0  0  0  0  0  0  0
    7.4941   -8.3288    0.0000 C   0  0  0  0  0  0  0  0  0  0  0  0
    6.7833   -7.0970    0.0000 O   0  0  0  0  0  0  0  0  0  0  0  0
    7.4981   -6.6806    0.0000 C   0  0  0  0  0  0  0  0  0  0  0  0
   10.3535   -8.3333    0.0000 O   0  0  0  0  0  0  0  0  0  0  0  0
   11.0670   -7.9193    0.0000 C   0  0  0  0  0  0  0  0  0  0  0  0
   11.7847   -8.3263    0.0000 C   0  0  0  0  0  0  0  0  0  0  0  0
   12.4983   -7.9122    0.0000 C   0  0  0  0  0  0  0  0  0  0  0  0
   13.2158   -8.3192    0.0000 C   0  0  0  0  0  0  0  0  0  0  0  0
   13.9294   -7.9052    0.0000 C   0  0  0  0  0  0  0  0  0  0  0  0
   16.0716   -8.3094    0.0000 C   0  0  0  0  0  0  0  0  0  0  0  0
   16.0712   -9.1343    0.0000 C   0  0  0  0  0  0  0  0  0  0  0  0
   16.7848   -9.5478    0.0000 C   0  0  0  0  0  0  0  0  0  0  0  0
   17.4995   -9.1328    0.0000 C   0  0  0  0  0  0  0  0  0  0  0  0
   17.4960   -8.3047    0.0000 C   0  0  0  0  0  0  0  0  0  0  0  0
   16.7817   -7.8995    0.0000 C   0  0  0  0  0  0  0  0  0  0  0  0
   18.2098   -7.8910    0.0000 O   0  0  0  0  0  0  0  0  0  0  0  0
   18.2160   -9.5462    0.0000 O   0  0  0  0  0  0  0  0  0  0  0  0
   18.9272   -8.2982    0.0000 C   0  0  0  0  0  0  0  0  0  0  0  0
   18.9306   -9.1294    0.0000 C   0  0  0  0  0  0  0  0  0  0  0  0
 17 12  1  0
  8 18  2  0
  9 18  1  0
  3 28  1  0
  9 19  1  0
  9  5  2  0
 19 20  1  0
 27  4  1  0
 17 21  1  0
  8 10  1  0
 21 22  1  0
  1  2  1  0
 22 23  1  0
 10 11  1  0
 23 24  1  0
 24 25  1  0
 11 12  1  0
 25 26  1  0
 26  1  1  0
  5  6  1  0
 12 13  2  0
 27 28  2  0
  1  4  1  0
 28 29  1  0
 13 14  1  0
 29 30  2  0
  6  7  2  0
 30 31  1  0
 14 15  2  0
 31 32  2  0
 32 27  1  0
  2  3  1  0
 31 33  1  0
 15 16  1  0
 30 34  1  0
  7  8  1  0
 33 35  1  0
 16 17  2  0
 34 36  1  0
M  END
>  <Classification>  (218) 
1

>  <pchembl>  (218) 
6.46

>  <InChI_steorem>  (218) 
InChI=1S/C31H39NO4/c1-33-28-12-9-10-24(20-28)14-15-25-11-5-6-13-29(25)36-19-8-4-7-17-32-18-16-26-21-30(34-2)31(35-3)22-27(26)23-32/h5-6,9-13,20-22H,4,7-8,14-19,23H2,1-3H3

>  <source>  (218) 
ChEMBL25

>  <source_id>  (218) 
25

>  <optional_reference>  (218) 
10.1021/jm800928j

>  <optional_origin>  (218) 
None

>  <target>  (218) 
MDR1

$$$$

     RDKit          2D

 36 39  0  0  0  0  0  0  0  0999 V2000
   14.9662    1.5222    0.0000 N   0  0  0  0  0  0  0  0  0  0  0  0
   14.9658    0.6993    0.0000 C   0  0  0  0  0  0  0  0  0  0  0  0
   15.6771    0.2884    0.0000 C   0  0  0  0  0  0  0  0  0  0  0  0
   16.3931    0.6990    0.0000 N   0  0  0  0  0  0  0  0  0  0  0  0
   16.3931    1.5250    0.0000 C   0  0  0  0  0  0  0  0  0  0  0  0
   15.6774    1.9404    0.0000 C   0  0  0  0  0  0  0  0  0  0  0  0
   17.1032    0.2891    0.0000 C   0  0  0  0  0  0  0  0  0  0  0  0
   17.1006   -0.5370    0.0000 C   0  0  0  0  0  0  0  0  0  0  0  0
   17.8136   -0.9505    0.0000 C   0  0  0  0  0  0  0  0  0  0  0  0
   18.5296   -0.5390    0.0000 C   0  0  0  0  0  0  0  0  0  0  0  0
   18.5282    0.2902    0.0000 C   0  0  0  0  0  0  0  0  0  0  0  0
   17.8146    0.6999    0.0000 C   0  0  0  0  0  0  0  0  0  0  0  0
    7.8313    1.5080    0.0000 C   0  0  0  0  0  0  0  0  0  0  0  0
    7.8299    0.6803    0.0000 C   0  0  0  0  0  0  0  0  0  0  0  0
    8.5429    0.2674    0.0000 C   0  0  0  0  0  0  0  0  0  0  0  0
    9.2622    0.6809    0.0000 C   0  0  0  0  0  0  0  0  0  0  0  0
    8.5410    1.9207    0.0000 C   0  0  0  0  0  0  0  0  0  0  0  0
    9.9771    0.2691    0.0000 C   0  0  0  0  0  0  0  0  0  0  0  0
   10.6912    0.6822    0.0000 C   0  0  0  0  0  0  0  0  0  0  0  0
   11.4060    0.2704    0.0000 C   0  0  0  0  0  0  0  0  0  0  0  0
   11.4015   -0.5557    0.0000 C   0  0  0  0  0  0  0  0  0  0  0  0
   12.1155   -0.9674    0.0000 C   0  0  0  0  0  0  0  0  0  0  0  0
   12.8305   -0.5542    0.0000 C   0  0  0  0  0  0  0  0  0  0  0  0
   12.8271    0.2750    0.0000 C   0  0  0  0  0  0  0  0  0  0  0  0
   12.1125    0.6831    0.0000 C   0  0  0  0  0  0  0  0  0  0  0  0
    9.2490    1.5125    0.0000 C   0  0  0  0  0  0  0  0  0  0  0  0
    8.5393    2.7457    0.0000 O   0  0  0  0  0  0  0  0  0  0  0  0
    9.2530    3.1596    0.0000 C   0  0  0  0  0  0  0  0  0  0  0  0
   12.1084    1.5081    0.0000 O   0  0  0  0  0  0  0  0  0  0  0  0
   12.8209    1.9241    0.0000 C   0  0  0  0  0  0  0  0  0  0  0  0
   13.5373    1.5151    0.0000 C   0  0  0  0  0  0  0  0  0  0  0  0
   14.2498    1.9311    0.0000 C   0  0  0  0  0  0  0  0  0  0  0  0
   17.8120   -1.7755    0.0000 C   0  0  0  0  0  0  0  0  0  0  0  0
   17.8061   -2.5987    0.0000 F   0  0  0  0  0  0  0  0  0  0  0  0
   18.6370   -1.7793    0.0000 F   0  0  0  0  0  0  0  0  0  0  0  0
   16.9870   -1.7735    0.0000 F   0  0  0  0  0  0  0  0  0  0  0  0
  8  9  2  0
 16 18  1  0
  2  3  1  0
 18 19  1  0
  9 10  1  0
 19 20  1  0
  3  4  1  0
 20 21  2  0
 10 11  2  0
 21 22  1  0
  4  5  1  0
 22 23  2  0
 11 12  1  0
 23 24  1  0
 12  7  2  0
 24 25  2  0
 25 20  1  0
  4  7  1  0
 17 26  2  0
  5  6  1  0
 17 27  1  0
  1  2  1  0
 27 28  1  0
 13 14  2  0
 25 29  1  0
 29 30  1  0
 14 15  1  0
 30 31  1  0
  7  8  1  0
 31 32  1  0
 32  1  1  0
 15 16  2  0
  9 33  1  0
 16 26  1  0
 33 34  1  0
  1  6  1  0
 33 35  1  0
 17 13  1  0
 33 36  1  0
M  END
>  <Classification>  (219) 
1

>  <pchembl>  (219) 
5.19

>  <InChI_steorem>  (219) 
InChI=1S/C29H33F3N2O2/c1-35-27-11-4-7-23(21-27)13-14-24-8-2-3-12-28(24)36-20-6-15-33-16-18-34(19-17-33)26-10-5-9-25(22-26)29(30,31)32/h2-5,7-12,21-22H,6,13-20H2,1H3

>  <source>  (219) 
ChEMBL25

>  <source_id>  (219) 
25

>  <optional_reference>  (219) 
10.1021/jm800928j

>  <optional_origin>  (219) 
None

>  <target>  (219) 
MDR1

$$$$

     RDKit          2D

 36 39  0  0  0  0  0  0  0  0999 V2000
   15.2674  -24.3200    0.0000 N   0  0  0  0  0  0  0  0  0  0  0  0
   15.2670  -25.1429    0.0000 C   0  0  0  0  0  0  0  0  0  0  0  0
   15.9782  -25.5537    0.0000 C   0  0  0  0  0  0  0  0  0  0  0  0
   16.6942  -25.1431    0.0000 N   0  0  0  0  0  0  0  0  0  0  0  0
   16.6943  -24.3171    0.0000 C   0  0  0  0  0  0  0  0  0  0  0  0
   15.9784  -23.9018    0.0000 C   0  0  0  0  0  0  0  0  0  0  0  0
   17.4042  -25.5531    0.0000 C   0  0  0  0  0  0  0  0  0  0  0  0
   17.4017  -26.3791    0.0000 C   0  0  0  0  0  0  0  0  0  0  0  0
   18.1147  -26.7926    0.0000 C   0  0  0  0  0  0  0  0  0  0  0  0
   18.8307  -26.3811    0.0000 C   0  0  0  0  0  0  0  0  0  0  0  0
   18.8293  -25.5519    0.0000 C   0  0  0  0  0  0  0  0  0  0  0  0
   18.1157  -25.1421    0.0000 C   0  0  0  0  0  0  0  0  0  0  0  0
    6.7036  -24.3412    0.0000 C   0  0  0  0  0  0  0  0  0  0  0  0
    6.7023  -25.1688    0.0000 C   0  0  0  0  0  0  0  0  0  0  0  0
    7.4153  -25.5818    0.0000 C   0  0  0  0  0  0  0  0  0  0  0  0
    8.1346  -25.1683    0.0000 C   0  0  0  0  0  0  0  0  0  0  0  0
    7.4133  -23.9285    0.0000 C   0  0  0  0  0  0  0  0  0  0  0  0
    8.8494  -25.5801    0.0000 C   0  0  0  0  0  0  0  0  0  0  0  0
    9.5635  -25.1670    0.0000 C   0  0  0  0  0  0  0  0  0  0  0  0
   10.2783  -25.5788    0.0000 C   0  0  0  0  0  0  0  0  0  0  0  0
   10.2738  -26.4049    0.0000 C   0  0  0  0  0  0  0  0  0  0  0  0
   10.9878  -26.8166    0.0000 C   0  0  0  0  0  0  0  0  0  0  0  0
   11.7027  -26.4033    0.0000 C   0  0  0  0  0  0  0  0  0  0  0  0
   11.6993  -25.5742    0.0000 C   0  0  0  0  0  0  0  0  0  0  0  0
   10.9848  -25.1661    0.0000 C   0  0  0  0  0  0  0  0  0  0  0  0
    8.1214  -24.3367    0.0000 C   0  0  0  0  0  0  0  0  0  0  0  0
    7.4117  -23.1036    0.0000 O   0  0  0  0  0  0  0  0  0  0  0  0
    8.1253  -22.6896    0.0000 C   0  0  0  0  0  0  0  0  0  0  0  0
   10.9807  -24.3411    0.0000 O   0  0  0  0  0  0  0  0  0  0  0  0
   11.6932  -23.9251    0.0000 C   0  0  0  0  0  0  0  0  0  0  0  0
   12.4096  -24.3341    0.0000 C   0  0  0  0  0  0  0  0  0  0  0  0
   13.1220  -23.9181    0.0000 C   0  0  0  0  0  0  0  0  0  0  0  0
   13.8384  -24.3270    0.0000 C   0  0  0  0  0  0  0  0  0  0  0  0
   14.5509  -23.9110    0.0000 C   0  0  0  0  0  0  0  0  0  0  0  0
   16.6861  -26.7899    0.0000 O   0  0  0  0  0  0  0  0  0  0  0  0
   16.6840  -27.6148    0.0000 C   0  0  0  0  0  0  0  0  0  0  0  0
  8  9  2  0
 16 18  1  0
  2  3  1  0
 18 19  1  0
  9 10  1  0
 19 20  1  0
  3  4  1  0
 20 21  2  0
 10 11  2  0
 21 22  1  0
  4  5  1  0
 22 23  2  0
 11 12  1  0
 23 24  1  0
 12  7  2  0
 24 25  2  0
 25 20  1  0
  4  7  1  0
 17 26  2  0
  5  6  1  0
 17 27  1  0
  1  2  1  0
 27 28  1  0
 13 14  2  0
 25 29  1  0
 29 30  1  0
 14 15  1  0
 30 31  1  0
  7  8  1  0
 31 32  1  0
 15 16  2  0
 32 33  1  0
 16 26  1  0
 33 34  1  0
 34  1  1  0
  1  6  1  0
  8 35  1  0
 17 13  1  0
 35 36  1  0
M  END
>  <Classification>  (220) 
1

>  <pchembl>  (220) 
5.9

>  <InChI_steorem>  (220) 
InChI=1S/C31H40N2O3/c1-34-28-13-10-11-26(25-28)17-18-27-12-4-6-15-30(27)36-24-9-3-8-19-32-20-22-33(23-21-32)29-14-5-7-16-31(29)35-2/h4-7,10-16,25H,3,8-9,17-24H2,1-2H3

>  <source>  (220) 
ChEMBL25

>  <source_id>  (220) 
25

>  <optional_reference>  (220) 
10.1021/jm800928j

>  <optional_origin>  (220) 
None

>  <target>  (220) 
MDR1

$$$$

     RDKit          2D

 37 40  0  0  0  0  0  0  0  0999 V2000
    3.0013   -7.1824    0.0000 N   0  0  0  0  0  0  0  0  0  0  0  0
    3.7148   -7.5924    0.0000 C   0  0  0  0  0  0  0  0  0  0  0  0
    4.4250   -7.1799    0.0000 C   0  0  0  0  0  0  0  0  0  0  0  0
    4.4253   -6.3545    0.0000 N   0  0  0  0  0  0  0  0  0  0  0  0
    3.7090   -5.9433    0.0000 C   0  0  0  0  0  0  0  0  0  0  0  0
    2.9925   -6.3576    0.0000 C   0  0  0  0  0  0  0  0  0  0  0  0
    5.1343   -5.9427    0.0000 C   0  0  0  0  0  0  0  0  0  0  0  0
    5.8495   -6.3560    0.0000 C   0  0  0  0  0  0  0  0  0  0  0  0
    6.5629   -5.9434    0.0000 C   0  0  0  0  0  0  0  0  0  0  0  0
    6.5625   -5.1176    0.0000 C   0  0  0  0  0  0  0  0  0  0  0  0
    5.8425   -4.7061    0.0000 C   0  0  0  0  0  0  0  0  0  0  0  0
    5.1320   -5.1211    0.0000 C   0  0  0  0  0  0  0  0  0  0  0  0
   -4.8460   -7.6126    0.0000 C   0  0  0  0  0  0  0  0  0  0  0  0
   -4.8473   -8.4402    0.0000 C   0  0  0  0  0  0  0  0  0  0  0  0
   -4.1343   -8.8531    0.0000 C   0  0  0  0  0  0  0  0  0  0  0  0
   -3.4151   -8.4397    0.0000 C   0  0  0  0  0  0  0  0  0  0  0  0
   -4.1363   -7.1998    0.0000 C   0  0  0  0  0  0  0  0  0  0  0  0
   -2.7002   -8.8515    0.0000 C   0  0  0  0  0  0  0  0  0  0  0  0
   -1.9861   -8.4384    0.0000 C   0  0  0  0  0  0  0  0  0  0  0  0
   -1.2713   -8.8502    0.0000 C   0  0  0  0  0  0  0  0  0  0  0  0
   -1.2758   -9.6762    0.0000 C   0  0  0  0  0  0  0  0  0  0  0  0
   -0.5619  -10.0880    0.0000 C   0  0  0  0  0  0  0  0  0  0  0  0
    0.1531   -9.6747    0.0000 C   0  0  0  0  0  0  0  0  0  0  0  0
    0.1497   -8.8455    0.0000 C   0  0  0  0  0  0  0  0  0  0  0  0
   -0.5648   -8.4375    0.0000 C   0  0  0  0  0  0  0  0  0  0  0  0
   -3.4283   -7.6081    0.0000 C   0  0  0  0  0  0  0  0  0  0  0  0
   -4.1380   -6.3748    0.0000 O   0  0  0  0  0  0  0  0  0  0  0  0
   -3.4243   -5.9610    0.0000 C   0  0  0  0  0  0  0  0  0  0  0  0
   -0.5689   -7.6125    0.0000 O   0  0  0  0  0  0  0  0  0  0  0  0
    0.1435   -7.1965    0.0000 C   0  0  0  0  0  0  0  0  0  0  0  0
    0.8600   -7.6055    0.0000 C   0  0  0  0  0  0  0  0  0  0  0  0
    1.5724   -7.1895    0.0000 C   0  0  0  0  0  0  0  0  0  0  0  0
    2.2888   -7.5984    0.0000 C   0  0  0  0  0  0  0  0  0  0  0  0
    7.2777   -6.3555    0.0000 C   0  0  0  0  0  0  0  0  0  0  0  0
    7.9839   -6.7648    0.0000 F   0  0  0  0  0  0  0  0  0  0  0  0
    7.6905   -5.6412    0.0000 F   0  0  0  0  0  0  0  0  0  0  0  0
    6.8725   -7.0740    0.0000 F   0  0  0  0  0  0  0  0  0  0  0  0
 16 18  1  0
  2  3  1  0
 18 19  1  0
  9 10  2  0
 19 20  1  0
  3  4  1  0
 20 21  2  0
 10 11  1  0
 21 22  1  0
  4  5  1  0
 22 23  2  0
 11 12  2  0
 23 24  1  0
 12  7  1  0
 24 25  2  0
 25 20  1  0
  4  7  1  0
 17 26  2  0
  5  6  1  0
 17 27  1  0
  1  2  1  0
 27 28  1  0
 13 14  2  0
 25 29  1  0
 29 30  1  0
 14 15  1  0
 30 31  1  0
  7  8  2  0
 31 32  1  0
 15 16  2  0
 32 33  1  0
 33  1  1  0
 16 26  1  0
  9 34  1  0
  1  6  1  0
 34 35  1  0
 17 13  1  0
 34 36  1  0
  8  9  1  0
 34 37  1  0
M  END
>  <Classification>  (221) 
1

>  <pchembl>  (221) 
6.12

>  <InChI_steorem>  (221) 
InChI=1S/C30H35F3N2O2/c1-36-28-12-6-8-24(22-28)14-15-25-9-2-3-13-29(25)37-21-5-4-16-34-17-19-35(20-18-34)27-11-7-10-26(23-27)30(31,32)33/h2-3,6-13,22-23H,4-5,14-21H2,1H3

>  <source>  (221) 
ChEMBL25

>  <source_id>  (221) 
25

>  <optional_reference>  (221) 
10.1021/jm800928j

>  <optional_origin>  (221) 
None

>  <target>  (221) 
MDR1

$$$$

     RDKit          2D

 40 46  0  0  0  0  0  0  0  0999 V2000
   -0.9541  -20.5146    0.0000 C   0  0  0  0  0  0  0  0  0  0  0  0
   -0.9541  -18.8584    0.0000 C   0  0  0  0  0  0  0  0  0  0  0  0
   -1.6688  -20.1047    0.0000 C   0  0  0  0  0  0  0  0  0  0  0  0
   -1.6688  -19.2766    0.0000 C   0  0  0  0  0  0  0  0  0  0  0  0
   -3.0997  -20.1047    0.0000 C   0  0  0  0  0  0  0  0  0  0  0  0
   -2.3819  -20.5210    0.0000 O   0  0  0  0  0  0  0  0  0  0  0  0
   -0.2394  -19.2766    0.0000 C   0  0  0  0  0  0  0  0  0  0  0  0
   -0.2383  -20.1047    0.0000 C   0  0  0  0  0  0  0  0  0  0  0  0
    1.1916  -19.2747    0.0000 C   0  0  0  0  0  0  0  0  0  0  0  0
    0.4733  -18.8594    0.0000 O   0  0  0  0  0  0  0  0  0  0  0  0
   -0.9541  -18.0302    0.0000 O   0  0  0  0  0  0  0  0  0  0  0  0
   -0.9543  -21.3427    0.0000 O   0  0  0  0  0  0  0  0  0  0  0  0
    1.7734  -18.6827    0.0000 C   0  0  0  0  0  0  0  0  0  0  0  0
    2.0745  -19.6614    0.0000 C   0  0  0  0  0  0  0  0  0  0  0  0
   -3.6931  -20.6902    0.0000 C   0  0  0  0  0  0  0  0  0  0  0  0
   -3.8227  -19.6907    0.0000 C   0  0  0  0  0  0  0  0  0  0  0  0
   -3.0997  -19.2766    0.0000 C   0  0  0  0  0  0  0  0  0  0  0  0
   -2.3854  -18.8640    0.0000 C   0  0  0  0  0  0  0  0  0  0  0  0
   -3.8127  -18.0421    0.0000 O   0  0  0  0  0  0  0  0  0  0  0  0
   -3.8142  -18.8687    0.0000 C   0  0  0  0  0  0  0  0  0  0  0  0
    1.1927  -20.1028    0.0000 C   0  0  0  0  0  0  0  0  0  0  0  0
    0.4748  -20.5124    0.0000 C   0  0  0  0  0  0  0  0  0  0  0  0
    1.9002  -21.3433    0.0000 C   0  0  0  0  0  0  0  0  0  0  0  0
    1.9063  -20.5153    0.0000 O   0  0  0  0  0  0  0  0  0  0  0  0
   -3.0983  -17.6294    0.0000 C   0  0  0  0  0  0  0  0  0  0  0  0
   -2.3882  -18.0432    0.0000 C   0  0  0  0  0  0  0  0  0  0  0  0
   -1.6770  -17.6352    0.0000 C   0  0  0  0  0  0  0  0  0  0  0  0
   -1.6746  -16.8136    0.0000 C   0  0  0  0  0  0  0  0  0  0  0  0
   -2.3894  -16.4017    0.0000 C   0  0  0  0  0  0  0  0  0  0  0  0
   -3.0977  -16.8122    0.0000 C   0  0  0  0  0  0  0  0  0  0  0  0
    1.1824  -21.7528    0.0000 C   0  0  0  0  0  0  0  0  0  0  0  0
    0.4723  -21.3346    0.0000 C   0  0  0  0  0  0  0  0  0  0  0  0
   -0.2428  -21.7404    0.0000 C   0  0  0  0  0  0  0  0  0  0  0  0
   -0.2489  -22.5643    0.0000 C   0  0  0  0  0  0  0  0  0  0  0  0
    0.4659  -22.9806    0.0000 C   0  0  0  0  0  0  0  0  0  0  0  0
    1.1780  -22.5724    0.0000 C   0  0  0  0  0  0  0  0  0  0  0  0
   -3.8150  -16.3983    0.0000 Br  0  0  0  0  0  0  0  0  0  0  0  0
   -0.9570  -16.4003    0.0000 Br  0  0  0  0  0  0  0  0  0  0  0  0
    1.8934  -22.9895    0.0000 Br  0  0  0  0  0  0  0  0  0  0  0  0
   -0.9684  -22.9742    0.0000 Br  0  0  0  0  0  0  0  0  0  0  0  0
 25 19  1  0
 19 20  1  0
  4  2  1  0
  7 10  1  0
 21 22  1  0
  8 22  1  0
 21  9  1  0
  9 10  1  0
  3  1  1  0
 21 24  1  0
 22 32  1  0
 31 23  1  0
 23 24  1  0
  2 11  2  0
  1  8  1  0
  1 12  2  0
  3  6  1  0
 25 26  2  0
  9 13  1  0
 26 27  1  0
  4 18  1  0
 27 28  2  0
  9 14  1  0
 28 29  1  0
 17  5  1  0
 29 30  2  0
 30 25  1  0
  5 15  1  0
  5  6  1  0
 31 32  2  0
  5 16  1  0
 32 33  1  0
 17 18  1  0
 33 34  2  0
  7  8  2  0
 34 35  1  0
  7  2  1  0
 35 36  2  0
 36 31  1  0
  3  4  2  0
 30 37  1  0
 28 38  1  0
 17 20  1  0
 36 39  1  0
 18 26  1  0
 34 40  1  0
M  END
>  <Classification>  (222) 
1

>  <pchembl>  (222) 
6.0

>  <InChI_steorem>  (222) 
InChI=1S/C30H24Br4O6/c1-29(2)16-10-37-25-14(6-12(32)8-18(25)34)19(16)21-23(35)27-22(24(36)26(21)39-29)20-13-5-11(31)7-17(33)15(13)9-38-28(20)30(3,4)40-27/h5-8,16,19-20,28H,9-10H2,1-4H3

>  <source>  (222) 
ChEMBL25

>  <source_id>  (222) 
25

>  <optional_reference>  (222) 
10.1021/jm800403b

>  <optional_origin>  (222) 
None

>  <target>  (222) 
MDR1

$$$$

     RDKit          2D

 40 46  0  0  0  0  0  0  0  0999 V2000
   15.8842   -2.0201    0.0000 C   0  0  0  0  0  0  0  0  0  0  0  0
   15.8842   -0.3639    0.0000 C   0  0  0  0  0  0  0  0  0  0  0  0
   15.1695   -1.6103    0.0000 C   0  0  0  0  0  0  0  0  0  0  0  0
   15.1695   -0.7821    0.0000 C   0  0  0  0  0  0  0  0  0  0  0  0
   13.7385   -1.6103    0.0000 C   0  0  0  0  0  0  0  0  0  0  0  0
   14.4563   -2.0265    0.0000 O   0  0  0  0  0  0  0  0  0  0  0  0
   16.5989   -0.7821    0.0000 C   0  0  0  0  0  0  0  0  0  0  0  0
   17.3115   -0.3649    0.0000 O   0  0  0  0  0  0  0  0  0  0  0  0
   15.8842    0.4642    0.0000 O   0  0  0  0  0  0  0  0  0  0  0  0
   15.8840   -2.8482    0.0000 O   0  0  0  0  0  0  0  0  0  0  0  0
   13.1452   -2.1957    0.0000 C   0  0  0  0  0  0  0  0  0  0  0  0
   13.0156   -1.1962    0.0000 C   0  0  0  0  0  0  0  0  0  0  0  0
   13.7385   -0.7821    0.0000 C   0  0  0  0  0  0  0  0  0  0  0  0
   14.4529   -0.3695    0.0000 C   0  0  0  0  0  0  0  0  0  0  0  0
   13.0255    0.4524    0.0000 O   0  0  0  0  0  0  0  0  0  0  0  0
   13.0240   -0.3742    0.0000 C   0  0  0  0  0  0  0  0  0  0  0  0
   17.3130   -2.0179    0.0000 C   0  0  0  0  0  0  0  0  0  0  0  0
   18.7385   -2.8488    0.0000 O   0  0  0  0  0  0  0  0  0  0  0  0
   13.7399    0.8651    0.0000 C   0  0  0  0  0  0  0  0  0  0  0  0
   14.4501    0.4513    0.0000 C   0  0  0  0  0  0  0  0  0  0  0  0
   15.1613    0.8593    0.0000 C   0  0  0  0  0  0  0  0  0  0  0  0
   15.1637    1.6809    0.0000 C   0  0  0  0  0  0  0  0  0  0  0  0
   14.4489    2.0928    0.0000 C   0  0  0  0  0  0  0  0  0  0  0  0
   13.7405    1.6823    0.0000 C   0  0  0  0  0  0  0  0  0  0  0  0
   18.0207   -3.2583    0.0000 C   0  0  0  0  0  0  0  0  0  0  0  0
   17.3105   -2.8401    0.0000 C   0  0  0  0  0  0  0  0  0  0  0  0
   14.4479    2.9209    0.0000 O   0  0  0  0  0  0  0  0  0  0  0  0
   15.1646    3.3357    0.0000 C   0  0  0  0  0  0  0  0  0  0  0  0
   16.5915   -1.6103    0.0000 C   0  0  0  0  0  0  0  0  0  0  0  0
   16.6010   -3.2625    0.0000 C   0  0  0  0  0  0  0  0  0  0  0  0
   18.0278   -1.6090    0.0000 C   0  0  0  0  0  0  0  0  0  0  0  0
   18.7445   -2.0208    0.0000 C   0  0  0  0  0  0  0  0  0  0  0  0
   19.4573   -1.6060    0.0000 C   0  0  0  0  0  0  0  0  0  0  0  0
   19.4546   -0.7797    0.0000 C   0  0  0  0  0  0  0  0  0  0  0  0
   18.7332   -0.3699    0.0000 C   0  0  0  0  0  0  0  0  0  0  0  0
   18.0233   -0.7871    0.0000 C   0  0  0  0  0  0  0  0  0  0  0  0
   20.1696   -0.3620    0.0000 O   0  0  0  0  0  0  0  0  0  0  0  0
   20.8889   -0.7723    0.0000 C   0  0  0  0  0  0  0  0  0  0  0  0
   16.1816   -3.9774    0.0000 C   0  0  0  0  0  0  0  0  0  0  0  0
   17.0097   -3.9774    0.0000 C   0  0  0  0  0  0  0  0  0  0  0  0
 18 32  1  0
 29 17  1  0
  2  9  2  0
  4  2  1  0
 19 20  2  0
  1 10  1  0
 20 21  1  0
  3  1  1  0
 21 22  2  0
  5 11  1  0
 22 23  1  0
  1 29  2  0
 23 24  2  0
 24 19  1  0
  5 12  1  0
 13 14  1  0
 25 26  1  0
 26 30  1  0
  3  6  1  0
 23 27  1  0
  4 14  1  0
 27 28  1  0
 13  5  1  0
  7 29  1  0
  5  6  1  0
 10 30  1  0
 13 16  1  0
 14 20  1  0
 19 15  1  0
 31 32  2  0
 15 16  1  0
 32 33  1  0
  7  2  1  0
 33 34  2  0
 34 35  1  0
 31 17  1  0
 35 36  2  0
 36 31  1  0
  3  4  2  0
 34 37  1  0
  7  8  2  0
 37 38  1  0
 17 26  1  0
 30 39  1  0
 25 18  1  0
 30 40  1  0
M  END
>  <Classification>  (223) 
1

>  <pchembl>  (223) 
6.38

>  <InChI_steorem>  (223) 
InChI=1S/C32H32O8/c1-31(2)19-13-37-21-11-15(35-5)7-9-17(21)23(19)25-27(33)28(34)26-24-18-10-8-16(36-6)12-22(18)38-14-20(24)32(3,4)40-30(26)29(25)39-31/h7-12,19-20,23-24H,13-14H2,1-6H3

>  <source>  (223) 
ChEMBL25

>  <source_id>  (223) 
25

>  <optional_reference>  (223) 
10.1021/jm800403b

>  <optional_origin>  (223) 
None

>  <target>  (223) 
MDR1

$$$$

     RDKit          2D

 40 46  0  0  0  0  0  0  0  0999 V2000
   -1.9831  -10.0843    0.0000 C   0  0  0  0  0  0  0  0  0  0  0  0
   -1.9831   -8.4280    0.0000 C   0  0  0  0  0  0  0  0  0  0  0  0
   -2.6978   -9.6744    0.0000 C   0  0  0  0  0  0  0  0  0  0  0  0
   -2.6978   -8.8463    0.0000 C   0  0  0  0  0  0  0  0  0  0  0  0
   -4.1289   -9.6744    0.0000 C   0  0  0  0  0  0  0  0  0  0  0  0
   -3.4110  -10.0908    0.0000 O   0  0  0  0  0  0  0  0  0  0  0  0
   -1.2683   -8.8463    0.0000 C   0  0  0  0  0  0  0  0  0  0  0  0
   -1.2672   -9.6744    0.0000 C   0  0  0  0  0  0  0  0  0  0  0  0
    0.1627   -8.8445    0.0000 C   0  0  0  0  0  0  0  0  0  0  0  0
   -0.5556   -8.4290    0.0000 O   0  0  0  0  0  0  0  0  0  0  0  0
   -1.9831   -7.5998    0.0000 O   0  0  0  0  0  0  0  0  0  0  0  0
   -1.9833  -10.9125    0.0000 O   0  0  0  0  0  0  0  0  0  0  0  0
    0.7445   -8.2523    0.0000 C   0  0  0  0  0  0  0  0  0  0  0  0
    1.0457   -9.2310    0.0000 C   0  0  0  0  0  0  0  0  0  0  0  0
   -4.7222  -10.2600    0.0000 C   0  0  0  0  0  0  0  0  0  0  0  0
   -4.8518   -9.2604    0.0000 C   0  0  0  0  0  0  0  0  0  0  0  0
   -4.1289   -8.8463    0.0000 C   0  0  0  0  0  0  0  0  0  0  0  0
   -3.4144   -8.4337    0.0000 C   0  0  0  0  0  0  0  0  0  0  0  0
   -4.8419   -7.6117    0.0000 O   0  0  0  0  0  0  0  0  0  0  0  0
   -4.8434   -8.4384    0.0000 C   0  0  0  0  0  0  0  0  0  0  0  0
    0.1638   -9.6726    0.0000 C   0  0  0  0  0  0  0  0  0  0  0  0
   -0.5541  -10.0821    0.0000 C   0  0  0  0  0  0  0  0  0  0  0  0
    0.8714  -10.9132    0.0000 C   0  0  0  0  0  0  0  0  0  0  0  0
    0.8774  -10.0850    0.0000 O   0  0  0  0  0  0  0  0  0  0  0  0
   -4.1275   -7.1991    0.0000 C   0  0  0  0  0  0  0  0  0  0  0  0
   -3.4172   -7.6129    0.0000 C   0  0  0  0  0  0  0  0  0  0  0  0
   -2.7060   -7.2048    0.0000 C   0  0  0  0  0  0  0  0  0  0  0  0
   -2.7036   -6.3832    0.0000 C   0  0  0  0  0  0  0  0  0  0  0  0
   -3.4185   -5.9713    0.0000 C   0  0  0  0  0  0  0  0  0  0  0  0
   -4.1269   -6.3817    0.0000 C   0  0  0  0  0  0  0  0  0  0  0  0
    0.1536  -11.3226    0.0000 C   0  0  0  0  0  0  0  0  0  0  0  0
   -0.5566  -10.9044    0.0000 C   0  0  0  0  0  0  0  0  0  0  0  0
   -1.2718  -11.3103    0.0000 C   0  0  0  0  0  0  0  0  0  0  0  0
   -1.2779  -12.1341    0.0000 C   0  0  0  0  0  0  0  0  0  0  0  0
   -0.5630  -12.5505    0.0000 C   0  0  0  0  0  0  0  0  0  0  0  0
    0.1492  -12.1423    0.0000 C   0  0  0  0  0  0  0  0  0  0  0  0
   -3.4195   -5.1431    0.0000 O   0  0  0  0  0  0  0  0  0  0  0  0
   -2.7027   -4.7282    0.0000 C   0  0  0  0  0  0  0  0  0  0  0  0
   -0.5659  -13.3787    0.0000 O   0  0  0  0  0  0  0  0  0  0  0  0
   -1.2845  -13.7902    0.0000 C   0  0  0  0  0  0  0  0  0  0  0  0
 25 19  1  0
 19 20  1  0
  4  2  1  0
  7 10  1  0
 21 22  1  0
  8 22  1  0
 21  9  1  0
  9 10  1  0
  3  1  1  0
 21 24  1  0
 22 32  1  0
 31 23  1  0
 23 24  1  0
  2 11  2  0
  1  8  1  0
  1 12  2  0
  3  6  1  0
 25 26  2  0
  9 13  1  0
 26 27  1  0
  4 18  1  0
 27 28  2  0
  9 14  1  0
 28 29  1  0
 17  5  1  0
 29 30  2  0
 30 25  1  0
  5 15  1  0
  5  6  1  0
 31 32  2  0
  5 16  1  0
 32 33  1  0
 17 18  1  0
 33 34  2  0
  7  8  2  0
 34 35  1  0
  7  2  1  0
 35 36  2  0
 36 31  1  0
  3  4  2  0
 29 37  1  0
 37 38  1  0
 17 20  1  0
 35 39  1  0
 18 26  1  0
 39 40  1  0
M  END
>  <Classification>  (224) 
1

>  <pchembl>  (224) 
6.29

>  <InChI_steorem>  (224) 
InChI=1S/C32H32O8/c1-31(2)20-14-37-21-12-17(36-6)8-10-19(21)22(20)24-26(33)29-25(27(34)28(24)39-31)23-18-9-7-16(35-5)11-15(18)13-38-30(23)32(3,4)40-29/h7-12,20,22-23,30H,13-14H2,1-6H3

>  <source>  (224) 
ChEMBL25

>  <source_id>  (224) 
25

>  <optional_reference>  (224) 
10.1021/jm800403b

>  <optional_origin>  (224) 
None

>  <target>  (224) 
MDR1

$$$$

     RDKit          2D

 48 53  0  0  0  0  0  0  0  0999 V2000
   -2.6856  -19.4163    0.0000 C   0  0  0  0  0  0  0  0  0  0  0  0
   -1.9781  -19.0116    0.0000 C   0  0  0  0  0  0  0  0  0  0  0  0
   -1.2610  -19.4292    0.0000 C   0  0  0  0  0  0  0  0  0  0  0  0
   -1.2682  -20.2509    0.0000 N   0  0  0  0  0  0  0  0  0  0  0  0
   -2.6913  -20.2357    0.0000 C   0  0  0  0  0  0  0  0  0  0  0  0
   -1.9886  -20.6522    0.0000 C   0  0  0  0  0  0  0  0  0  0  0  0
   -1.9981  -21.4696    0.0000 C   0  0  0  0  0  0  0  0  0  0  0  0
   -2.7090  -21.8721    0.0000 C   0  0  0  0  0  0  0  0  0  0  0  0
   -3.4168  -21.4480    0.0000 C   0  0  0  0  0  0  0  0  0  0  0  0
   -3.4021  -20.6326    0.0000 C   0  0  0  0  0  0  0  0  0  0  0  0
   -1.9538  -16.5422    0.0000 C   0  0  0  0  0  0  0  0  0  0  0  0
   -1.9545  -15.7098    0.0000 C   0  0  0  0  0  0  0  0  0  0  0  0
   -2.6740  -15.3048    0.0000 C   0  0  0  0  0  0  0  0  0  0  0  0
   -3.3815  -15.7184    0.0000 C   0  0  0  0  0  0  0  0  0  0  0  0
   -2.6622  -16.9522    0.0000 C   0  0  0  0  0  0  0  0  0  0  0  0
   -3.3698  -16.5520    0.0000 C   0  0  0  0  0  0  0  0  0  0  0  0
   -1.9626  -18.1953    0.0000 C   0  0  0  0  0  0  0  0  0  0  0  0
   -1.2367  -17.7870    0.0000 O   0  0  0  0  0  0  0  0  0  0  0  0
   -4.0982  -16.9552    0.0000 C   0  0  0  0  0  0  0  0  0  0  0  0
   -4.8013  -16.5305    0.0000 O   0  0  0  0  0  0  0  0  0  0  0  0
   -4.1097  -17.7734    0.0000 O   0  0  0  0  0  0  0  0  0  0  0  0
   -4.7878  -15.7122    0.0000 C   0  0  0  0  0  0  0  0  0  0  0  0
   -1.2344  -15.3071    0.0000 C   0  0  0  0  0  0  0  0  0  0  0  0
   -0.5295  -15.7271    0.0000 O   0  0  0  0  0  0  0  0  0  0  0  0
   -0.5015  -14.0816    0.0000 C   0  0  0  0  0  0  0  0  0  0  0  0
    0.1984  -14.4806    0.0000 C   0  0  0  0  0  0  0  0  0  0  0  0
    0.9184  -14.0642    0.0000 C   0  0  0  0  0  0  0  0  0  0  0  0
    0.9136  -13.2315    0.0000 C   0  0  0  0  0  0  0  0  0  0  0  0
    0.1944  -12.8244    0.0000 C   0  0  0  0  0  0  0  0  0  0  0  0
   -0.5169  -13.2401    0.0000 C   0  0  0  0  0  0  0  0  0  0  0  0
    1.6336  -12.8288    0.0000 C   0  0  0  0  0  0  0  0  0  0  0  0
    2.3385  -13.2530    0.0000 C   0  0  0  0  0  0  0  0  0  0  0  0
    3.0751  -12.8429    0.0000 N   0  0  0  0  0  0  0  0  0  0  0  0
    3.7764  -13.2607    0.0000 C   0  0  0  0  0  0  0  0  0  0  0  0
    3.8038  -11.6022    0.0000 C   0  0  0  0  0  0  0  0  0  0  0  0
    3.0762  -12.0047    0.0000 C   0  0  0  0  0  0  0  0  0  0  0  0
    4.5110  -12.0301    0.0000 C   0  0  0  0  0  0  0  0  0  0  0  0
    4.4971  -12.8554    0.0000 C   0  0  0  0  0  0  0  0  0  0  0  0
    5.1990  -13.2819    0.0000 C   0  0  0  0  0  0  0  0  0  0  0  0
    5.9230  -12.8860    0.0000 C   0  0  0  0  0  0  0  0  0  0  0  0
    5.9359  -12.0547    0.0000 C   0  0  0  0  0  0  0  0  0  0  0  0
    5.2330  -11.6337    0.0000 C   0  0  0  0  0  0  0  0  0  0  0  0
    6.6317  -13.3108    0.0000 O   0  0  0  0  0  0  0  0  0  0  0  0
    6.6159  -14.1355    0.0000 C   0  0  0  0  0  0  0  0  0  0  0  0
    6.6561  -11.6519    0.0000 O   0  0  0  0  0  0  0  0  0  0  0  0
    7.3648  -12.0767    0.0000 C   0  0  0  0  0  0  0  0  0  0  0  0
   -2.6737  -17.7771    0.0000 N   0  0  0  0  0  0  0  0  0  0  0  0
   -1.2228  -14.4822    0.0000 N   0  0  0  0  0  0  0  0  0  0  0  0
  2  3  2  0
  3  4  1  0
  4  6  2  0
  5  1  2  0
  5  6  1  0
  6  7  1  0
  7  8  2  0
  8  9  1  0
  9 10  2  0
 10  5  1  0
 15 11  2  0
 11 12  1  0
 12 13  2  0
 13 14  1  0
 14 16  2  0
 15 16  1  0
 17  2  1  0
 17 18  2  0
 19 20  1  0
 19 21  2  0
 16 19  1  0
 20 22  1  0
 12 23  1  0
 23 24  2  0
 25 26  2  0
 26 27  1  0
 27 28  2  0
 28 29  1  0
 29 30  2  0
 30 25  1  0
 28 31  1  0
 31 32  1  0
 32 33  1  0
 33 34  1  0
 33 36  1  0
 34 38  1  0
 37 35  1  0
 35 36  1  0
 37 38  2  0
 38 39  1  0
 39 40  2  0
 40 41  1  0
 41 42  2  0
 42 37  1  0
 40 43  1  0
 43 44  1  0
 41 45  1  0
 45 46  1  0
  1  2  1  0
 15 47  1  0
 47 17  1  0
 23 48  1  0
 48 25  1  0
M  END
>  <Classification>  (225) 
1

>  <pchembl>  (225) 
5.03

>  <InChI_steorem>  (225) 
InChI=1S/C38H36N4O6/c1-46-34-20-25-15-17-42(23-29(25)21-35(34)47-2)16-14-24-8-11-30(12-9-24)40-36(43)27-10-13-31(38(45)48-3)33(19-27)41-37(44)28-18-26-6-4-5-7-32(26)39-22-28/h4-13,18-22H,14-17,23H2,1-3H3,(H,40,43)(H,41,44)

>  <source>  (225) 
ChEMBL25

>  <source_id>  (225) 
25

>  <optional_reference>  (225) 
10.1021/jm8013822

>  <optional_origin>  (225) 
None

>  <target>  (225) 
MDR1

$$$$

     RDKit          2D

 51 53  0  0  0  0  0  0  0  0999 V2000
    3.1579   -8.5506    0.0000 C   0  0  0  0  0  0  0  0  0  0  0  0
    0.5150   -7.2729    0.0000 C   0  0  0  0  0  0  0  0  0  0  0  0
   -0.9037   -7.2778    0.0000 C   0  0  0  0  0  0  0  0  0  0  0  0
   -1.6178   -5.2228    0.0000 C   0  0  0  0  0  0  0  0  0  0  0  0
   -0.1895   -7.6860    0.0000 C   0  0  0  0  0  0  0  0  0  0  0  0
    2.7450   -9.2600    0.0000 C   0  0  0  0  0  0  0  0  0  0  0  0
    1.2292   -6.0389    0.0000 C   0  0  0  0  0  0  0  0  0  0  0  0
    0.5150   -6.4471    0.0000 C   0  0  0  0  0  0  0  0  0  0  0  0
   -0.9037   -3.9985    0.0000 C   0  0  0  0  0  0  0  0  0  0  0  0
   -0.9037   -6.4568    0.0000 O   0  0  0  0  0  0  0  0  0  0  0  0
   -0.9037   -4.8146    0.0000 C   0  0  0  0  0  0  0  0  0  0  0  0
   -0.1991   -3.5854    0.0000 C   0  0  0  0  0  0  0  0  0  0  0  0
    3.1531   -7.4527    0.0000 O   0  0  0  0  0  0  0  0  0  0  0  0
   -1.1028  -10.8633    0.0000 C   0  0  0  0  0  0  0  0  0  0  0  0
    1.9239   -9.2600    0.0000 C   0  0  0  0  0  0  0  0  0  0  0  0
    1.2292   -5.2228    0.0000 C   0  0  0  0  0  0  0  0  0  0  0  0
    0.1360  -10.1539    0.0000 C   0  0  0  0  0  0  0  0  0  0  0  0
   -0.2720  -10.8633    0.0000 C   0  0  0  0  0  0  0  0  0  0  0  0
    2.7450   -7.8364    0.0000 O   0  0  0  0  0  0  0  0  0  0  0  0
   -0.2720   -9.4397    0.0000 O   0  0  0  0  0  0  0  0  0  0  0  0
   -1.6178   -6.0486    0.0000 C   0  0  0  0  0  0  0  0  0  0  0  0
   -1.5158  -10.1539    0.0000 C   0  0  0  0  0  0  0  0  0  0  0  0
    1.2340   -7.6811    0.0000 O   0  0  0  0  0  0  0  0  0  0  0  0
   -1.1028   -9.4397    0.0000 C   0  0  0  0  0  0  0  0  0  0  0  0
    0.5150   -3.9935    0.0000 C   0  0  0  0  0  0  0  0  0  0  0  0
    0.5150   -4.8146    0.0000 C   0  0  0  0  0  0  0  0  0  0  0  0
    1.5061   -8.5506    0.0000 C   0  0  0  0  0  0  0  0  0  0  0  0
    1.5109   -9.9790    0.0000 N   0  0  0  0  0  0  0  0  0  0  0  0
   -1.6227   -7.6907    0.0000 O   0  0  0  0  0  0  0  0  0  0  0  0
    1.9239   -7.8364    0.0000 C   0  0  0  0  0  0  0  0  0  0  0  0
   -0.1991   -2.7595    0.0000 O   0  0  0  0  0  0  0  0  0  0  0  0
   -2.0356   -4.5037    0.0000 O   0  0  0  0  0  0  0  0  0  0  0  0
    3.1628   -9.9790    0.0000 O   0  0  0  0  0  0  0  0  0  0  0  0
    1.6373   -4.5037    0.0000 O   0  0  0  0  0  0  0  0  0  0  0  0
   -0.1944   -5.2325    0.0000 O   0  0  0  0  0  0  0  0  0  0  0  0
   -1.8169  -11.2714    0.0000 O   0  0  0  0  0  0  0  0  0  0  0  0
   -2.3417  -10.1539    0.0000 O   0  0  0  0  0  0  0  0  0  0  0  0
   -2.4437   -5.2228    0.0000 C   0  0  0  0  0  0  0  0  0  0  0  0
   -0.1895   -8.5119    0.0000 C   0  0  0  0  0  0  0  0  0  0  0  0
   -0.1991   -6.0340    0.0000 C   0  0  0  0  0  0  0  0  0  0  0  0
   -1.6227   -3.5854    0.0000 C   0  0  0  0  0  0  0  0  0  0  0  0
   -1.1028  -11.6940    0.0000 C   0  0  0  0  0  0  0  0  0  0  0  0
    2.0600   -5.2228    0.0000 C   0  0  0  0  0  0  0  0  0  0  0  0
   -2.3369   -6.4617    0.0000 C   0  0  0  0  0  0  0  0  0  0  0  0
   -1.5109   -8.7208    0.0000 C   0  0  0  0  0  0  0  0  0  0  0  0
    1.2340   -3.5758    0.0000 C   0  0  0  0  0  0  0  0  0  0  0  0
    0.6850   -9.9790    0.0000 C   0  0  0  0  0  0  0  0  0  0  0  0
    1.9239  -10.6932    0.0000 C   0  0  0  0  0  0  0  0  0  0  0  0
    1.5109   -7.1175    0.0000 C   0  0  0  0  0  0  0  0  0  0  0  0
   -2.5312  -10.8534    0.0000 C   0  0  0  0  0  0  0  0  0  0  0  0
   -3.0510   -6.0486    0.0000 C   0  0  0  0  0  0  0  0  0  0  0  0
  2  8  1  0
  3  5  1  0
  4 11  1  0
  5  2  1  0
  6  1  1  0
  7 13  1  0
  8  7  1  0
  9 12  1  0
 10  3  1  0
 11  9  1  0
 12 25  1  0
 13  1  1  0
 14 18  1  0
 15  6  1  0
 16  7  1  0
 17 23  1  0
 18 17  1  0
 19  1  1  0
 20 17  1  0
 21 10  1  0
 22 24  1  0
  2 23  1  0
 24 20  1  0
 25 26  1  0
 26 16  1  0
 27 30  1  0
 15 28  1  0
 29  3  2  0
 30 19  1  0
 31 12  2  0
  4 32  1  0
  6 33  1  0
 16 34  1  0
 11 35  1  0
 14 36  1  0
 22 37  1  0
 38  4  1  0
  5 39  1  0
  8 40  1  0
  9 41  1  0
 42 14  1  0
 43 16  1  0
 21 44  1  0
 24 45  1  0
 25 46  1  0
 47 28  1  0
 48 28  1  0
 30 49  1  0
 50 36  1  0
 51 44  1  0
 27 15  1  0
 21  4  1  0
 22 14  1  0
M  END
>  <Classification>  (226) 
0

>  <pchembl>  (226) 
4.37

>  <InChI_steorem>  (226) 
InChI=1S/C37H67NO13/c1-14-25-37(10,45)30(41)20(4)27(39)18(2)16-35(8,44)32(51-34-28(40)24(38(11)12)15-19(3)47-34)21(5)29(22(6)33(43)49-25)50-26-17-36(9,46-13)31(42)23(7)48-26/h18-26,28-32,34,40-42,44-45H,14-17H2,1-13H3

>  <source>  (226) 
ChEMBL25

>  <source_id>  (226) 
25

>  <optional_reference>  (226) 
10.1021/jm021012t

>  <optional_origin>  (226) 
None

>  <target>  (226) 
MDR1

$$$$

     RDKit          2D

 21 24  0  0  0  0  0  0  0  0999 V2000
   -1.2651    0.4202    0.0000 C   0  0  0  0  0  0  0  0  0  0  0  0
   -0.8526    1.1347    0.0000 C   0  0  0  0  0  0  0  0  0  0  0  0
   -1.2651    1.8491    0.0000 O   0  0  0  0  0  0  0  0  0  0  0  0
   -0.0276    1.1347    0.0000 C   0  0  0  0  0  0  0  0  0  0  0  0
    0.3849    1.8491    0.0000 C   0  0  0  0  0  0  0  0  0  0  0  0
    1.2099    1.8491    0.0000 C   0  0  0  0  0  0  0  0  0  0  0  0
    1.6224    1.1347    0.0000 C   0  0  0  0  0  0  0  0  0  0  0  0
    2.4474    1.1347    0.0000 C   0  0  0  0  0  0  0  0  0  0  0  0
    2.8599    0.4202    0.0000 C   0  0  0  0  0  0  0  0  0  0  0  0
    2.4474   -0.2943    0.0000 C   0  0  0  0  0  0  0  0  0  0  0  0
    1.6224   -0.2943    0.0000 C   0  0  0  0  0  0  0  0  0  0  0  0
    1.2099    0.4202    0.0000 C   0  0  0  0  0  0  0  0  0  0  0  0
    0.3849    0.4202    0.0000 C   0  0  0  0  0  0  0  0  0  0  0  0
   -0.0276   -0.2943    0.0000 O   0  0  0  0  0  0  0  0  0  0  0  0
   -0.8526   -0.2943    0.0000 C   0  0  0  0  0  0  0  0  0  0  0  0
   -1.2651   -1.0088    0.0000 C   0  0  0  0  0  0  0  0  0  0  0  0
   -0.8526   -1.7232    0.0000 C   0  0  0  0  0  0  0  0  0  0  0  0
   -1.2651   -2.4377    0.0000 C   0  0  0  0  0  0  0  0  0  0  0  0
   -2.0901   -2.4377    0.0000 C   0  0  0  0  0  0  0  0  0  0  0  0
   -2.5026   -1.7232    0.0000 C   0  0  0  0  0  0  0  0  0  0  0  0
   -2.0901   -1.0088    0.0000 C   0  0  0  0  0  0  0  0  0  0  0  0
  1  2  1  0
 15  1  2  0
  2  3  2  0
  4  2  1  0
  4  5  2  0
  4 13  1  0
  5  6  1  0
  6  7  2  0
  7  8  1  0
  7 12  1  0
  8  9  2  0
  9 10  1  0
 10 11  2  0
 11 12  1  0
 12 13  2  0
 13 14  1  0
 15 14  1  0
 16 15  1  0
 16 17  2  0
 16 21  1  0
 17 18  1  0
 18 19  2  0
 19 20  1  0
 20 21  2  0
M  END
>  <Classification>  (227) 
0

>  <pchembl>  (227) 
4.61

>  <InChI_steorem>  (227) 
InChI=1S/C19H12O2/c20-17-12-18(14-7-2-1-3-8-14)21-19-15-9-5-4-6-13(15)10-11-16(17)19/h1-12H

>  <source>  (227) 
ChEMBL25

>  <source_id>  (227) 
25

>  <optional_reference>  (227) 
10.1016/j.ejmech.2013.06.035

>  <optional_origin>  (227) 
None

>  <target>  (227) 
MDR1

$$$$

     RDKit          2D

 28 30  0  0  0  0  0  0  0  0999 V2000
    2.1911   -0.7835    0.0000 C   0  0  0  0  0  0  0  0  0  0  0  0
    2.1911    0.0415    0.0000 O   0  0  0  0  0  0  0  0  0  0  0  0
    2.9055   -1.1960    0.0000 C   0  0  0  0  0  0  0  0  0  0  0  0
    3.6200   -0.7835    0.0000 C   0  0  0  0  0  0  0  0  0  0  0  0
    2.9055   -2.0210    0.0000 C   0  0  0  0  0  0  0  0  0  0  0  0
    2.1911   -2.4335    0.0000 C   0  0  0  0  0  0  0  0  0  0  0  0
    1.4766   -2.0210    0.0000 C   0  0  0  0  0  0  0  0  0  0  0  0
    1.4766   -1.1960    0.0000 C   0  0  0  0  0  0  0  0  0  0  0  0
    0.7621   -0.7835    0.0000 C   0  0  0  0  0  0  0  0  0  0  0  0
    1.4766    0.4540    0.0000 C   0  0  0  0  0  0  0  0  0  0  0  0
    0.7621    0.0415    0.0000 N   0  0  0  0  0  0  0  0  0  0  0  0
    0.0476    0.4540    0.0000 C   0  0  0  0  0  0  0  0  0  0  0  0
   -0.6668    0.0415    0.0000 N   0  0  0  0  0  0  0  0  0  0  0  0
    0.0476    1.2790    0.0000 N   0  0  0  0  0  0  0  0  0  0  0  0
    0.7621    1.6915    0.0000 C   0  0  0  0  0  0  0  0  0  0  0  0
    0.7621    2.5165    0.0000 N   0  0  0  0  0  0  0  0  0  0  0  0
    1.4766    1.2790    0.0000 C   0  0  0  0  0  0  0  0  0  0  0  0
   -1.3813    0.4540    0.0000 C   0  0  0  0  0  0  0  0  0  0  0  0
   -2.0958    0.0415    0.0000 C   0  0  0  0  0  0  0  0  0  0  0  0
   -2.8102    0.4540    0.0000 C   0  0  0  0  0  0  0  0  0  0  0  0
   -2.8102    1.2790    0.0000 C   0  0  0  0  0  0  0  0  0  0  0  0
   -2.0958    1.6915    0.0000 C   0  0  0  0  0  0  0  0  0  0  0  0
   -1.3813    1.2790    0.0000 C   0  0  0  0  0  0  0  0  0  0  0  0
   -3.5247    1.6915    0.0000 C   0  0  0  0  0  0  0  0  0  0  0  0
   -4.2392    2.1040    0.0000 N   0  0  0  0  0  0  0  0  0  0  0  0
    2.1911   -3.2585    0.0000 C   0  0  0  0  0  0  0  0  0  0  0  0
    2.1911   -4.0835    0.0000 N   0  0  0  0  0  0  0  0  0  0  0  0
    2.1911    1.6915    0.0000 Br  0  0  0  0  0  0  0  0  0  0  0  0
  1  2  1  0
  1  3  2  0
  1  8  1  0
 10  2  1  0
  3  4  1  0
  3  5  1  0
  5  6  2  0
  6  7  1  0
  6 26  1  0
  7  8  2  0
  8  9  1  0
 10 11  2  0
 10 17  1  0
 12 11  1  0
 12 13  1  0
 12 14  2  0
 18 13  1  0
 15 14  1  0
 15 16  1  0
 17 15  2  0
 28 17  1  0
 18 19  2  0
 18 23  1  0
 19 20  1  0
 20 21  2  0
 21 22  1  0
 21 24  1  0
 22 23  2  0
 24 25  3  0
 26 27  3  0
M  END
>  <Classification>  (228) 
1

>  <pchembl>  (228) 
5.12

>  <InChI_steorem>  (228) 
InChI=1S/C20H15BrN6O/c1-11-7-14(10-23)8-12(2)17(11)28-19-16(21)18(24)26-20(27-19)25-15-5-3-13(9-22)4-6-15/h3-8H,1-2H3,(H3,24,25,26,27)

>  <source>  (228) 
ChEMBL25

>  <source_id>  (228) 
25

>  <optional_reference>  (228) 
10.1128/aac.01527-10

>  <optional_origin>  (228) 
None

>  <target>  (228) 
MDR1

$$$$

     RDKit          2D

 33 36  0  0  0  0  0  0  0  0999 V2000
   -2.3023    0.9070    0.0000 O   0  0  0  0  0  0  0  0  0  0  0  0
   -1.5879    1.3195    0.0000 C   0  0  0  0  0  0  0  0  0  0  0  0
   -1.5879    2.1445    0.0000 C   0  0  0  0  0  0  0  0  0  0  0  0
   -2.3023    2.5570    0.0000 O   0  0  0  0  0  0  0  0  0  0  0  0
   -0.8734    2.5570    0.0000 C   0  0  0  0  0  0  0  0  0  0  0  0
   -0.8734    3.3820    0.0000 O   0  0  0  0  0  0  0  0  0  0  0  0
   -0.1589    2.1445    0.0000 C   0  0  0  0  0  0  0  0  0  0  0  0
   -0.1589    1.3195    0.0000 C   0  0  0  0  0  0  0  0  0  0  0  0
    0.5555    0.9070    0.0000 C   0  0  0  0  0  0  0  0  0  0  0  0
    1.9845    0.9070    0.0000 C   0  0  0  0  0  0  0  0  0  0  0  0
    2.6990    1.3195    0.0000 C   0  0  0  0  0  0  0  0  0  0  0  0
    3.4134    0.9070    0.0000 C   0  0  0  0  0  0  0  0  0  0  0  0
    3.4134    0.0820    0.0000 C   0  0  0  0  0  0  0  0  0  0  0  0
    2.6990   -0.3305    0.0000 C   0  0  0  0  0  0  0  0  0  0  0  0
    1.9845    0.0820    0.0000 C   0  0  0  0  0  0  0  0  0  0  0  0
    0.5555    0.0820    0.0000 C   0  0  0  0  0  0  0  0  0  0  0  0
   -0.1589   -1.1555    0.0000 C   0  0  0  0  0  0  0  0  0  0  0  0
   -0.8734   -1.5680    0.0000 C   0  0  0  0  0  0  0  0  0  0  0  0
   -0.8734   -2.3930    0.0000 C   0  0  0  0  0  0  0  0  0  0  0  0
   -1.5879   -1.1555    0.0000 C   0  0  0  0  0  0  0  0  0  0  0  0
    1.2700   -0.3305    0.0000 C   0  0  0  0  0  0  0  0  0  0  0  0
    1.2700    1.3195    0.0000 O   0  0  0  0  0  0  0  0  0  0  0  0
    4.1279    1.3195    0.0000 O   0  0  0  0  0  0  0  0  0  0  0  0
    2.6990   -1.1555    0.0000 O   0  0  0  0  0  0  0  0  0  0  0  0
   -0.8734    0.9070    0.0000 C   0  0  0  0  0  0  0  0  0  0  0  0
   -0.1589   -0.3305    0.0000 O   0  0  0  0  0  0  0  0  0  0  0  0
    0.5555   -1.5680    0.0000 O   0  0  0  0  0  0  0  0  0  0  0  0
   -2.3023   -1.5680    0.0000 C   0  0  0  0  0  0  0  0  0  0  0  0
   -3.0168   -1.1555    0.0000 O   0  0  0  0  0  0  0  0  0  0  0  0
   -2.3023   -2.3930    0.0000 C   0  0  0  0  0  0  0  0  0  0  0  0
   -3.0168   -2.8055    0.0000 O   0  0  0  0  0  0  0  0  0  0  0  0
   -1.5879   -2.8055    0.0000 C   0  0  0  0  0  0  0  0  0  0  0  0
   -1.5879   -3.6305    0.0000 O   0  0  0  0  0  0  0  0  0  0  0  0
  2  1  1  0
  2  3  2  0
  2 25  1  0
  3  4  1  0
  3  5  1  0
  5  6  1  0
  7  5  2  0
  7  8  1  0
  9  8  1  0
  8 25  2  0
  9 16  1  0
  9 22  1  0
 10 11  2  0
 10 15  1  0
 10 22  1  0
 11 12  1  0
 12 13  2  0
 12 23  1  0
 13 14  1  0
 14 15  2  0
 14 24  1  0
 21 15  1  0
 21 16  1  0
 16 26  1  0
 17 18  1  0
 17 26  1  0
 17 27  2  0
 18 19  2  0
 18 20  1  0
 19 32  1  0
 20 28  2  0
 28 29  1  0
 28 30  1  0
 30 31  1  0
 30 32  2  0
 32 33  1  0
M  END
>  <Classification>  (229) 
1

>  <pchembl>  (229) 
6.91

>  <InChI_steorem>  (229) 
InChI=1S/C22H18O11/c23-10-5-12(24)11-7-18(33-22(31)9-3-15(27)20(30)16(28)4-9)21(32-17(11)6-10)8-1-13(25)19(29)14(26)2-8/h1-6,18,21,23-30H,7H2

>  <source>  (229) 
ChEMBL25

>  <source_id>  (229) 
25

>  <optional_reference>  (229) 
10.1021/acs.jmedchem.5b00085

>  <optional_origin>  (229) 
None

>  <target>  (229) 
MDR1

$$$$

     RDKit          2D

 36 40  0  0  0  0  0  0  0  0999 V2000
    0.4515   -0.4169    0.0000 C   0  0  0  0  0  0  0  0  0  0  0  0
   -0.2629    0.8206    0.0000 C   0  0  0  0  0  0  0  0  0  0  0  0
   -0.9774    0.4081    0.0000 C   0  0  0  0  0  0  0  0  0  0  0  0
   -0.9774   -0.4169    0.0000 C   0  0  0  0  0  0  0  0  0  0  0  0
   -0.2629   -0.8294    0.0000 N   0  0  0  0  0  0  0  0  0  0  0  0
    0.4515    0.4081    0.0000 C   0  0  0  0  0  0  0  0  0  0  0  0
   -3.3713    2.7330    0.0000 Cl  0  0  0  0  0  0  0  0  0  0  0  0
    1.4523    3.0510    0.0000 C   0  0  0  0  0  0  0  0  0  0  0  0
   -2.5829    2.4899    0.0000 C   0  0  0  0  0  0  0  0  0  0  0  0
   -1.9782    3.0510    0.0000 C   0  0  0  0  0  0  0  0  0  0  0  0
   -0.6754    3.4528    0.0000 C   0  0  0  0  0  0  0  0  0  0  0  0
    0.1496    3.4528    0.0000 C   0  0  0  0  0  0  0  0  0  0  0  0
   -1.6110    1.4424    0.0000 C   0  0  0  0  0  0  0  0  0  0  0  0
    2.0571    2.4899    0.0000 C   0  0  0  0  0  0  0  0  0  0  0  0
    1.8735    1.6855    0.0000 C   0  0  0  0  0  0  0  0  0  0  0  0
    1.0851    1.4424    0.0000 N   0  0  0  0  0  0  0  0  0  0  0  0
   -0.2629    1.6456    0.0000 C   0  0  0  0  0  0  0  0  0  0  0  0
   -2.3994    1.6855    0.0000 C   0  0  0  0  0  0  0  0  0  0  0  0
    2.8454    2.7330    0.0000 Br  0  0  0  0  0  0  0  0  0  0  0  0
   -1.4274    0.6381    0.0000 Br  0  0  0  0  0  0  0  0  0  0  0  0
    0.4804    2.0035    0.0000 C   0  0  0  0  0  0  0  0  0  0  0  0
   -1.0062    2.0035    0.0000 C   0  0  0  0  0  0  0  0  0  0  0  0
    0.6639    2.8078    0.0000 C   0  0  0  0  0  0  0  0  0  0  0  0
   -1.1898    2.8078    0.0000 C   0  0  0  0  0  0  0  0  0  0  0  0
    1.1660   -3.3044    0.0000 C   0  0  0  0  0  0  0  0  0  0  0  0
    1.1660   -4.1294    0.0000 C   0  0  0  0  0  0  0  0  0  0  0  0
    0.4515   -2.8919    0.0000 C   0  0  0  0  0  0  0  0  0  0  0  0
   -0.2629   -3.3044    0.0000 C   0  0  0  0  0  0  0  0  0  0  0  0
    0.4515   -4.5419    0.0000 N   0  0  0  0  0  0  0  0  0  0  0  0
    0.4515   -5.3669    0.0000 C   0  0  0  0  0  0  0  0  0  0  0  0
    1.1660   -5.7794    0.0000 N   0  0  0  0  0  0  0  0  0  0  0  0
   -0.2629   -5.7794    0.0000 O   0  0  0  0  0  0  0  0  0  0  0  0
   -0.2629   -4.1294    0.0000 C   0  0  0  0  0  0  0  0  0  0  0  0
    0.4515   -2.0669    0.0000 C   0  0  0  0  0  0  0  0  0  0  0  0
   -0.9774   -2.0669    0.0000 O   0  0  0  0  0  0  0  0  0  0  0  0
   -0.2629   -1.6544    0.0000 C   0  0  0  0  0  0  0  0  0  0  0  0
  1  5  1  0
  1  6  1  0
  2  3  1  0
  6  2  1  0
 17  2  1  0
  3  4  1  0
  4  5  1  0
 36  5  1  0
  9  7  1  0
  8 14  2  0
  8 23  1  0
  9 10  1  0
  9 18  2  0
 10 24  2  0
 11 12  1  0
 11 24  1  0
 12 23  1  0
 13 18  1  0
 20 13  1  0
 13 22  2  0
 14 15  1  0
 19 14  1  0
 15 16  2  0
 21 16  1  0
 17 21  1  0
 17 22  1  0
 21 23  2  0
 22 24  1  0
 25 26  1  0
 25 27  1  0
 26 29  1  0
 27 28  1  0
 27 34  1  0
 28 33  1  0
 30 29  1  0
 33 29  1  0
 30 31  1  0
 30 32  2  0
 34 36  1  0
 36 35  2  0
M  END
>  <Classification>  (230) 
1

>  <pchembl>  (230) 
5.57

>  <InChI_steorem>  (230) 
InChI=1S/C27H31Br2ClN4O2/c28-20-12-19-2-1-18-13-21(30)14-22(29)24(18)25(26(19)32-15-20)17-5-9-33(10-6-17)23(35)11-16-3-7-34(8-4-16)27(31)36/h12-17,25H,1-11H2,(H2,31,36)

>  <source>  (230) 
ChEMBL25

>  <source_id>  (230) 
25

>  <optional_reference>  (230) 
None

>  <optional_origin>  (230) 
None

>  <target>  (230) 
MDR1

$$$$

     RDKit          2D

 49 55  0  0  0  0  0  0  0  0999 V2000
   28.3333  -10.8801    0.0000 N   0  0  0  0  0  0  0  0  0  0  0  0
   28.4208  -11.6966    0.0000 C   0  0  0  0  0  0  0  0  0  0  0  0
   18.8694   -5.7608    0.0000 C   0  0  0  0  0  0  0  0  0  0  0  0
   29.2330  -11.8673    0.0000 N   0  0  0  0  0  0  0  0  0  0  0  0
   29.6454  -11.1550    0.0000 N   0  0  0  0  0  0  0  0  0  0  0  0
   29.0830  -10.5468    0.0000 C   0  0  0  0  0  0  0  0  0  0  0  0
   19.2943   -5.0610    0.0000 C   0  0  0  0  0  0  0  0  0  0  0  0
   18.0696   -5.5484    0.0000 C   0  0  0  0  0  0  0  0  0  0  0  0
   19.6733   -5.9357    0.0000 O   0  0  0  0  0  0  0  0  0  0  0  0
   17.4865   -6.1357    0.0000 N   0  0  0  0  0  0  0  0  0  0  0  0
   16.2993   -6.7355    0.0000 N   0  0  0  0  0  0  0  0  0  0  0  0
   18.4570   -6.4856    0.0000 O   0  0  0  0  0  0  0  0  0  0  0  0
   24.0553   -8.4100    0.0000 N   0  0  0  0  0  0  0  0  0  0  0  0
   25.4800   -9.2348    0.0000 N   0  0  0  0  0  0  0  0  0  0  0  0
   18.8944   -4.3487    0.0000 C   0  0  0  0  0  0  0  0  0  0  0  0
   17.6114   -6.9479    0.0000 N   0  0  0  0  0  0  0  0  0  0  0  0
   27.6210  -10.4719    0.0000 C   0  0  0  0  0  0  0  0  0  0  0  0
   16.8825   -7.3229    0.0000 C   0  0  0  0  0  0  0  0  0  0  0  0
   16.6742   -5.9982    0.0000 C   0  0  0  0  0  0  0  0  0  0  0  0
   20.1190   -5.0859    0.0000 C   0  0  0  0  0  0  0  0  0  0  0  0
   27.8084  -12.2547    0.0000 O   0  0  0  0  0  0  0  0  0  0  0  0
   19.3193   -3.6365    0.0000 C   0  0  0  0  0  0  0  0  0  0  0  0
   26.1922   -9.6472    0.0000 C   0  0  0  0  0  0  0  0  0  0  0  0
   23.3347   -7.9976    0.0000 C   0  0  0  0  0  0  0  0  0  0  0  0
   19.7608   -6.7605    0.0000 C   0  0  0  0  0  0  0  0  0  0  0  0
   24.7593   -9.6472    0.0000 C   0  0  0  0  0  0  0  0  0  0  0  0
   24.0553   -9.2348    0.0000 C   0  0  0  0  0  0  0  0  0  0  0  0
   25.4800   -8.4100    0.0000 C   0  0  0  0  0  0  0  0  0  0  0  0
   24.7677   -7.9851    0.0000 C   0  0  0  0  0  0  0  0  0  0  0  0
   29.5704  -12.6213    0.0000 C   0  0  0  0  0  0  0  0  0  0  0  0
   26.8962  -10.8842    0.0000 C   0  0  0  0  0  0  0  0  0  0  0  0
   27.6210   -9.6472    0.0000 C   0  0  0  0  0  0  0  0  0  0  0  0
   26.1922  -10.4719    0.0000 C   0  0  0  0  0  0  0  0  0  0  0  0
   26.8962   -9.2348    0.0000 C   0  0  0  0  0  0  0  0  0  0  0  0
   19.0068   -7.0979    0.0000 C   0  0  0  0  0  0  0  0  0  0  0  0
   22.6183   -8.4100    0.0000 C   0  0  0  0  0  0  0  0  0  0  0  0
   23.3347   -7.1604    0.0000 C   0  0  0  0  0  0  0  0  0  0  0  0
   20.1482   -3.6490    0.0000 C   0  0  0  0  0  0  0  0  0  0  0  0
   18.0696   -4.3362    0.0000 Cl  0  0  0  0  0  0  0  0  0  0  0  0
   21.1937   -6.7605    0.0000 O   0  0  0  0  0  0  0  0  0  0  0  0
   20.5439   -4.3737    0.0000 C   0  0  0  0  0  0  0  0  0  0  0  0
   21.9060   -7.1729    0.0000 C   0  0  0  0  0  0  0  0  0  0  0  0
   20.4814   -7.1729    0.0000 C   0  0  0  0  0  0  0  0  0  0  0  0
   22.6183   -6.7605    0.0000 C   0  0  0  0  0  0  0  0  0  0  0  0
   21.9060   -7.9976    0.0000 C   0  0  0  0  0  0  0  0  0  0  0  0
   20.5731   -2.9491    0.0000 Cl  0  0  0  0  0  0  0  0  0  0  0  0
   30.3827  -12.7045    0.0000 C   0  0  0  0  0  0  0  0  0  0  0  0
   29.0830  -13.2919    0.0000 C   0  0  0  0  0  0  0  0  0  0  0  0
   30.8700  -12.0422    0.0000 C   0  0  0  0  0  0  0  0  0  0  0  0
  2  1  1  0
  3  9  1  0
  4  2  1  0
  5  6  2  0
  6  1  1  0
  7  3  1  0
  8  3  1  0
  9 25  1  0
 10  8  1  0
 11 19  2  0
 12 35  1  0
 13 29  1  0
 14 23  1  0
 15  7  2  0
 16 10  1  0
 17  1  1  0
 18 16  2  0
 19 10  1  0
 20  7  1  0
 21  2  2  0
 22 15  1  0
 23 34  1  0
 24 13  1  0
 25 43  1  0
 26 14  1  0
 27 26  1  0
 28 14  1  0
 29 28  1  0
 30  4  1  0
 31 17  2  0
 32 17  1  0
 33 31  1  0
 34 32  2  0
 35 25  1  0
 36 24  2  0
 37 24  1  0
 38 41  1  0
 39 15  1  0
 40 42  1  0
 41 20  2  0
 42 44  1  0
 43 40  1  0
 44 37  2  0
 45 36  1  0
 46 38  1  0
 47 30  1  0
 48 30  1  0
 49 47  1  0
  5  4  1  0
 33 23  2  0
 27 13  1  0
 45 42  2  0
 12  3  1  0
 18 11  1  0
 38 22  2  0
M  END
>  <Classification>  (231) 
1

>  <pchembl>  (231) 
5.68

>  <InChI_steorem>  (231) 
InChI=1S/C35H38Cl2N8O4/c1-3-25(2)45-34(46)44(24-40-45)29-7-5-27(6-8-29)41-14-16-42(17-15-41)28-9-11-30(12-10-28)47-19-31-20-48-35(49-31,21-43-23-38-22-39-43)32-13-4-26(36)18-33(32)37/h4-13,18,22-25,31H,3,14-17,19-21H2,1-2H3

>  <source>  (231) 
ChEMBL25

>  <source_id>  (231) 
25

>  <optional_reference>  (231) 
10.1021/jm021012t

>  <optional_origin>  (231) 
None

>  <target>  (231) 
MDR1

$$$$

     RDKit          2D

 39 45  0  0  0  0  0  0  0  0999 V2000
   16.0176  -19.7049    0.0000 F   0  0  0  0  0  0  0  0  0  0  0  0
   16.8215  -19.5311    0.0000 C   0  0  0  0  0  0  0  0  0  0  0  0
   16.5783  -18.7454    0.0000 F   0  0  0  0  0  0  0  0  0  0  0  0
   19.4565  -18.3814    0.0000 C   0  0  0  0  0  0  0  0  0  0  0  0
   18.6661  -18.6179    0.0000 C   0  0  0  0  0  0  0  0  0  0  0  0
   19.8699  -19.7432    0.0000 C   0  0  0  0  0  0  0  0  0  0  0  0
   20.0551  -18.9426    0.0000 C   0  0  0  0  0  0  0  0  0  0  0  0
   18.4767  -19.4177    0.0000 C   0  0  0  0  0  0  0  0  0  0  0  0
   19.0776  -19.9845    0.0000 C   0  0  0  0  0  0  0  0  0  0  0  0
   19.0115  -20.8137    0.0000 C   0  0  0  0  0  0  0  0  0  0  0  0
   18.3288  -21.2775    0.0000 C   0  0  0  0  0  0  0  0  0  0  0  0
   17.5366  -21.0290    0.0000 C   0  0  0  0  0  0  0  0  0  0  0  0
   16.9274  -21.5903    0.0000 C   0  0  0  0  0  0  0  0  0  0  0  0
   17.1091  -22.4001    0.0000 C   0  0  0  0  0  0  0  0  0  0  0  0
   17.9054  -22.6456    0.0000 C   0  0  0  0  0  0  0  0  0  0  0  0
   18.5113  -22.0827    0.0000 C   0  0  0  0  0  0  0  0  0  0  0  0
   19.7227  -21.2273    0.0000 N   0  0  0  0  0  0  0  0  0  0  0  0
   17.2346  -20.2549    0.0000 C   0  0  0  0  0  0  0  0  0  0  0  0
   17.6508  -19.5356    0.0000 C   0  0  0  0  0  0  0  0  0  0  0  0
   19.7147  -22.0470    0.0000 C   0  0  0  0  0  0  0  0  0  0  0  0
   20.4218  -22.4605    0.0000 C   0  0  0  0  0  0  0  0  0  0  0  0
   21.1379  -22.0550    0.0000 N   0  0  0  0  0  0  0  0  0  0  0  0
   21.1426  -21.2314    0.0000 C   0  0  0  0  0  0  0  0  0  0  0  0
   20.4310  -20.8133    0.0000 C   0  0  0  0  0  0  0  0  0  0  0  0
   21.8475  -22.4713    0.0000 C   0  0  0  0  0  0  0  0  0  0  0  0
   22.5629  -22.0649    0.0000 C   0  0  0  0  0  0  0  0  0  0  0  0
   23.2724  -22.4813    0.0000 C   0  0  0  0  0  0  0  0  0  0  0  0
   22.5686  -21.2423    0.0000 O   0  0  0  0  0  0  0  0  0  0  0  0
   24.0027  -22.1027    0.0000 O   0  0  0  0  0  0  0  0  0  0  0  0
   24.6959  -22.5459    0.0000 C   0  0  0  0  0  0  0  0  0  0  0  0
   25.4218  -22.1643    0.0000 C   0  0  0  0  0  0  0  0  0  0  0  0
   26.1145  -22.6068    0.0000 C   0  0  0  0  0  0  0  0  0  0  0  0
   26.0776  -23.4296    0.0000 C   0  0  0  0  0  0  0  0  0  0  0  0
   24.6526  -23.3631    0.0000 C   0  0  0  0  0  0  0  0  0  0  0  0
   25.3428  -23.8067    0.0000 C   0  0  0  0  0  0  0  0  0  0  0  0
   25.3027  -24.6242    0.0000 N   0  0  0  0  0  0  0  0  0  0  0  0
   24.5733  -24.9992    0.0000 C   0  0  0  0  0  0  0  0  0  0  0  0
   23.8827  -24.5506    0.0000 C   0  0  0  0  0  0  0  0  0  0  0  0
   23.9261  -23.7345    0.0000 C   0  0  0  0  0  0  0  0  0  0  0  0
  2  1  1  0
  3  2  1  0
  4  5  1  0
  5  8  2  0
  9  6  2  0
  6  7  1  0
  7  4  2  0
  8  9  1  0
  9 10  1  0
  8 19  1  0
 10 11  1  0
 18 12  1  0
 11 12  2  0
 12 13  1  0
 13 14  2  0
 14 15  1  0
 15 16  2  0
 16 11  1  0
 10 17  1  0
 19 18  1  0
  2 19  1  0
 18  2  1  0
 17 20  1  0
 17 24  1  0
 20 21  1  0
 21 22  1  0
 22 23  1  0
 23 24  1  0
 22 25  1  0
 25 26  1  0
 26 27  1  0
 26 28  1  0
 27 29  1  0
 29 30  1  0
 30 31  2  0
 31 32  1  0
 32 33  2  0
 33 35  1  0
 34 30  1  0
 34 35  2  0
 35 36  1  0
 36 37  2  0
 37 38  1  0
 38 39  2  0
 39 34  1  0
M  END
>  <Classification>  (232) 
1

>  <pchembl>  (232) 
7.23

>  <InChI_steorem>  (232) 
InChI=1S/C32H31F2N3O2/c33-32(34)29-22-7-1-3-9-24(22)31(25-10-4-2-8-23(25)30(29)32)37-17-15-36(16-18-37)19-21(38)20-39-28-13-5-12-27-26(28)11-6-14-35-27/h1-14,21,29-31,38H,15-20H2

>  <source>  (232) 
ChEMBL25

>  <source_id>  (232) 
25

>  <optional_reference>  (232) 
10.1021/jm201705f

>  <optional_origin>  (232) 
None

>  <target>  (232) 
MDR1

$$$$

     RDKit          2D

 41 42  0  0  0  0  0  0  0  0999 V2000
    0.8340  -18.9871    0.0000 C   0  0  0  0  0  0  0  0  0  0  0  0
    0.0715  -17.7656    0.0000 O   0  0  0  0  0  0  0  0  0  0  0  0
    0.7981  -18.1610    0.0000 C   0  0  0  0  0  0  0  0  0  0  0  0
    0.1340  -19.4236    0.0000 C   0  0  0  0  0  0  0  0  0  0  0  0
   -1.2977  -19.4742    0.0000 C   0  0  0  0  0  0  0  0  0  0  0  0
   -0.5976  -19.0377    0.0000 C   0  0  0  0  0  0  0  0  0  0  0  0
   -0.6221  -18.2110    0.0000 C   0  0  0  0  0  0  0  0  0  0  0  0
   -1.3537  -17.8252    0.0000 C   0  0  0  0  0  0  0  0  0  0  0  0
   -2.0538  -18.2617    0.0000 C   0  0  0  0  0  0  0  0  0  0  0  0
   -2.0223  -19.0841    0.0000 C   0  0  0  0  0  0  0  0  0  0  0  0
    1.5125  -17.7696    0.0000 C   0  0  0  0  0  0  0  0  0  0  0  0
    2.2269  -18.1780    0.0000 C   0  0  0  0  0  0  0  0  0  0  0  0
    2.9414  -16.9446    0.0000 O   0  0  0  0  0  0  0  0  0  0  0  0
    2.9414  -17.7696    0.0000 C   0  0  0  0  0  0  0  0  0  0  0  0
    3.6559  -18.1780    0.0000 O   0  0  0  0  0  0  0  0  0  0  0  0
    1.5908  -20.2026    0.0000 C   0  0  0  0  0  0  0  0  0  0  0  0
    2.3166  -20.5935    0.0000 O   0  0  0  0  0  0  0  0  0  0  0  0
    0.8899  -20.6379    0.0000 O   0  0  0  0  0  0  0  0  0  0  0  0
    2.3452  -21.4175    0.0000 C   0  0  0  0  0  0  0  0  0  0  0  0
    3.0710  -21.8085    0.0000 C   0  0  0  0  0  0  0  0  0  0  0  0
    1.6443  -21.8527    0.0000 C   0  0  0  0  0  0  0  0  0  0  0  0
    2.3696  -22.2476    0.0000 C   0  0  0  0  0  0  0  0  0  0  0  0
   -3.4810  -18.3057    0.0000 C   0  0  0  0  0  0  0  0  0  0  0  0
   -4.2105  -17.9171    0.0000 C   0  0  0  0  0  0  0  0  0  0  0  0
   -3.4560  -19.1320    0.0000 C   0  0  0  0  0  0  0  0  0  0  0  0
   -4.1796  -18.7478    0.0000 C   0  0  0  0  0  0  0  0  0  0  0  0
    4.3702  -17.7662    0.0000 C   0  0  0  0  0  0  0  0  0  0  0  0
    5.0860  -18.1753    0.0000 C   0  0  0  0  0  0  0  0  0  0  0  0
    4.3687  -16.9412    0.0000 C   0  0  0  0  0  0  0  0  0  0  0  0
    5.0809  -17.3449    0.0000 C   0  0  0  0  0  0  0  0  0  0  0  0
    1.5199  -16.9487    0.0000 S   0  0  0  0  0  0  0  0  0  0  0  0
    0.8127  -16.5319    0.0000 C   0  0  0  0  0  0  0  0  0  0  0  0
    1.9259  -16.2339    0.0000 O   0  0  0  0  0  0  0  0  0  0  0  0
    2.3406  -16.9470    0.0000 O   0  0  0  0  0  0  0  0  0  0  0  0
    0.8248  -15.7138    0.0000 C   0  0  0  0  0  0  0  0  0  0  0  0
    0.1185  -15.2971    0.0000 C   0  0  0  0  0  0  0  0  0  0  0  0
   -0.5971  -15.7011    0.0000 C   0  0  0  0  0  0  0  0  0  0  0  0
   -0.6019  -16.5263    0.0000 C   0  0  0  0  0  0  0  0  0  0  0  0
    0.1051  -16.9392    0.0000 C   0  0  0  0  0  0  0  0  0  0  0  0
    1.5604  -19.3782    0.0000 N   0  0  0  0  0  0  0  0  0  0  0  0
   -2.7802  -17.8705    0.0000 O   0  0  0  0  0  0  0  0  0  0  0  0
  1  3  1  0
 19 20  1  0
  3  2  2  0
 19 21  1  0
  1  4  1  0
 19 22  1  0
  4  6  1  0
  5  6  2  0
 23 24  1  0
  6  7  1  0
 23 25  1  0
  7  8  2  0
 23 26  1  0
  8  9  1  0
 15 27  1  0
  9 10  2  0
 27 28  1  0
 10  5  1  0
 27 29  1  0
 27 30  1  0
 11 12  1  0
 11 31  1  0
 12 14  1  0
 31 32  1  0
 14 13  2  0
 31 33  2  0
 31 34  2  0
 32 35  2  0
  3 11  1  0
 35 36  1  0
 16 17  1  0
 36 37  2  0
 14 15  1  0
 37 38  1  0
 16 18  2  0
 38 39  2  0
 39 32  1  0
 17 19  1  0
 40 16  1  0
 40  1  1  0
 41 23  1  0
  9 41  1  0
M  END
>  <Classification>  (233) 
1

>  <pchembl>  (233) 
5.81

>  <InChI_steorem>  (233) 
InChI=1S/C31H43NO8S/c1-29(2,3)38-22-17-15-21(16-18-22)19-24(32-28(35)40-31(7,8)9)27(34)25(20-26(33)39-30(4,5)6)41(36,37)23-13-11-10-12-14-23/h10-18,24-25H,19-20H2,1-9H3,(H,32,35)

>  <source>  (233) 
ChEMBL25

>  <source_id>  (233) 
25

>  <optional_reference>  (233) 
10.1021/jm100839w

>  <optional_origin>  (233) 
None

>  <target>  (233) 
MDR1

$$$$

     RDKit          2D

 45 47  0  0  0  0  0  0  0  0999 V2000
    0.0303   -3.3321    0.0000 C   0  0  0  0  0  0  0  0  0  0  0  0
    0.6782   -3.8417    0.0000 N   0  0  0  0  0  0  0  0  0  0  0  0
    1.3649   -3.3863    0.0000 C   0  0  0  0  0  0  0  0  0  0  0  0
    1.1435   -2.5889    0.0000 C   0  0  0  0  0  0  0  0  0  0  0  0
    0.3191   -2.5594    0.0000 C   0  0  0  0  0  0  0  0  0  0  0  0
    0.6448   -4.6668    0.0000 C   0  0  0  0  0  0  0  0  0  0  0  0
   -0.0858   -5.0525    0.0000 O   0  0  0  0  0  0  0  0  0  0  0  0
    1.3423   -5.1103    0.0000 O   0  0  0  0  0  0  0  0  0  0  0  0
    1.3089   -5.9355    0.0000 C   0  0  0  0  0  0  0  0  0  0  0  0
    2.0105   -6.3749    0.0000 C   0  0  0  0  0  0  0  0  0  0  0  0
    0.5782   -6.3172    0.0000 C   0  0  0  0  0  0  0  0  0  0  0  0
    1.3045   -6.7589    0.0000 C   0  0  0  0  0  0  0  0  0  0  0  0
   -0.1299   -1.8655    0.0000 O   0  0  0  0  0  0  0  0  0  0  0  0
   -0.9548   -1.9052    0.0000 C   0  0  0  0  0  0  0  0  0  0  0  0
    2.0798   -3.7965    0.0000 C   0  0  0  0  0  0  0  0  0  0  0  0
    3.5116   -3.7971    0.0000 C   0  0  0  0  0  0  0  0  0  0  0  0
    4.2259   -3.3856    0.0000 C   0  0  0  0  0  0  0  0  0  0  0  0
    3.5123   -4.6229    0.0000 C   0  0  0  0  0  0  0  0  0  0  0  0
    4.2273   -5.0373    0.0000 C   0  0  0  0  0  0  0  0  0  0  0  0
    4.2280   -5.8631    0.0000 C   0  0  0  0  0  0  0  0  0  0  0  0
    4.9431   -6.2733    0.0000 C   0  0  0  0  0  0  0  0  0  0  0  0
    5.6579   -7.5126    0.0000 C   0  0  0  0  0  0  0  0  0  0  0  0
    5.6586   -8.3384    0.0000 O   0  0  0  0  0  0  0  0  0  0  0  0
    6.3722   -7.0970    0.0000 O   0  0  0  0  0  0  0  0  0  0  0  0
    6.3736   -8.7486    0.0000 C   0  0  0  0  0  0  0  0  0  0  0  0
    6.3743   -9.5745    0.0000 C   0  0  0  0  0  0  0  0  0  0  0  0
    5.6594   -9.9873    0.0000 C   0  0  0  0  0  0  0  0  0  0  0  0
    5.6597  -10.8123    0.0000 C   0  0  0  0  0  0  0  0  0  0  0  0
    6.3753  -11.2234    0.0000 C   0  0  0  0  0  0  0  0  0  0  0  0
    7.0919  -10.8075    0.0000 C   0  0  0  0  0  0  0  0  0  0  0  0
    7.0880   -9.9838    0.0000 C   0  0  0  0  0  0  0  0  0  0  0  0
    4.9439   -3.7956    0.0000 O   0  0  0  0  0  0  0  0  0  0  0  0
    4.2281   -2.5596    0.0000 O   0  0  0  0  0  0  0  0  0  0  0  0
    5.6573   -3.3828    0.0000 C   0  0  0  0  0  0  0  0  0  0  0  0
    6.3731   -3.7916    0.0000 C   0  0  0  0  0  0  0  0  0  0  0  0
    5.6550   -2.5570    0.0000 C   0  0  0  0  0  0  0  0  0  0  0  0
    6.3669   -2.9627    0.0000 C   0  0  0  0  0  0  0  0  0  0  0  0
    2.7960   -3.3860    0.0000 N   0  0  0  0  0  0  0  0  0  0  0  0
    4.9438   -7.0987    0.0000 N   0  0  0  0  0  0  0  0  0  0  0  0
   -1.4014   -1.2111    0.0000 C   0  0  0  0  0  0  0  0  0  0  0  0
   -1.0221   -0.4791    0.0000 C   0  0  0  0  0  0  0  0  0  0  0  0
   -1.4680    0.2145    0.0000 C   0  0  0  0  0  0  0  0  0  0  0  0
   -2.2933    0.1752    0.0000 C   0  0  0  0  0  0  0  0  0  0  0  0
   -2.6708   -0.5637    0.0000 C   0  0  0  0  0  0  0  0  0  0  0  0
   -2.2227   -1.2543    0.0000 C   0  0  0  0  0  0  0  0  0  0  0  0
  6  7  2  0
  6  8  1  0
  8  9  1  0
  9 10  1  0
  9 11  1  0
  9 12  1  0
  5 13  1  0
 13 14  1  0
  3 15  1  0
 16 17  1  0
 16 18  1  0
 18 19  1  0
 19 20  1  0
 20 21  1  0
 22 23  1  0
 22 24  2  0
 23 25  1  0
 25 26  1  0
 26 27  2  0
 27 28  1  0
 28 29  2  0
 29 30  1  0
 30 31  2  0
 31 26  1  0
 17 32  1  0
 17 33  2  0
 32 34  1  0
 34 35  1  0
 34 36  1  0
 34 37  1  0
  1  2  1  0
 15 38  1  0
 38 16  1  0
 21 39  1  0
 39 22  1  0
 14 40  1  0
  2  3  1  0
 40 41  2  0
  3  4  1  0
 41 42  1  0
  4  5  1  0
 42 43  2  0
  5  1  1  0
 43 44  1  0
  2  6  1  0
 44 45  2  0
 45 40  1  0
M  END
>  <Classification>  (234) 
1

>  <pchembl>  (234) 
6.66

>  <InChI_steorem>  (234) 
InChI=1S/C35H51N3O7/c1-34(2,3)44-31(39)30(19-13-14-20-36-32(40)43-25-27-17-11-8-12-18-27)37-22-28-21-29(42-24-26-15-9-7-10-16-26)23-38(28)33(41)45-35(4,5)6/h7-12,15-18,28-30,37H,13-14,19-25H2,1-6H3,(H,36,40)

>  <source>  (234) 
ChEMBL25

>  <source_id>  (234) 
25

>  <optional_reference>  (234) 
10.1021/jm100839w

>  <optional_origin>  (234) 
None

>  <target>  (234) 
MDR1

$$$$

     RDKit          2D

 46 48  0  0  0  0  0  0  0  0999 V2000
    0.0303   -3.3321    0.0000 C   0  0  0  0  0  0  0  0  0  0  0  0
    0.6782   -3.8417    0.0000 N   0  0  0  0  0  0  0  0  0  0  0  0
    1.3649   -3.3863    0.0000 C   0  0  0  0  0  0  0  0  0  0  0  0
    1.1435   -2.5889    0.0000 C   0  0  0  0  0  0  0  0  0  0  0  0
    0.3191   -2.5594    0.0000 C   0  0  0  0  0  0  0  0  0  0  0  0
    0.6448   -4.6668    0.0000 C   0  0  0  0  0  0  0  0  0  0  0  0
   -0.0858   -5.0525    0.0000 O   0  0  0  0  0  0  0  0  0  0  0  0
    1.3423   -5.1103    0.0000 O   0  0  0  0  0  0  0  0  0  0  0  0
    1.3089   -5.9355    0.0000 C   0  0  0  0  0  0  0  0  0  0  0  0
    2.0105   -6.3749    0.0000 C   0  0  0  0  0  0  0  0  0  0  0  0
    0.5782   -6.3172    0.0000 C   0  0  0  0  0  0  0  0  0  0  0  0
    1.3045   -6.7589    0.0000 C   0  0  0  0  0  0  0  0  0  0  0  0
   -0.1299   -1.8655    0.0000 O   0  0  0  0  0  0  0  0  0  0  0  0
   -0.9548   -1.9052    0.0000 C   0  0  0  0  0  0  0  0  0  0  0  0
    2.0798   -3.7965    0.0000 C   0  0  0  0  0  0  0  0  0  0  0  0
    3.5116   -3.7971    0.0000 C   0  0  0  0  0  0  0  0  0  0  0  0
    4.2259   -3.3856    0.0000 C   0  0  0  0  0  0  0  0  0  0  0  0
    3.5123   -4.6229    0.0000 C   0  0  0  0  0  0  0  0  0  0  0  0
    4.2273   -5.0373    0.0000 C   0  0  0  0  0  0  0  0  0  0  0  0
    4.2280   -5.8631    0.0000 C   0  0  0  0  0  0  0  0  0  0  0  0
    4.9431   -6.2733    0.0000 C   0  0  0  0  0  0  0  0  0  0  0  0
    5.6579   -7.5126    0.0000 C   0  0  0  0  0  0  0  0  0  0  0  0
    5.6586   -8.3384    0.0000 O   0  0  0  0  0  0  0  0  0  0  0  0
    6.3722   -7.0970    0.0000 O   0  0  0  0  0  0  0  0  0  0  0  0
    6.3736   -8.7486    0.0000 C   0  0  0  0  0  0  0  0  0  0  0  0
    6.3743   -9.5745    0.0000 C   0  0  0  0  0  0  0  0  0  0  0  0
    5.6594   -9.9873    0.0000 C   0  0  0  0  0  0  0  0  0  0  0  0
    5.6597  -10.8123    0.0000 C   0  0  0  0  0  0  0  0  0  0  0  0
    6.3753  -11.2234    0.0000 C   0  0  0  0  0  0  0  0  0  0  0  0
    7.0919  -10.8075    0.0000 C   0  0  0  0  0  0  0  0  0  0  0  0
    7.0880   -9.9838    0.0000 C   0  0  0  0  0  0  0  0  0  0  0  0
    4.9439   -3.7956    0.0000 O   0  0  0  0  0  0  0  0  0  0  0  0
    4.2281   -2.5596    0.0000 O   0  0  0  0  0  0  0  0  0  0  0  0
    5.6573   -3.3828    0.0000 C   0  0  0  0  0  0  0  0  0  0  0  0
    6.3731   -3.7916    0.0000 C   0  0  0  0  0  0  0  0  0  0  0  0
    5.6550   -2.5570    0.0000 C   0  0  0  0  0  0  0  0  0  0  0  0
    6.3669   -2.9627    0.0000 C   0  0  0  0  0  0  0  0  0  0  0  0
    2.7960   -3.3860    0.0000 N   0  0  0  0  0  0  0  0  0  0  0  0
    4.9438   -7.0987    0.0000 N   0  0  0  0  0  0  0  0  0  0  0  0
   -1.4014   -1.2111    0.0000 C   0  0  0  0  0  0  0  0  0  0  0  0
   -1.0221   -0.4791    0.0000 C   0  0  0  0  0  0  0  0  0  0  0  0
   -1.4680    0.2145    0.0000 C   0  0  0  0  0  0  0  0  0  0  0  0
   -2.2933    0.1752    0.0000 C   0  0  0  0  0  0  0  0  0  0  0  0
   -2.6708   -0.5637    0.0000 C   0  0  0  0  0  0  0  0  0  0  0  0
   -2.2227   -1.2543    0.0000 C   0  0  0  0  0  0  0  0  0  0  0  0
    2.0797   -4.6219    0.0000 O   0  0  0  0  0  0  0  0  0  0  0  0
  6  8  1  0
  8  9  1  0
  9 10  1  0
  9 11  1  0
  9 12  1  0
  5 13  1  0
 13 14  1  0
  3 15  1  0
 16 17  1  0
 16 18  1  0
 18 19  1  0
 19 20  1  0
 20 21  1  0
 22 23  1  0
 22 24  2  0
 23 25  1  0
 25 26  1  0
 26 27  2  0
 27 28  1  0
 28 29  2  0
 29 30  1  0
 30 31  2  0
 31 26  1  0
 17 32  1  0
 17 33  2  0
 32 34  1  0
 34 35  1  0
 34 36  1  0
 34 37  1  0
  1  2  1  0
 15 38  1  0
 38 16  1  0
 21 39  1  0
 39 22  1  0
 14 40  1  0
  2  3  1  0
 40 41  2  0
  3  4  1  0
 41 42  1  0
  4  5  1  0
 42 43  2  0
  5  1  1  0
 43 44  1  0
  2  6  1  0
 44 45  2  0
 45 40  1  0
  6  7  2  0
 15 46  2  0
M  END
>  <Classification>  (235) 
1

>  <pchembl>  (235) 
6.14

>  <InChI_steorem>  (235) 
InChI=1S/C35H49N3O8/c1-34(2,3)45-31(40)28(19-13-14-20-36-32(41)44-24-26-17-11-8-12-18-26)37-30(39)29-21-27(43-23-25-15-9-7-10-16-25)22-38(29)33(42)46-35(4,5)6/h7-12,15-18,27-29H,13-14,19-24H2,1-6H3,(H,36,41)(H,37,39)

>  <source>  (235) 
ChEMBL25

>  <source_id>  (235) 
25

>  <optional_reference>  (235) 
10.1021/jm100839w

>  <optional_origin>  (235) 
None

>  <target>  (235) 
MDR1

$$$$

     RDKit          2D

 46 48  0  0  0  0  0  0  0  0999 V2000
    1.3956   -1.8750    0.0000 C   0  0  0  0  0  0  0  0  0  0  0  0
    0.7036   -1.4244    0.0000 C   0  0  0  0  0  0  0  0  0  0  0  0
    0.7447   -0.5938    0.0000 C   0  0  0  0  0  0  0  0  0  0  0  0
    0.0534   -0.1434    0.0000 C   0  0  0  0  0  0  0  0  0  0  0  0
   -0.6818   -0.5180    0.0000 C   0  0  0  0  0  0  0  0  0  0  0  0
   -0.7251   -1.3455    0.0000 C   0  0  0  0  0  0  0  0  0  0  0  0
   -0.0331   -1.7923    0.0000 C   0  0  0  0  0  0  0  0  0  0  0  0
    2.3801   -3.3011    0.0000 C   0  0  0  0  0  0  0  0  0  0  0  0
    3.0277   -3.8103    0.0000 N   0  0  0  0  0  0  0  0  0  0  0  0
    3.7140   -3.3553    0.0000 C   0  0  0  0  0  0  0  0  0  0  0  0
    3.4927   -2.5582    0.0000 C   0  0  0  0  0  0  0  0  0  0  0  0
    2.6687   -2.5288    0.0000 C   0  0  0  0  0  0  0  0  0  0  0  0
    2.9943   -4.6350    0.0000 C   0  0  0  0  0  0  0  0  0  0  0  0
    2.2640   -5.0206    0.0000 O   0  0  0  0  0  0  0  0  0  0  0  0
    3.6914   -5.0783    0.0000 O   0  0  0  0  0  0  0  0  0  0  0  0
    3.6581   -5.9030    0.0000 C   0  0  0  0  0  0  0  0  0  0  0  0
    4.3592   -6.3422    0.0000 C   0  0  0  0  0  0  0  0  0  0  0  0
    2.9277   -6.2845    0.0000 C   0  0  0  0  0  0  0  0  0  0  0  0
    3.6537   -6.7260    0.0000 C   0  0  0  0  0  0  0  0  0  0  0  0
    2.2201   -1.8353    0.0000 O   0  0  0  0  0  0  0  0  0  0  0  0
    4.4285   -3.7652    0.0000 C   0  0  0  0  0  0  0  0  0  0  0  0
    4.4293   -4.5906    0.0000 O   0  0  0  0  0  0  0  0  0  0  0  0
    5.8595   -3.7658    0.0000 C   0  0  0  0  0  0  0  0  0  0  0  0
    6.5735   -3.3546    0.0000 C   0  0  0  0  0  0  0  0  0  0  0  0
    5.8602   -4.5912    0.0000 C   0  0  0  0  0  0  0  0  0  0  0  0
    6.5749   -5.0054    0.0000 C   0  0  0  0  0  0  0  0  0  0  0  0
    6.5756   -5.8307    0.0000 C   0  0  0  0  0  0  0  0  0  0  0  0
    7.2902   -6.2407    0.0000 C   0  0  0  0  0  0  0  0  0  0  0  0
    8.0047   -7.4793    0.0000 C   0  0  0  0  0  0  0  0  0  0  0  0
    8.0054   -8.3046    0.0000 O   0  0  0  0  0  0  0  0  0  0  0  0
    8.7185   -7.0639    0.0000 O   0  0  0  0  0  0  0  0  0  0  0  0
    8.7199   -8.7146    0.0000 C   0  0  0  0  0  0  0  0  0  0  0  0
    8.7206   -9.5401    0.0000 C   0  0  0  0  0  0  0  0  0  0  0  0
    8.0062   -9.9526    0.0000 C   0  0  0  0  0  0  0  0  0  0  0  0
    8.0065  -10.7772    0.0000 C   0  0  0  0  0  0  0  0  0  0  0  0
    8.7216  -11.1881    0.0000 C   0  0  0  0  0  0  0  0  0  0  0  0
    9.4379  -10.7724    0.0000 C   0  0  0  0  0  0  0  0  0  0  0  0
    9.4340   -9.9491    0.0000 C   0  0  0  0  0  0  0  0  0  0  0  0
    7.2910   -3.7643    0.0000 O   0  0  0  0  0  0  0  0  0  0  0  0
    6.5757   -2.5290    0.0000 O   0  0  0  0  0  0  0  0  0  0  0  0
    8.0041   -3.3518    0.0000 C   0  0  0  0  0  0  0  0  0  0  0  0
    8.7194   -3.7603    0.0000 C   0  0  0  0  0  0  0  0  0  0  0  0
    8.0018   -2.5264    0.0000 C   0  0  0  0  0  0  0  0  0  0  0  0
    8.7132   -2.9319    0.0000 C   0  0  0  0  0  0  0  0  0  0  0  0
    5.1443   -3.3550    0.0000 N   0  0  0  0  0  0  0  0  0  0  0  0
    7.2909   -7.0656    0.0000 N   0  0  0  0  0  0  0  0  0  0  0  0
  7  2  1  0
  1  2  1  0
  2  3  1  0
  3  4  1  0
  4  5  1  0
  5  6  1  0
  6  7  1  0
  9 10  1  0
 10 11  1  0
 11 12  1  0
 12  8  1  0
  9 13  1  0
 13 14  2  0
 13 15  1  0
 15 16  1  0
 16 17  1  0
 16 18  1  0
 16 19  1  0
 12 20  1  0
 20  1  1  0
 10 21  1  0
 21 22  2  0
 23 24  1  0
 23 25  1  0
 25 26  1  0
 26 27  1  0
 27 28  1  0
 29 30  1  0
 29 31  2  0
 30 32  1  0
 32 33  1  0
 33 34  2  0
 34 35  1  0
 35 36  2  0
 36 37  1  0
 37 38  2  0
 38 33  1  0
 24 39  1  0
 24 40  2  0
 39 41  1  0
 41 42  1  0
 41 43  1  0
 41 44  1  0
  8  9  1  0
 21 45  1  0
 45 23  1  0
 28 46  1  0
 46 29  1  0
M  END
>  <Classification>  (236) 
1

>  <pchembl>  (236) 
5.95

>  <InChI_steorem>  (236) 
InChI=1S/C35H55N3O8/c1-34(2,3)45-31(40)28(19-13-14-20-36-32(41)44-24-26-17-11-8-12-18-26)37-30(39)29-21-27(43-23-25-15-9-7-10-16-25)22-38(29)33(42)46-35(4,5)6/h8,11-12,17-18,25,27-29H,7,9-10,13-16,19-24H2,1-6H3,(H,36,41)(H,37,39)

>  <source>  (236) 
ChEMBL25

>  <source_id>  (236) 
25

>  <optional_reference>  (236) 
10.1021/jm100839w

>  <optional_origin>  (236) 
None

>  <target>  (236) 
MDR1

$$$$

     RDKit          2D

 47 49  0  0  0  0  0  0  0  0999 V2000
    2.9798   -2.3725    0.0000 C   0  0  0  0  0  0  0  0  0  0  0  0
    2.2582   -1.9590    0.0000 C   0  0  0  0  0  0  0  0  0  0  0  0
    1.5432   -2.3706    0.0000 C   0  0  0  0  0  0  0  0  0  0  0  0
    1.5435   -3.1959    0.0000 C   0  0  0  0  0  0  0  0  0  0  0  0
    2.2613   -3.6099    0.0000 C   0  0  0  0  0  0  0  0  0  0  0  0
    2.9734   -3.1959    0.0000 C   0  0  0  0  0  0  0  0  0  0  0  0
    4.4012   -5.3180    0.0000 C   0  0  0  0  0  0  0  0  0  0  0  0
    5.0488   -5.8273    0.0000 N   0  0  0  0  0  0  0  0  0  0  0  0
    5.7351   -5.3722    0.0000 C   0  0  0  0  0  0  0  0  0  0  0  0
    5.5138   -4.5751    0.0000 C   0  0  0  0  0  0  0  0  0  0  0  0
    4.6898   -4.5457    0.0000 C   0  0  0  0  0  0  0  0  0  0  0  0
    5.0154   -6.6520    0.0000 C   0  0  0  0  0  0  0  0  0  0  0  0
    4.2851   -7.0376    0.0000 O   0  0  0  0  0  0  0  0  0  0  0  0
    5.7125   -7.0953    0.0000 O   0  0  0  0  0  0  0  0  0  0  0  0
    5.6792   -7.9201    0.0000 C   0  0  0  0  0  0  0  0  0  0  0  0
    6.3804   -8.3593    0.0000 C   0  0  0  0  0  0  0  0  0  0  0  0
    4.9488   -8.3016    0.0000 C   0  0  0  0  0  0  0  0  0  0  0  0
    5.6748   -8.7431    0.0000 C   0  0  0  0  0  0  0  0  0  0  0  0
    4.2411   -3.8521    0.0000 O   0  0  0  0  0  0  0  0  0  0  0  0
    3.4166   -3.8918    0.0000 C   0  0  0  0  0  0  0  0  0  0  0  0
    3.0408   -4.6251    0.0000 O   0  0  0  0  0  0  0  0  0  0  0  0
    6.4497   -5.7822    0.0000 C   0  0  0  0  0  0  0  0  0  0  0  0
    6.4505   -6.6076    0.0000 O   0  0  0  0  0  0  0  0  0  0  0  0
    7.8808   -5.7828    0.0000 C   0  0  0  0  0  0  0  0  0  0  0  0
    8.5948   -5.3715    0.0000 C   0  0  0  0  0  0  0  0  0  0  0  0
    7.8815   -6.6082    0.0000 C   0  0  0  0  0  0  0  0  0  0  0  0
    8.5962   -7.0224    0.0000 C   0  0  0  0  0  0  0  0  0  0  0  0
    8.5969   -7.8478    0.0000 C   0  0  0  0  0  0  0  0  0  0  0  0
    9.3116   -8.2578    0.0000 C   0  0  0  0  0  0  0  0  0  0  0  0
   10.0261   -9.4965    0.0000 C   0  0  0  0  0  0  0  0  0  0  0  0
   10.0268  -10.3219    0.0000 O   0  0  0  0  0  0  0  0  0  0  0  0
   10.7400   -9.0811    0.0000 O   0  0  0  0  0  0  0  0  0  0  0  0
   10.7414  -10.7319    0.0000 C   0  0  0  0  0  0  0  0  0  0  0  0
   10.7421  -11.5574    0.0000 C   0  0  0  0  0  0  0  0  0  0  0  0
   10.0276  -11.9700    0.0000 C   0  0  0  0  0  0  0  0  0  0  0  0
   10.0279  -12.7946    0.0000 C   0  0  0  0  0  0  0  0  0  0  0  0
   10.7431  -13.2055    0.0000 C   0  0  0  0  0  0  0  0  0  0  0  0
   11.4594  -12.7898    0.0000 C   0  0  0  0  0  0  0  0  0  0  0  0
   11.4555  -11.9665    0.0000 C   0  0  0  0  0  0  0  0  0  0  0  0
    9.3124   -5.7813    0.0000 O   0  0  0  0  0  0  0  0  0  0  0  0
    8.5970   -4.5459    0.0000 O   0  0  0  0  0  0  0  0  0  0  0  0
   10.0255   -5.3687    0.0000 C   0  0  0  0  0  0  0  0  0  0  0  0
   10.7409   -5.7773    0.0000 C   0  0  0  0  0  0  0  0  0  0  0  0
   10.0232   -4.5433    0.0000 C   0  0  0  0  0  0  0  0  0  0  0  0
   10.7347   -4.9488    0.0000 C   0  0  0  0  0  0  0  0  0  0  0  0
    7.1655   -5.3719    0.0000 N   0  0  0  0  0  0  0  0  0  0  0  0
    9.3123   -9.0828    0.0000 N   0  0  0  0  0  0  0  0  0  0  0  0
  6  1  1  0
  1  2  1  0
  2  3  1  0
  3  4  1  0
  4  5  1  0
  5  6  1  0
  8  9  1  0
  9 10  1  0
 10 11  1  0
 11  7  1  0
  8 12  1  0
 12 13  2  0
 12 14  1  0
 14 15  1  0
 15 16  1  0
 15 17  1  0
 15 18  1  0
 11 19  1  0
 19 20  1  0
 20  6  1  0
 20 21  2  0
  9 22  1  0
 22 23  2  0
 24 25  1  0
 24 26  1  0
 26 27  1  0
 27 28  1  0
 28 29  1  0
 30 31  1  0
 30 32  2  0
 31 33  1  0
 33 34  1  0
 34 35  2  0
 35 36  1  0
 36 37  2  0
 37 38  1  0
 38 39  2  0
 39 34  1  0
 25 40  1  0
 25 41  2  0
 40 42  1  0
 42 43  1  0
 42 44  1  0
 42 45  1  0
  7  8  1  0
 22 46  1  0
 46 24  1  0
 29 47  1  0
 47 30  1  0
M  END
>  <Classification>  (237) 
1

>  <pchembl>  (237) 
5.78

>  <InChI_steorem>  (237) 
InChI=1S/C35H53N3O9/c1-34(2,3)46-31(41)27(19-13-14-20-36-32(42)44-23-24-15-9-7-10-16-24)37-29(39)28-21-26(22-38(28)33(43)47-35(4,5)6)45-30(40)25-17-11-8-12-18-25/h7,9-10,15-16,25-28H,8,11-14,17-23H2,1-6H3,(H,36,42)(H,37,39)

>  <source>  (237) 
ChEMBL25

>  <source_id>  (237) 
25

>  <optional_reference>  (237) 
10.1021/jm100839w

>  <optional_origin>  (237) 
None

>  <target>  (237) 
MDR1

$$$$

     RDKit          2D

 40 44  0  0  0  0  0  0  0  0999 V2000
    5.9454   -9.4245    0.0000 C   0  0  0  0  0  0  0  0  0  0  0  0
    5.9679  -10.2479    0.0000 C   0  0  0  0  0  0  0  0  0  0  0  0
    6.6904  -10.6379    0.0000 C   0  0  0  0  0  0  0  0  0  0  0  0
    6.6455   -8.9997    0.0000 C   0  0  0  0  0  0  0  0  0  0  0  0
    7.3680   -9.3856    0.0000 C   0  0  0  0  0  0  0  0  0  0  0  0
    7.3864  -10.2089    0.0000 C   0  0  0  0  0  0  0  0  0  0  0  0
    8.1131  -10.5989    0.0000 C   0  0  0  0  0  0  0  0  0  0  0  0
    8.8090  -10.1700    0.0000 C   0  0  0  0  0  0  0  0  0  0  0  0
    8.7864   -9.3467    0.0000 C   0  0  0  0  0  0  0  0  0  0  0  0
    8.0681   -8.9607    0.0000 C   0  0  0  0  0  0  0  0  0  0  0  0
    6.6231   -8.1806    0.0000 O   0  0  0  0  0  0  0  0  0  0  0  0
    7.4004  -11.0001    0.0000 O   0  0  0  0  0  0  0  0  0  0  0  0
    8.8241  -10.9484    0.0000 C   0  0  0  0  0  0  0  0  0  0  0  0
    8.0473   -8.1669    0.0000 O   0  0  0  0  0  0  0  0  0  0  0  0
    8.7235   -7.7456    0.0000 C   0  0  0  0  0  0  0  0  0  0  0  0
    8.7028   -6.9517    0.0000 O   0  0  0  0  0  0  0  0  0  0  0  0
    9.5345  -10.5304    0.0000 C   0  0  0  0  0  0  0  0  0  0  0  0
    9.2277  -11.6649    0.0000 C   0  0  0  0  0  0  0  0  0  0  0  0
    7.3620   -8.5553    0.0000 C   0  0  0  0  0  0  0  0  0  0  0  0
    5.8956   -7.7844    0.0000 C   0  0  0  0  0  0  0  0  0  0  0  0
    5.8729   -6.9569    0.0000 C   0  0  0  0  0  0  0  0  0  0  0  0
    5.1909   -8.2199    0.0000 O   0  0  0  0  0  0  0  0  0  0  0  0
    6.5364   -6.4528    0.0000 C   0  0  0  0  0  0  0  0  0  0  0  0
    6.2577   -5.6722    0.0000 O   0  0  0  0  0  0  0  0  0  0  0  0
    5.4290   -5.6962    0.0000 C   0  0  0  0  0  0  0  0  0  0  0  0
    5.1959   -6.4917    0.0000 C   0  0  0  0  0  0  0  0  0  0  0  0
    5.2187   -9.0312    0.0000 O   0  0  0  0  0  0  0  0  0  0  0  0
    4.5132   -9.4612    0.0000 C   0  0  0  0  0  0  0  0  0  0  0  0
    3.7865   -9.0678    0.0000 C   0  0  0  0  0  0  0  0  0  0  0  0
    4.5344  -10.2887    0.0000 O   0  0  0  0  0  0  0  0  0  0  0  0
    6.1014  -11.2195    0.0000 O   0  0  0  0  0  0  0  0  0  0  0  0
    9.4514   -8.1410    0.0000 C   0  0  0  0  0  0  0  0  0  0  0  0
   10.1557   -7.7048    0.0000 C   0  0  0  0  0  0  0  0  0  0  0  0
   10.8835   -8.1001    0.0000 C   0  0  0  0  0  0  0  0  0  0  0  0
   10.9040   -8.9259    0.0000 C   0  0  0  0  0  0  0  0  0  0  0  0
   11.6310   -9.3171    0.0000 C   0  0  0  0  0  0  0  0  0  0  0  0
   12.3405   -8.8850    0.0000 C   0  0  0  0  0  0  0  0  0  0  0  0
   12.3141   -8.0533    0.0000 C   0  0  0  0  0  0  0  0  0  0  0  0
   11.5824   -7.6617    0.0000 C   0  0  0  0  0  0  0  0  0  0  0  0
    6.6855  -11.4673    0.0000 C   0  0  0  0  0  0  0  0  0  0  0  0
  6  7  1  0
  5 19  1  0
  7  8  1  0
 11 20  1  0
  8  9  1  0
 20 21  1  0
  9 10  1  0
 20 22  2  0
 23 24  1  0
  4 11  1  0
  6 12  1  0
  1  2  1  0
 21 23  2  0
 24 25  1  0
 25 26  2  0
 26 21  1  0
 12 13  1  0
  1 27  1  0
  8 13  1  0
 27 28  1  0
  1  4  1  0
 28 29  1  0
 10 14  1  0
 28 30  2  0
  2  3  1  0
  3 31  1  0
 14 15  1  0
 15 32  1  0
  3  6  1  0
 32 33  2  3
 15 16  2  0
 33 34  1  0
  5  4  1  0
 34 35  2  0
 35 36  1  0
  5  6  1  0
 36 37  2  0
 13 17  1  0
 37 38  1  0
  5 10  1  0
 38 39  2  0
 39 34  1  0
 13 18  1  0
  3 40  1  0
M  END
>  <Classification>  (238) 
1

>  <pchembl>  (238) 
6.24

>  <InChI_steorem>  (238) 
InChI=1S/C31H36O9/c1-19(32)37-23-17-29(4,35)31-16-22(28(2,3)40-31)15-24(38-25(33)12-11-20-9-7-6-8-10-20)30(31,5)26(23)39-27(34)21-13-14-36-18-21/h6-14,18,22-24,26,35H,15-17H2,1-5H3

>  <source>  (238) 
ChEMBL25

>  <source_id>  (238) 
25

>  <optional_reference>  (238) 
10.1016/j.ejmech.2011.07.048

>  <optional_origin>  (238) 
None

>  <target>  (238) 
MDR1

$$$$

     RDKit          2D

 41 45  0  0  0  0  0  0  0  0999 V2000
    6.0351   -1.0669    0.0000 C   0  0  0  0  0  0  0  0  0  0  0  0
    6.0577   -1.8946    0.0000 C   0  0  0  0  0  0  0  0  0  0  0  0
    6.7846   -2.2848    0.0000 C   0  0  0  0  0  0  0  0  0  0  0  0
    6.7396   -0.6378    0.0000 C   0  0  0  0  0  0  0  0  0  0  0  0
    7.4623   -1.0280    0.0000 C   0  0  0  0  0  0  0  0  0  0  0  0
    7.4849   -1.8557    0.0000 C   0  0  0  0  0  0  0  0  0  0  0  0
    8.2118   -2.2459    0.0000 C   0  0  0  0  0  0  0  0  0  0  0  0
    8.9120   -1.8167    0.0000 C   0  0  0  0  0  0  0  0  0  0  0  0
    8.8894   -0.9891    0.0000 C   0  0  0  0  0  0  0  0  0  0  0  0
    8.1668   -0.5989    0.0000 C   0  0  0  0  0  0  0  0  0  0  0  0
    6.7172    0.1857    0.0000 O   0  0  0  0  0  0  0  0  0  0  0  0
    7.4989   -2.6513    0.0000 O   0  0  0  0  0  0  0  0  0  0  0  0
    8.9272   -2.5995    0.0000 C   0  0  0  0  0  0  0  0  0  0  0  0
    8.1461    0.1994    0.0000 O   0  0  0  0  0  0  0  0  0  0  0  0
    8.8266    0.6208    0.0000 C   0  0  0  0  0  0  0  0  0  0  0  0
    8.8058    1.4191    0.0000 O   0  0  0  0  0  0  0  0  0  0  0  0
    9.5279    0.2352    0.0000 C   0  0  0  0  0  0  0  0  0  0  0  0
    9.6419   -2.1772    0.0000 C   0  0  0  0  0  0  0  0  0  0  0  0
    9.3351   -3.3162    0.0000 C   0  0  0  0  0  0  0  0  0  0  0  0
    7.4563   -0.1934    0.0000 C   0  0  0  0  0  0  0  0  0  0  0  0
    5.9854    0.5820    0.0000 C   0  0  0  0  0  0  0  0  0  0  0  0
    5.9627    1.4140    0.0000 C   0  0  0  0  0  0  0  0  0  0  0  0
    5.2763    0.1464    0.0000 O   0  0  0  0  0  0  0  0  0  0  0  0
    6.6263    1.9224    0.0000 C   0  0  0  0  0  0  0  0  0  0  0  0
    6.3475    2.7075    0.0000 O   0  0  0  0  0  0  0  0  0  0  0  0
    5.5145    2.6834    0.0000 C   0  0  0  0  0  0  0  0  0  0  0  0
    5.2813    1.8835    0.0000 C   0  0  0  0  0  0  0  0  0  0  0  0
    5.3041   -0.6693    0.0000 O   0  0  0  0  0  0  0  0  0  0  0  0
    4.5942   -1.1036    0.0000 C   0  0  0  0  0  0  0  0  0  0  0  0
    3.8631   -0.7059    0.0000 C   0  0  0  0  0  0  0  0  0  0  0  0
    4.6153   -1.9356    0.0000 O   0  0  0  0  0  0  0  0  0  0  0  0
    5.3495   -2.3316    0.0000 O   0  0  0  0  0  0  0  0  0  0  0  0
    5.3737   -3.1634    0.0000 C   0  0  0  0  0  0  0  0  0  0  0  0
    4.6654   -3.6004    0.0000 C   0  0  0  0  0  0  0  0  0  0  0  0
    6.1062   -3.5583    0.0000 O   0  0  0  0  0  0  0  0  0  0  0  0
    9.5425   -0.5658    0.0000 C   0  0  0  0  0  0  0  0  0  0  0  0
   10.2430   -0.9513    0.0000 C   0  0  0  0  0  0  0  0  0  0  0  0
   10.9284   -0.5367    0.0000 C   0  0  0  0  0  0  0  0  0  0  0  0
   10.9090    0.2675    0.0000 C   0  0  0  0  0  0  0  0  0  0  0  0
   10.2081    0.6493    0.0000 C   0  0  0  0  0  0  0  0  0  0  0  0
    6.8083   -3.1166    0.0000 C   0  0  0  0  0  0  0  0  0  0  0  0
 13 19  1  0
  7  8  1  0
  5 20  1  0
  8  9  1  0
 11 21  1  0
  9 10  1  0
 21 22  1  0
  4 11  1  0
 21 23  2  0
 24 25  1  0
  6 12  1  0
  1  2  1  0
 12 13  1  0
 22 24  2  0
 25 26  1  0
 26 27  2  0
 27 22  1  0
  8 13  1  0
  1 28  1  0
  1  4  1  0
 28 29  1  0
 10 14  1  0
 29 30  1  0
  2  3  1  0
 29 31  2  0
 14 15  1  0
  2 32  1  0
  3  6  1  0
 32 33  1  0
 15 16  2  0
 33 34  1  0
  5  4  1  0
 33 35  2  0
 15 17  1  0
 17 36  2  0
  5  6  1  0
 36 37  1  0
 37 38  2  0
  5 10  1  0
 38 39  1  0
 13 18  1  0
 39 40  2  0
 40 17  1  0
  6  7  1  0
  3 41  1  0
M  END
>  <Classification>  (239) 
1

>  <pchembl>  (239) 
6.19

>  <InChI_steorem>  (239) 
InChI=1S/C31H36O10/c1-17-24(37-18(2)32)25(38-19(3)33)26(40-28(35)21-12-13-36-16-21)30(6)23(39-27(34)20-10-8-7-9-11-20)14-22-15-31(17,30)41-29(22,4)5/h7-13,16-17,22-26H,14-15H2,1-6H3

>  <source>  (239) 
ChEMBL25

>  <source_id>  (239) 
25

>  <optional_reference>  (239) 
10.1016/j.ejmech.2011.07.048

>  <optional_origin>  (239) 
None

>  <target>  (239) 
MDR1

$$$$

     RDKit          2D

 44 48  0  0  0  0  0  0  0  0999 V2000
   -3.1029   -7.7296    0.0000 C   0  0  0  0  0  0  0  0  0  0  0  0
   -2.3617   -7.0828    0.0000 O   0  0  0  0  0  0  0  0  0  0  0  0
   -4.4773   -9.0917    0.0000 C   0  0  0  0  0  0  0  0  0  0  0  0
   -4.4547   -9.9195    0.0000 C   0  0  0  0  0  0  0  0  0  0  0  0
   -3.7278  -10.3097    0.0000 C   0  0  0  0  0  0  0  0  0  0  0  0
   -3.7728   -8.6625    0.0000 C   0  0  0  0  0  0  0  0  0  0  0  0
   -3.0500   -9.0528    0.0000 C   0  0  0  0  0  0  0  0  0  0  0  0
   -3.0274   -9.8806    0.0000 C   0  0  0  0  0  0  0  0  0  0  0  0
   -2.3004  -10.2708    0.0000 C   0  0  0  0  0  0  0  0  0  0  0  0
   -1.6000   -9.8417    0.0000 C   0  0  0  0  0  0  0  0  0  0  0  0
   -1.6226   -9.0139    0.0000 C   0  0  0  0  0  0  0  0  0  0  0  0
   -2.3454   -8.6236    0.0000 C   0  0  0  0  0  0  0  0  0  0  0  0
   -3.7953   -7.8389    0.0000 O   0  0  0  0  0  0  0  0  0  0  0  0
   -5.2044   -8.7015    0.0000 O   0  0  0  0  0  0  0  0  0  0  0  0
   -3.0134  -10.6762    0.0000 O   0  0  0  0  0  0  0  0  0  0  0  0
   -1.5849  -10.6245    0.0000 C   0  0  0  0  0  0  0  0  0  0  0  0
   -2.2837  -11.0685    0.0000 O   0  0  0  0  0  0  0  0  0  0  0  0
   -4.5014   -7.4587    0.0000 C   0  0  0  0  0  0  0  0  0  0  0  0
   -4.5233   -6.6561    0.0000 C   0  0  0  0  0  0  0  0  0  0  0  0
   -5.1817   -7.8767    0.0000 O   0  0  0  0  0  0  0  0  0  0  0  0
   -2.3836   -6.2802    0.0000 C   0  0  0  0  0  0  0  0  0  0  0  0
   -1.6991   -5.8621    0.0000 O   0  0  0  0  0  0  0  0  0  0  0  0
   -3.0855   -5.8999    0.0000 C   0  0  0  0  0  0  0  0  0  0  0  0
   -2.3662   -7.8251    0.0000 O   0  0  0  0  0  0  0  0  0  0  0  0
   -1.6855   -7.4037    0.0000 C   0  0  0  0  0  0  0  0  0  0  0  0
   -1.7063   -6.6053    0.0000 O   0  0  0  0  0  0  0  0  0  0  0  0
   -0.9842   -7.7893    0.0000 C   0  0  0  0  0  0  0  0  0  0  0  0
   -0.8702  -10.2021    0.0000 C   0  0  0  0  0  0  0  0  0  0  0  0
   -1.1771  -11.3413    0.0000 C   0  0  0  0  0  0  0  0  0  0  0  0
   -2.7071  -11.7868    0.0000 C   0  0  0  0  0  0  0  0  0  0  0  0
   -3.5393  -11.7793    0.0000 O   0  0  0  0  0  0  0  0  0  0  0  0
   -2.2975  -12.5113    0.0000 C   0  0  0  0  0  0  0  0  0  0  0  0
   -2.7240  -13.2257    0.0000 C   0  0  0  0  0  0  0  0  0  0  0  0
   -2.3151  -13.9497    0.0000 C   0  0  0  0  0  0  0  0  0  0  0  0
   -1.4819  -13.9576    0.0000 C   0  0  0  0  0  0  0  0  0  0  0  0
   -1.0593  -13.2356    0.0000 C   0  0  0  0  0  0  0  0  0  0  0  0
   -1.4707  -12.5145    0.0000 C   0  0  0  0  0  0  0  0  0  0  0  0
   -0.9697   -8.5906    0.0000 C   0  0  0  0  0  0  0  0  0  0  0  0
   -0.2690   -8.9760    0.0000 C   0  0  0  0  0  0  0  0  0  0  0  0
    0.4165   -8.5614    0.0000 C   0  0  0  0  0  0  0  0  0  0  0  0
    0.3971   -7.7571    0.0000 C   0  0  0  0  0  0  0  0  0  0  0  0
   -0.3039   -7.3752    0.0000 C   0  0  0  0  0  0  0  0  0  0  0  0
   -4.3213  -10.8957    0.0000 O   0  0  0  0  0  0  0  0  0  0  0  0
   -3.4104  -11.0260    0.0000 C   0  0  0  0  0  0  0  0  0  0  0  0
  7  8  1  0
 21 22  2  0
  7 12  1  0
 21 23  1  0
  8  9  1  0
 12 24  1  0
  9 10  1  0
 24 25  1  0
 10 11  1  0
 25 26  2  0
 11 12  1  0
 25 27  1  0
  6 13  1  0
  3 14  1  0
 16 28  1  0
  7  1  1  0
 16 29  1  0
 17 30  1  0
  8 15  1  0
 30 31  2  0
  1  2  1  0
 30 32  1  0
 15 16  1  0
 32 33  2  0
 10 16  1  0
 33 34  1  0
  3  4  1  0
 34 35  2  0
  9 17  1  0
 35 36  1  0
  3  6  1  0
 36 37  2  0
 37 32  1  0
 13 18  1  0
 27 38  2  0
  4  5  1  0
 38 39  1  0
 18 19  1  0
 39 40  2  0
  5  8  1  0
 40 41  1  0
 18 20  2  0
 41 42  2  0
 42 27  1  0
  7  6  1  0
  5 43  1  0
  2 21  1  0
  5 44  1  0
M  END
>  <Classification>  (240) 
1

>  <pchembl>  (240) 
6.33

>  <InChI_steorem>  (240) 
InChI=1S/C33H38O11/c1-19(34)40-18-32-25(42-28(37)21-12-8-6-9-13-21)16-23-26(43-29(38)22-14-10-7-11-15-22)33(32,44-30(23,3)4)31(5,39)17-24(36)27(32)41-20(2)35/h6-15,23-27,36,39H,16-18H2,1-5H3

>  <source>  (240) 
ChEMBL25

>  <source_id>  (240) 
25

>  <optional_reference>  (240) 
10.1016/j.ejmech.2011.07.048

>  <optional_origin>  (240) 
None

>  <target>  (240) 
MDR1

$$$$

     RDKit          2D

 45 49  0  0  0  0  0  0  0  0999 V2000
    7.5233  -15.5850    0.0000 C   0  0  0  0  0  0  0  0  0  0  0  0
    8.2644  -14.9383    0.0000 O   0  0  0  0  0  0  0  0  0  0  0  0
    6.1489  -16.9471    0.0000 C   0  0  0  0  0  0  0  0  0  0  0  0
    6.1715  -17.7748    0.0000 C   0  0  0  0  0  0  0  0  0  0  0  0
    6.8984  -18.1650    0.0000 C   0  0  0  0  0  0  0  0  0  0  0  0
    6.8534  -16.5179    0.0000 C   0  0  0  0  0  0  0  0  0  0  0  0
    7.5761  -16.9082    0.0000 C   0  0  0  0  0  0  0  0  0  0  0  0
    7.5987  -17.7359    0.0000 C   0  0  0  0  0  0  0  0  0  0  0  0
    8.3257  -18.1261    0.0000 C   0  0  0  0  0  0  0  0  0  0  0  0
    9.0260  -17.6969    0.0000 C   0  0  0  0  0  0  0  0  0  0  0  0
    9.0034  -16.8692    0.0000 C   0  0  0  0  0  0  0  0  0  0  0  0
    8.2807  -16.4789    0.0000 C   0  0  0  0  0  0  0  0  0  0  0  0
    6.8310  -15.6944    0.0000 O   0  0  0  0  0  0  0  0  0  0  0  0
    5.4221  -16.5569    0.0000 O   0  0  0  0  0  0  0  0  0  0  0  0
    7.6127  -18.5315    0.0000 O   0  0  0  0  0  0  0  0  0  0  0  0
    9.0411  -18.4798    0.0000 C   0  0  0  0  0  0  0  0  0  0  0  0
    8.3425  -18.9237    0.0000 O   0  0  0  0  0  0  0  0  0  0  0  0
    6.1249  -15.3142    0.0000 C   0  0  0  0  0  0  0  0  0  0  0  0
    6.1029  -14.5116    0.0000 C   0  0  0  0  0  0  0  0  0  0  0  0
    5.4447  -15.7322    0.0000 O   0  0  0  0  0  0  0  0  0  0  0  0
    8.2425  -14.1358    0.0000 C   0  0  0  0  0  0  0  0  0  0  0  0
    8.9270  -13.7177    0.0000 O   0  0  0  0  0  0  0  0  0  0  0  0
    7.5406  -13.7555    0.0000 C   0  0  0  0  0  0  0  0  0  0  0  0
    8.2600  -15.6806    0.0000 O   0  0  0  0  0  0  0  0  0  0  0  0
    8.9405  -15.2592    0.0000 C   0  0  0  0  0  0  0  0  0  0  0  0
    8.9197  -14.4608    0.0000 O   0  0  0  0  0  0  0  0  0  0  0  0
    9.6418  -15.6448    0.0000 C   0  0  0  0  0  0  0  0  0  0  0  0
    9.7558  -18.0574    0.0000 C   0  0  0  0  0  0  0  0  0  0  0  0
    9.4491  -19.1965    0.0000 C   0  0  0  0  0  0  0  0  0  0  0  0
    7.9190  -19.6420    0.0000 C   0  0  0  0  0  0  0  0  0  0  0  0
    7.0868  -19.6344    0.0000 O   0  0  0  0  0  0  0  0  0  0  0  0
    8.3287  -20.3664    0.0000 C   0  0  0  0  0  0  0  0  0  0  0  0
    4.7145  -16.9952    0.0000 C   0  0  0  0  0  0  0  0  0  0  0  0
    3.9812  -16.6016    0.0000 C   0  0  0  0  0  0  0  0  0  0  0  0
    4.7403  -17.8271    0.0000 O   0  0  0  0  0  0  0  0  0  0  0  0
    9.6399  -16.4490    0.0000 C   0  0  0  0  0  0  0  0  0  0  0  0
   10.4024  -16.6951    0.0000 O   0  0  0  0  0  0  0  0  0  0  0  0
   10.8710  -16.0449    0.0000 C   0  0  0  0  0  0  0  0  0  0  0  0
   10.3966  -15.3993    0.0000 C   0  0  0  0  0  0  0  0  0  0  0  0
    8.0423  -21.1488    0.0000 C   0  0  0  0  0  0  0  0  0  0  0  0
    8.7001  -21.6601    0.0000 O   0  0  0  0  0  0  0  0  0  0  0  0
    9.3890  -21.1910    0.0000 C   0  0  0  0  0  0  0  0  0  0  0  0
    9.1546  -20.3914    0.0000 C   0  0  0  0  0  0  0  0  0  0  0  0
    6.3050  -18.7509    0.0000 O   0  0  0  0  0  0  0  0  0  0  0  0
    7.0907  -18.8813    0.0000 C   0  0  0  0  0  0  0  0  0  0  0  0
 21 22  2  0
  7 12  1  0
 21 23  1  0
  8  9  1  0
 12 24  1  0
  9 10  1  0
 24 25  1  0
 10 11  1  0
 25 26  2  0
 11 12  1  0
 25 27  1  0
  6 13  1  0
  3 14  1  0
 16 28  1  0
  7  1  1  0
 16 29  1  0
 17 30  1  0
  8 15  1  0
 30 31  2  0
  1  2  1  0
 30 32  1  0
 15 16  1  0
 14 33  1  0
 10 16  1  0
 33 34  1  0
  3  4  1  0
 33 35  2  0
 36 37  1  0
  9 17  1  0
  3  6  1  0
 13 18  1  0
  4  5  1  0
 27 36  2  0
 37 38  1  0
 38 39  2  0
 39 27  1  0
 40 41  1  0
 18 19  1  0
  5  8  1  0
 18 20  2  0
  7  6  1  0
 32 40  2  0
 41 42  1  0
 42 43  2  0
 43 32  1  0
  2 21  1  0
  5 44  1  0
  7  8  1  0
  5 45  1  0
M  END
>  <Classification>  (241) 
1

>  <pchembl>  (241) 
6.29

>  <InChI_steorem>  (241) 
InChI=1S/C31H36O14/c1-16(32)40-15-30-23(43-26(35)19-7-9-38-13-19)11-21-24(44-27(36)20-8-10-39-14-20)31(30,45-28(21,4)5)29(6,37)12-22(41-17(2)33)25(30)42-18(3)34/h7-10,13-14,21-25,37H,11-12,15H2,1-6H3

>  <source>  (241) 
ChEMBL25

>  <source_id>  (241) 
25

>  <optional_reference>  (241) 
10.1016/j.ejmech.2011.07.048

>  <optional_origin>  (241) 
None

>  <target>  (241) 
MDR1

$$$$

     RDKit          2D

 46 50  0  0  0  0  0  0  0  0999 V2000
    7.5018    1.2407    0.0000 C   0  0  0  0  0  0  0  0  0  0  0  0
    8.2430    1.8875    0.0000 O   0  0  0  0  0  0  0  0  0  0  0  0
    6.1276   -0.1213    0.0000 C   0  0  0  0  0  0  0  0  0  0  0  0
    6.1502   -0.9489    0.0000 C   0  0  0  0  0  0  0  0  0  0  0  0
    6.8771   -1.3391    0.0000 C   0  0  0  0  0  0  0  0  0  0  0  0
    6.8321    0.3079    0.0000 C   0  0  0  0  0  0  0  0  0  0  0  0
    7.5548   -0.0823    0.0000 C   0  0  0  0  0  0  0  0  0  0  0  0
    7.5774   -0.9100    0.0000 C   0  0  0  0  0  0  0  0  0  0  0  0
    8.3043   -1.3002    0.0000 C   0  0  0  0  0  0  0  0  0  0  0  0
    9.0045   -0.8710    0.0000 C   0  0  0  0  0  0  0  0  0  0  0  0
    8.9819   -0.0434    0.0000 C   0  0  0  0  0  0  0  0  0  0  0  0
    8.2593    0.3468    0.0000 C   0  0  0  0  0  0  0  0  0  0  0  0
    6.8096    1.1314    0.0000 O   0  0  0  0  0  0  0  0  0  0  0  0
    5.4007    0.2688    0.0000 O   0  0  0  0  0  0  0  0  0  0  0  0
    7.5914   -1.7056    0.0000 O   0  0  0  0  0  0  0  0  0  0  0  0
    9.0197   -1.6538    0.0000 C   0  0  0  0  0  0  0  0  0  0  0  0
    8.3210   -2.0978    0.0000 O   0  0  0  0  0  0  0  0  0  0  0  0
    6.1035    1.5116    0.0000 C   0  0  0  0  0  0  0  0  0  0  0  0
    6.0816    2.3141    0.0000 C   0  0  0  0  0  0  0  0  0  0  0  0
    5.4234    1.0936    0.0000 O   0  0  0  0  0  0  0  0  0  0  0  0
    4.7222   -0.1518    0.0000 C   0  0  0  0  0  0  0  0  0  0  0  0
    8.2212    2.6899    0.0000 C   0  0  0  0  0  0  0  0  0  0  0  0
    8.9055    3.1080    0.0000 O   0  0  0  0  0  0  0  0  0  0  0  0
    7.5193    3.0702    0.0000 C   0  0  0  0  0  0  0  0  0  0  0  0
    8.2385    1.1451    0.0000 O   0  0  0  0  0  0  0  0  0  0  0  0
    8.9191    1.5665    0.0000 C   0  0  0  0  0  0  0  0  0  0  0  0
    8.8983    2.3648    0.0000 O   0  0  0  0  0  0  0  0  0  0  0  0
    9.6204    1.1809    0.0000 C   0  0  0  0  0  0  0  0  0  0  0  0
    9.6384    0.3782    0.0000 C   0  0  0  0  0  0  0  0  0  0  0  0
   10.4061    0.1483    0.0000 O   0  0  0  0  0  0  0  0  0  0  0  0
   10.8608    0.8083    0.0000 C   0  0  0  0  0  0  0  0  0  0  0  0
   10.3727    1.4439    0.0000 C   0  0  0  0  0  0  0  0  0  0  0  0
    9.7344   -1.2315    0.0000 C   0  0  0  0  0  0  0  0  0  0  0  0
    9.4275   -2.3705    0.0000 C   0  0  0  0  0  0  0  0  0  0  0  0
    3.9889    0.2415    0.0000 C   0  0  0  0  0  0  0  0  0  0  0  0
    4.7484   -0.9836    0.0000 O   0  0  0  0  0  0  0  0  0  0  0  0
    7.8976   -2.8161    0.0000 C   0  0  0  0  0  0  0  0  0  0  0  0
    7.0654   -2.8085    0.0000 O   0  0  0  0  0  0  0  0  0  0  0  0
    8.3072   -3.5406    0.0000 C   0  0  0  0  0  0  0  0  0  0  0  0
    7.8807   -4.2547    0.0000 C   0  0  0  0  0  0  0  0  0  0  0  0
    8.2896   -4.9786    0.0000 C   0  0  0  0  0  0  0  0  0  0  0  0
    9.1227   -4.9867    0.0000 C   0  0  0  0  0  0  0  0  0  0  0  0
    9.5452   -4.2647    0.0000 C   0  0  0  0  0  0  0  0  0  0  0  0
    9.1339   -3.5437    0.0000 C   0  0  0  0  0  0  0  0  0  0  0  0
    6.2837   -1.9250    0.0000 O   0  0  0  0  0  0  0  0  0  0  0  0
    7.0695   -2.0553    0.0000 C   0  0  0  0  0  0  0  0  0  0  0  0
  7 12  1  0
 22 23  2  0
  8  9  1  0
 22 24  1  0
  9 10  1  0
 12 25  1  0
 10 11  1  0
 25 26  1  0
 11 12  1  0
 26 27  2  0
  6 13  1  0
 26 28  1  0
 29 30  1  0
  3 14  1  0
  7  1  1  0
  8 15  1  0
 28 29  2  0
 30 31  1  0
 31 32  2  0
 32 28  1  0
  1  2  1  0
 15 16  1  0
 16 33  1  0
 10 16  1  0
 16 34  1  0
  3  4  1  0
 21 35  1  0
  9 17  1  0
 21 36  2  0
  3  6  1  0
 17 37  1  0
 13 18  1  0
 37 38  2  0
  4  5  1  0
 37 39  1  0
 18 19  1  0
 39 40  2  0
  5  8  1  0
 40 41  1  0
 18 20  2  0
 41 42  2  0
  7  6  1  0
 42 43  1  0
 14 21  1  0
 43 44  2  0
 44 39  1  0
  7  8  1  0
  5 45  1  0
  2 22  1  0
  5 46  1  0
M  END
>  <Classification>  (242) 
1

>  <pchembl>  (242) 
6.23

>  <InChI_steorem>  (242) 
InChI=1S/C33H38O13/c1-18(34)41-17-32-25(44-29(38)22-12-13-40-16-22)14-23-26(45-28(37)21-10-8-7-9-11-21)33(32,46-30(23,4)5)31(6,39)15-24(42-19(2)35)27(32)43-20(3)36/h7-13,16,23-27,39H,14-15,17H2,1-6H3

>  <source>  (242) 
ChEMBL25

>  <source_id>  (242) 
25

>  <optional_reference>  (242) 
10.1016/j.ejmech.2011.07.048

>  <optional_origin>  (242) 
None

>  <target>  (242) 
MDR1

$$$$

     RDKit          2D

 47 52  0  0  0  0  0  0  0  0999 V2000
   15.5738  -17.0461    0.0000 C   0  0  0  0  0  0  0  0  0  0  0  0
   15.5964  -17.8746    0.0000 C   0  0  0  0  0  0  0  0  0  0  0  0
   16.3240  -18.2651    0.0000 C   0  0  0  0  0  0  0  0  0  0  0  0
   16.2790  -16.6166    0.0000 C   0  0  0  0  0  0  0  0  0  0  0  0
   17.0023  -17.0071    0.0000 C   0  0  0  0  0  0  0  0  0  0  0  0
   17.0249  -17.8356    0.0000 C   0  0  0  0  0  0  0  0  0  0  0  0
   17.7525  -18.2261    0.0000 C   0  0  0  0  0  0  0  0  0  0  0  0
   18.4534  -17.7966    0.0000 C   0  0  0  0  0  0  0  0  0  0  0  0
   18.4308  -16.9682    0.0000 C   0  0  0  0  0  0  0  0  0  0  0  0
   17.7075  -16.5776    0.0000 C   0  0  0  0  0  0  0  0  0  0  0  0
   16.2564  -15.7923    0.0000 O   0  0  0  0  0  0  0  0  0  0  0  0
   14.8462  -16.6557    0.0000 O   0  0  0  0  0  0  0  0  0  0  0  0
   17.0390  -18.6319    0.0000 O   0  0  0  0  0  0  0  0  0  0  0  0
   18.4686  -18.5801    0.0000 C   0  0  0  0  0  0  0  0  0  0  0  0
   17.7693  -19.0245    0.0000 O   0  0  0  0  0  0  0  0  0  0  0  0
   15.5497  -15.4118    0.0000 C   0  0  0  0  0  0  0  0  0  0  0  0
   15.5278  -14.6086    0.0000 C   0  0  0  0  0  0  0  0  0  0  0  0
   14.8689  -15.8302    0.0000 O   0  0  0  0  0  0  0  0  0  0  0  0
   14.1671  -17.0767    0.0000 C   0  0  0  0  0  0  0  0  0  0  0  0
   13.4631  -16.6988    0.0000 C   0  0  0  0  0  0  0  0  0  0  0  0
   13.4405  -15.9007    0.0000 C   0  0  0  0  0  0  0  0  0  0  0  0
   12.7329  -15.5188    0.0000 C   0  0  0  0  0  0  0  0  0  0  0  0
   12.0527  -15.9399    0.0000 C   0  0  0  0  0  0  0  0  0  0  0  0
   12.0806  -16.7474    0.0000 C   0  0  0  0  0  0  0  0  0  0  0  0
   12.7843  -17.1213    0.0000 C   0  0  0  0  0  0  0  0  0  0  0  0
   17.6867  -15.7786    0.0000 O   0  0  0  0  0  0  0  0  0  0  0  0
   18.3679  -15.3568    0.0000 C   0  0  0  0  0  0  0  0  0  0  0  0
   18.3471  -14.5578    0.0000 O   0  0  0  0  0  0  0  0  0  0  0  0
   19.0698  -15.7427    0.0000 C   0  0  0  0  0  0  0  0  0  0  0  0
   19.0879  -16.5462    0.0000 C   0  0  0  0  0  0  0  0  0  0  0  0
   19.8563  -16.7763    0.0000 O   0  0  0  0  0  0  0  0  0  0  0  0
   20.3114  -16.1157    0.0000 C   0  0  0  0  0  0  0  0  0  0  0  0
   19.8228  -15.4795    0.0000 C   0  0  0  0  0  0  0  0  0  0  0  0
   19.1839  -18.1574    0.0000 C   0  0  0  0  0  0  0  0  0  0  0  0
   18.8768  -19.2975    0.0000 C   0  0  0  0  0  0  0  0  0  0  0  0
   14.1931  -17.9093    0.0000 O   0  0  0  0  0  0  0  0  0  0  0  0
   17.3455  -19.7435    0.0000 C   0  0  0  0  0  0  0  0  0  0  0  0
   16.5125  -19.7359    0.0000 O   0  0  0  0  0  0  0  0  0  0  0  0
   17.7554  -20.4686    0.0000 C   0  0  0  0  0  0  0  0  0  0  0  0
   17.3285  -21.1834    0.0000 C   0  0  0  0  0  0  0  0  0  0  0  0
   17.7379  -21.9080    0.0000 C   0  0  0  0  0  0  0  0  0  0  0  0
   18.5716  -21.9161    0.0000 C   0  0  0  0  0  0  0  0  0  0  0  0
   18.9946  -21.1934    0.0000 C   0  0  0  0  0  0  0  0  0  0  0  0
   18.5829  -20.4718    0.0000 C   0  0  0  0  0  0  0  0  0  0  0  0
   16.9962  -16.1717    0.0000 C   0  0  0  0  0  0  0  0  0  0  0  0
   15.7300  -18.8515    0.0000 O   0  0  0  0  0  0  0  0  0  0  0  0
   16.5479  -18.9820    0.0000 C   0  0  0  0  0  0  0  0  0  0  0  0
 22 23  2  0
  9 10  1  0
 23 24  1  0
  4 11  1  0
 24 25  2  0
 25 20  1  0
  1 12  1  0
 10 26  1  0
 26 27  1  0
  6 13  1  0
 27 28  2  0
  1  2  1  0
 27 29  1  0
 30 31  1  0
 13 14  1  0
  8 14  1  0
  1  4  1  0
  7 15  1  0
 29 30  2  0
 31 32  1  0
 32 33  2  0
 33 29  1  0
  2  3  1  0
 11 16  1  0
 14 34  1  0
  3  6  1  0
 14 35  1  0
 16 17  1  0
 19 36  2  0
  5  4  1  0
 15 37  1  0
 16 18  2  0
 37 38  2  0
  5  6  1  0
 37 39  1  0
 12 19  1  0
 39 40  2  0
  5 10  1  0
 40 41  1  0
 19 20  1  0
 41 42  2  0
  6  7  1  0
 42 43  1  0
 20 21  2  0
 43 44  2  0
 44 39  1  0
  7  8  1  0
  5 45  1  0
 21 22  1  0
  3 46  1  0
  8  9  1  0
  3 47  1  0
M  END
>  <Classification>  (243) 
1

>  <pchembl>  (243) 
6.42

>  <InChI_steorem>  (243) 
InChI=1S/C36H38O11/c1-21(37)43-29-26(44-30(38)22-12-8-6-9-13-22)19-34(4,41)36-28(46-31(39)23-14-10-7-11-15-23)25(33(2,3)47-36)18-27(35(29,36)5)45-32(40)24-16-17-42-20-24/h6-17,20,25-29,41H,18-19H2,1-5H3

>  <source>  (243) 
ChEMBL25

>  <source_id>  (243) 
25

>  <optional_reference>  (243) 
10.1016/j.ejmech.2011.07.048

>  <optional_origin>  (243) 
None

>  <target>  (243) 
MDR1

$$$$

     RDKit          2D

 51 56  0  0  0  0  0  0  0  0999 V2000
   -0.5950    1.0201    0.0000 C   0  0  0  0  0  0  0  0  0  0  0  0
    0.1495    1.6687    0.0000 O   0  0  0  0  0  0  0  0  0  0  0  0
   -1.9703   -0.3426    0.0000 C   0  0  0  0  0  0  0  0  0  0  0  0
   -1.9473   -1.1708    0.0000 C   0  0  0  0  0  0  0  0  0  0  0  0
   -1.2214   -1.5630    0.0000 C   0  0  0  0  0  0  0  0  0  0  0  0
   -1.2629    0.0892    0.0000 C   0  0  0  0  0  0  0  0  0  0  0  0
   -0.5413   -0.3030    0.0000 C   0  0  0  0  0  0  0  0  0  0  0  0
   -0.5184   -1.1313    0.0000 C   0  0  0  0  0  0  0  0  0  0  0  0
    0.2074   -1.5234    0.0000 C   0  0  0  0  0  0  0  0  0  0  0  0
    0.9105   -1.0917    0.0000 C   0  0  0  0  0  0  0  0  0  0  0  0
    0.8875   -0.2635    0.0000 C   0  0  0  0  0  0  0  0  0  0  0  0
    0.1660    0.1246    0.0000 C   0  0  0  0  0  0  0  0  0  0  0  0
   -1.2856    0.9132    0.0000 O   0  0  0  0  0  0  0  0  0  0  0  0
   -2.6961    0.0496    0.0000 O   0  0  0  0  0  0  0  0  0  0  0  0
   -0.5041   -1.9270    0.0000 O   0  0  0  0  0  0  0  0  0  0  0  0
    0.9259   -1.8744    0.0000 C   0  0  0  0  0  0  0  0  0  0  0  0
    0.2246   -2.3211    0.0000 O   0  0  0  0  0  0  0  0  0  0  0  0
   -1.9947    1.2911    0.0000 C   0  0  0  0  0  0  0  0  0  0  0  0
   -2.0169    2.0938    0.0000 C   0  0  0  0  0  0  0  0  0  0  0  0
   -2.6731    0.8748    0.0000 O   0  0  0  0  0  0  0  0  0  0  0  0
   -3.3769   -0.3736    0.0000 C   0  0  0  0  0  0  0  0  0  0  0  0
   -4.0789    0.0057    0.0000 C   0  0  0  0  0  0  0  0  0  0  0  0
   -4.1019    0.8031    0.0000 C   0  0  0  0  0  0  0  0  0  0  0  0
   -4.8116    1.1867    0.0000 C   0  0  0  0  0  0  0  0  0  0  0  0
   -5.4895    0.7633    0.0000 C   0  0  0  0  0  0  0  0  0  0  0  0
   -5.4611   -0.0435    0.0000 C   0  0  0  0  0  0  0  0  0  0  0  0
   -4.7594   -0.4189    0.0000 C   0  0  0  0  0  0  0  0  0  0  0  0
    0.1272    2.4713    0.0000 C   0  0  0  0  0  0  0  0  0  0  0  0
    0.8100    2.8877    0.0000 O   0  0  0  0  0  0  0  0  0  0  0  0
   -0.5774    2.8536    0.0000 C   0  0  0  0  0  0  0  0  0  0  0  0
    0.1450    0.9272    0.0000 O   0  0  0  0  0  0  0  0  0  0  0  0
    0.8237    1.3469    0.0000 C   0  0  0  0  0  0  0  0  0  0  0  0
    0.8026    2.1454    0.0000 O   0  0  0  0  0  0  0  0  0  0  0  0
    1.5277    0.9594    0.0000 C   0  0  0  0  0  0  0  0  0  0  0  0
    1.5461    0.1565    0.0000 C   0  0  0  0  0  0  0  0  0  0  0  0
    2.3134   -0.0730    0.0000 O   0  0  0  0  0  0  0  0  0  0  0  0
    2.7671    0.5893    0.0000 C   0  0  0  0  0  0  0  0  0  0  0  0
    2.2794    1.2223    0.0000 C   0  0  0  0  0  0  0  0  0  0  0  0
    1.6393   -1.4536    0.0000 C   0  0  0  0  0  0  0  0  0  0  0  0
    1.3319   -2.5941    0.0000 C   0  0  0  0  0  0  0  0  0  0  0  0
   -3.3505   -1.2061    0.0000 O   0  0  0  0  0  0  0  0  0  0  0  0
   -0.1972   -3.0382    0.0000 C   0  0  0  0  0  0  0  0  0  0  0  0
   -1.0301   -3.0306    0.0000 O   0  0  0  0  0  0  0  0  0  0  0  0
    0.2105   -3.7659    0.0000 C   0  0  0  0  0  0  0  0  0  0  0  0
   -0.2143   -4.4788    0.0000 C   0  0  0  0  0  0  0  0  0  0  0  0
    0.1926   -5.2017    0.0000 C   0  0  0  0  0  0  0  0  0  0  0  0
    1.0263   -5.2098    0.0000 C   0  0  0  0  0  0  0  0  0  0  0  0
    1.4513   -4.4890    0.0000 C   0  0  0  0  0  0  0  0  0  0  0  0
    1.0377   -3.7690    0.0000 C   0  0  0  0  0  0  0  0  0  0  0  0
   -1.8117   -2.1456    0.0000 O   0  0  0  0  0  0  0  0  0  0  0  0
   -1.0266   -2.2467    0.0000 C   0  0  0  0  0  0  0  0  0  0  0  0
 24 25  2  0
 10 11  1  0
 25 26  1  0
 11 12  1  0
 26 27  2  0
 27 22  1  0
  6 13  1  0
  2 28  1  0
  3 14  1  0
 28 29  2  0
  7  1  1  0
 28 30  1  0
 12 31  1  0
  8 15  1  0
 31 32  1  0
  1  2  1  0
 32 33  2  0
 15 16  1  0
 32 34  1  0
 35 36  1  0
 10 16  1  0
  3  4  1  0
  9 17  1  0
  3  6  1  0
 34 35  2  0
 36 37  1  0
 37 38  2  0
 38 34  1  0
 13 18  1  0
  4  5  1  0
 16 39  1  0
 18 19  1  0
 16 40  1  0
  5  8  1  0
 21 41  2  0
 18 20  2  0
 17 42  1  0
  7  6  1  0
 42 43  2  0
 14 21  1  0
 42 44  1  0
  7  8  1  0
 44 45  2  0
 21 22  1  0
 45 46  1  0
  7 12  1  0
 46 47  2  0
 22 23  2  0
 47 48  1  0
  8  9  1  0
 48 49  2  0
 49 44  1  0
 23 24  1  0
  5 50  1  0
  9 10  1  0
  5 51  1  0
M  END
>  <Classification>  (244) 
1

>  <pchembl>  (244) 
6.47

>  <InChI_steorem>  (244) 
InChI=1S/C38H40O13/c1-22(39)46-21-37-29(49-34(43)26-16-17-45-20-26)18-27-30(50-33(42)25-14-10-7-11-15-25)38(37,51-35(27,3)4)36(5,44)19-28(31(37)47-23(2)40)48-32(41)24-12-8-6-9-13-24/h6-17,20,27-31,44H,18-19,21H2,1-5H3

>  <source>  (244) 
ChEMBL25

>  <source_id>  (244) 
25

>  <optional_reference>  (244) 
10.1016/j.ejmech.2011.07.048

>  <optional_origin>  (244) 
None

>  <target>  (244) 
MDR1

$$$$

     RDKit          2D

 21 23  0  0  0  0  0  0  0  0999 V2000
    0.0000    1.5002    0.0000 N   0  0  0  0  0  0  0  0  0  0  0  0
   -1.2989    0.7501    0.0000 C   0  0  0  0  0  0  0  0  0  0  0  0
    0.0000   -1.5002    0.0000 S   0  0  0  0  0  0  0  0  0  0  0  0
    1.2806    0.7501    0.0000 C   0  0  0  0  0  0  0  0  0  0  0  0
   -1.2989   -0.7501    0.0000 C   0  0  0  0  0  0  0  0  0  0  0  0
    1.2806   -0.7501    0.0000 C   0  0  0  0  0  0  0  0  0  0  0  0
   -2.5978    1.5002    0.0000 C   0  0  0  0  0  0  0  0  0  0  0  0
   -2.5978   -1.5002    0.0000 C   0  0  0  0  0  0  0  0  0  0  0  0
    0.0120    3.0009    0.0000 C   0  0  0  0  0  0  0  0  0  0  0  0
   -3.8968    0.7501    0.0000 C   0  0  0  0  0  0  0  0  0  0  0  0
    1.3173    3.7417    0.0000 C   0  0  0  0  0  0  0  0  0  0  0  0
    2.6346    5.9832    0.0000 N   0  0  0  0  0  0  0  0  0  0  0  0
   -3.8968   -0.7501    0.0000 C   0  0  0  0  0  0  0  0  0  0  0  0
   -4.9360    1.3500    0.0000 Cl  0  0  0  0  0  0  0  0  0  0  0  0
    2.5978    1.5002    0.0000 C   0  0  0  0  0  0  0  0  0  0  0  0
    2.5978   -1.5002    0.0000 C   0  0  0  0  0  0  0  0  0  0  0  0
    1.3293    5.2425    0.0000 C   0  0  0  0  0  0  0  0  0  0  0  0
    2.6443    7.1832    0.0000 C   0  0  0  0  0  0  0  0  0  0  0  0
    3.6692    5.3752    0.0000 C   0  0  0  0  0  0  0  0  0  0  0  0
    3.8968    0.7501    0.0000 C   0  0  0  0  0  0  0  0  0  0  0  0
    3.8968   -0.7501    0.0000 C   0  0  0  0  0  0  0  0  0  0  0  0
  2  1  1  0
  3  6  1  0
  4  1  1  0
  5  2  2  0
  6  4  2  0
  7  2  1  0
  8  5  1  0
  9  1  1  0
 10  7  2  0
 11  9  1  0
 12 17  1  0
 13 10  1  0
 14 10  1  0
 15  4  1  0
 16  6  1  0
 17 11  1  0
 18 12  1  0
 19 12  1  0
 20 15  2  0
 21 20  1  0
  3  5  1  0
 16 21  2  0
  8 13  2  0
M  END
>  <Classification>  (245) 
0

>  <pchembl>  (245) 
4.91

>  <InChI_steorem>  (245) 
InChI=1S/C17H19ClN2S/c1-19(2)10-5-11-20-14-6-3-4-7-16(14)21-17-9-8-13(18)12-15(17)20/h3-4,6-9,12H,5,10-11H2,1-2H3

>  <source>  (245) 
ChEMBL25

>  <source_id>  (245) 
25

>  <optional_reference>  (245) 
10.1021/jm020941h

>  <optional_origin>  (245) 
None

>  <target>  (245) 
MDR1

$$$$

     RDKit          2D

 24 27  0  0  0  0  0  0  0  0999 V2000
   -1.0028   -1.5132    0.0000 C   0  0  0  0  0  0  0  0  0  0  0  0
   -1.0028    1.5132    0.0000 C   0  0  0  0  0  0  0  0  0  0  0  0
   -2.3155    0.7475    0.0000 C   0  0  0  0  0  0  0  0  0  0  0  0
   -2.3155   -0.7475    0.0000 C   0  0  0  0  0  0  0  0  0  0  0  0
   -3.6217    1.4865    0.0000 O   0  0  0  0  0  0  0  0  0  0  0  0
   -4.9153    0.7255    0.0000 C   0  0  0  0  0  0  0  0  0  0  0  0
   -6.2216    1.4644    0.0000 C   0  0  0  0  0  0  0  0  0  0  0  0
   -7.5156    0.7056    0.0000 C   0  0  0  0  0  0  0  0  0  0  0  0
   -8.8197    1.4467    0.0000 C   0  0  0  0  0  0  0  0  0  0  0  0
   -8.8299    2.9467    0.0000 C   0  0  0  0  0  0  0  0  0  0  0  0
   -7.5360    3.7055    0.0000 N   0  0  0  0  0  0  0  0  0  0  0  0
   -6.2319    2.9644    0.0000 C   0  0  0  0  0  0  0  0  0  0  0  0
   -7.5054   -0.7951    0.0000 C   0  0  0  0  0  0  0  0  0  0  0  0
   -6.2025   -1.5385    0.0000 C   0  0  0  0  0  0  0  0  0  0  0  0
   -6.1947   -3.0384    0.0000 C   0  0  0  0  0  0  0  0  0  0  0  0
   -7.4898   -3.7952    0.0000 C   0  0  0  0  0  0  0  0  0  0  0  0
   -8.7927   -3.0520    0.0000 C   0  0  0  0  0  0  0  0  0  0  0  0
   -8.8005   -1.5520    0.0000 C   0  0  0  0  0  0  0  0  0  0  0  0
    0.2917    0.7475    0.0000 C   0  0  0  0  0  0  0  0  0  0  0  0
    0.2917   -0.7475    0.0000 C   0  0  0  0  0  0  0  0  0  0  0  0
    1.7138   -1.2033    0.0000 O   0  0  0  0  0  0  0  0  0  0  0  0
    2.5889    0.0182    0.0000 C   0  0  0  0  0  0  0  0  0  0  0  0
    1.7138    1.2033    0.0000 O   0  0  0  0  0  0  0  0  0  0  0  0
   -7.4835   -4.9952    0.0000 F   0  0  0  0  0  0  0  0  0  0  0  0
  1 20  2  0
 19  2  2  0
  2  3  1  0
  3  4  2  0
  4  1  1  0
  3  5  1  0
  5  6  1  0
  7  6  1  0
  7  8  1  0
  7 12  1  0
  8  9  1  0
  9 10  1  0
 10 11  1  0
 11 12  1  0
 13 14  2  0
 14 15  1  0
 15 16  2  0
 16 17  1  0
 17 18  2  0
 18 13  1  0
  8 13  1  0
 19 20  1  0
 20 21  1  0
 21 22  1  0
 22 23  1  0
 23 19  1  0
 16 24  1  0
M  END
>  <Classification>  (246) 
0

>  <pchembl>  (246) 
4.53

>  <InChI_steorem>  (246) 
InChI=1S/C19H20FNO3/c20-15-3-1-13(2-4-15)17-7-8-21-10-14(17)11-22-16-5-6-18-19(9-16)24-12-23-18/h1-6,9,14,17,21H,7-8,10-12H2

>  <source>  (246) 
ChEMBL25

>  <source_id>  (246) 
25

>  <optional_reference>  (246) 
10.1124/jpet.102.046532

>  <optional_origin>  (246) 
None

>  <target>  (246) 
MDR1

$$$$

     RDKit          2D

 28 29  0  0  0  0  0  0  0  0999 V2000
    0.6077   -0.1698    0.0000 C   0  0  0  0  0  0  0  0  0  0  0  0
    0.1566    2.3888    0.0000 C   0  0  0  0  0  0  0  0  0  0  0  0
    1.1208    1.2398    0.0000 C   0  0  0  0  0  0  0  0  0  0  0  0
   -1.3206    2.1284    0.0000 C   0  0  0  0  0  0  0  0  0  0  0  0
   -0.8695   -0.4302    0.0000 C   0  0  0  0  0  0  0  0  0  0  0  0
   -1.8337    0.7188    0.0000 N   0  0  0  0  0  0  0  0  0  0  0  0
    3.3910   -0.6597    0.0000 N   0  0  0  0  0  0  0  0  0  0  0  0
    2.5987    1.5004    0.0000 C   0  0  0  0  0  0  0  0  0  0  0  0
    3.8991    0.7525    0.0000 C   0  0  0  0  0  0  0  0  0  0  0  0
    1.1182   -1.5811    0.0000 C   0  0  0  0  0  0  0  0  0  0  0  0
    0.6670    3.8002    0.0000 C   0  0  0  0  0  0  0  0  0  0  0  0
    2.4067   -0.8367    0.0000 O   0  0  0  0  0  0  0  0  0  0  0  0
    4.1651   -1.5766    0.0000 O   0  0  0  0  0  0  0  0  0  0  0  0
    0.1518   -2.7295    0.0000 O   0  0  0  0  0  0  0  0  0  0  0  0
    2.1027   -1.7565    0.0000 O   0  0  0  0  0  0  0  0  0  0  0  0
   -0.1065    4.7176    0.0000 O   0  0  0  0  0  0  0  0  0  0  0  0
    2.1443    4.0648    0.0000 O   0  0  0  0  0  0  0  0  0  0  0  0
   -1.2799   -1.5579    0.0000 C   0  0  0  0  0  0  0  0  0  0  0  0
   -2.0920    3.0476    0.0000 C   0  0  0  0  0  0  0  0  0  0  0  0
    0.6622   -4.1408    0.0000 C   0  0  0  0  0  0  0  0  0  0  0  0
    2.5964    3.0004    0.0000 C   0  0  0  0  0  0  0  0  0  0  0  0
    5.1969    1.5046    0.0000 C   0  0  0  0  0  0  0  0  0  0  0  0
   -0.3041   -5.2892    0.0000 C   0  0  0  0  0  0  0  0  0  0  0  0
    2.5524    5.1933    0.0000 C   0  0  0  0  0  0  0  0  0  0  0  0
    3.8943    3.7525    0.0000 C   0  0  0  0  0  0  0  0  0  0  0  0
    0.1040   -6.4176    0.0000 C   0  0  0  0  0  0  0  0  0  0  0  0
   -1.4855   -5.0787    0.0000 C   0  0  0  0  0  0  0  0  0  0  0  0
    5.1945    3.0046    0.0000 C   0  0  0  0  0  0  0  0  0  0  0  0
  2  3  1  0
  3  1  1  0
  4  6  1  0
  5  1  2  0
  6  5  1  0
  7  9  1  0
  8  3  1  0
  9  8  2  0
 10  1  1  0
 11  2  1  0
 12  7  1  0
 13  7  2  0
 14 10  1  0
 15 10  2  0
 16 11  2  0
 17 11  1  0
 18  5  1  0
 19  4  1  0
 20 14  1  0
 21  8  1  0
 22  9  1  0
 23 20  1  0
 24 17  1  0
 25 21  2  0
 26 23  1  0
 27 23  1  0
 28 25  1  0
  2  4  2  0
 28 22  2  0
M  CHG  2   7   1  12  -1
M  END
>  <Classification>  (247) 
0

>  <pchembl>  (247) 
4.36

>  <InChI_steorem>  (247) 
InChI=1S/C20H24N2O6/c1-11(2)10-28-20(24)17-13(4)21-12(3)16(19(23)27-5)18(17)14-8-6-7-9-15(14)22(25)26/h6-9,11,18,21H,10H2,1-5H3

>  <source>  (247) 
ChEMBL25

>  <source_id>  (247) 
25

>  <optional_reference>  (247) 
10.1016/s0928-0987(02)00082-9

>  <optional_origin>  (247) 
None

>  <target>  (247) 
MDR1

$$$$

     RDKit          2D

 29 31  0  0  0  0  0  0  0  0999 V2000
   -2.3155    0.7475    0.0000 C   0  0  0  0  0  0  0  0  0  0  0  0
   -2.3155   -0.7475    0.0000 C   0  0  0  0  0  0  0  0  0  0  0  0
   -1.0028   -1.5132    0.0000 C   0  0  0  0  0  0  0  0  0  0  0  0
   -1.0028    1.5132    0.0000 C   0  0  0  0  0  0  0  0  0  0  0  0
    0.2917    0.7475    0.0000 C   0  0  0  0  0  0  0  0  0  0  0  0
    0.2917   -0.7475    0.0000 C   0  0  0  0  0  0  0  0  0  0  0  0
    1.7138   -1.2033    0.0000 O   0  0  0  0  0  0  0  0  0  0  0  0
    2.5889    0.0182    0.0000 C   0  0  0  0  0  0  0  0  0  0  0  0
    1.7138    1.2033    0.0000 C   0  0  0  0  0  0  0  0  0  0  0  0
    4.0872    0.0320    0.0000 C   0  0  0  0  0  0  0  0  0  0  0  0
    4.8506   -1.2602    0.0000 C   0  0  0  0  0  0  0  0  0  0  0  0
    6.3513   -1.2462    0.0000 C   0  0  0  0  0  0  0  0  0  0  0  0
    6.9616   -2.2794    0.0000 C   0  0  0  0  0  0  0  0  0  0  0  0
    2.1812    2.6271    0.0000 C   0  0  0  0  0  0  0  0  0  0  0  0
    3.6500    2.9355    0.0000 C   0  0  0  0  0  0  0  0  0  0  0  0
    1.3808    3.5211    0.0000 O   0  0  0  0  0  0  0  0  0  0  0  0
    4.1200    4.3600    0.0000 C   0  0  0  0  0  0  0  0  0  0  0  0
    5.5886    4.6654    0.0000 C   0  0  0  0  0  0  0  0  0  0  0  0
    6.5873    3.5462    0.0000 C   0  0  0  0  0  0  0  0  0  0  0  0
    6.1174    2.1217    0.0000 C   0  0  0  0  0  0  0  0  0  0  0  0
    4.6488    1.8163    0.0000 C   0  0  0  0  0  0  0  0  0  0  0  0
    8.0574    3.8486    0.0000 O   0  0  0  0  0  0  0  0  0  0  0  0
    9.0550    2.7274    0.0000 C   0  0  0  0  0  0  0  0  0  0  0  0
   10.5250    3.0299    0.0000 C   0  0  0  0  0  0  0  0  0  0  0  0
   11.5227    1.9087    0.0000 N   0  0  0  0  0  0  0  0  0  0  0  0
    6.9164    1.2263    0.0000 I   0  0  0  0  0  0  0  0  0  0  0  0
    5.9645    5.8050    0.0000 I   0  0  0  0  0  0  0  0  0  0  0  0
   12.9927    2.2111    0.0000 C   0  0  0  0  0  0  0  0  0  0  0  0
   13.7904    1.3146    0.0000 C   0  0  0  0  0  0  0  0  0  0  0  0
  9 14  1  0
  1  2  2  0
 14 15  1  0
  5  4  2  0
 14 16  2  0
  6  7  1  0
 15 17  2  0
  7  8  1  0
 17 18  1  0
  8  9  2  0
 18 19  2  0
  9  5  1  0
 19 20  1  0
  4  1  1  0
 20 21  2  0
 21 15  1  0
  8 10  1  0
 19 22  1  0
  5  6  1  0
 22 23  1  0
 10 11  1  0
 23 24  1  0
 24 25  1  0
 11 12  1  0
 20 26  1  0
  2  3  1  0
 18 27  1  0
 12 13  1  0
 25 28  1  0
  3  6  2  0
 28 29  1  0
M  END
>  <Classification>  (248) 
0

>  <pchembl>  (248) 
4.6

>  <InChI_steorem>  (248) 
InChI=1S/C23H25I2NO3/c1-3-5-9-20-21(16-8-6-7-10-19(16)29-20)22(27)15-13-17(24)23(18(25)14-15)28-12-11-26-4-2/h6-8,10,13-14,26H,3-5,9,11-12H2,1-2H3

>  <source>  (248) 
ChEMBL25

>  <source_id>  (248) 
25

>  <optional_reference>  (248) 
10.1016/s0928-0987(00)00215-3

>  <optional_origin>  (248) 
None

>  <target>  (248) 
MDR1

$$$$

     RDKit          2D

 30 32  0  0  0  0  0  0  0  0999 V2000
    0.0000    0.7486    0.0000 C   0  0  0  0  0  0  0  0  0  0  0  0
    0.0000   -0.7486    0.0000 C   0  0  0  0  0  0  0  0  0  0  0  0
    1.2964   -1.4973    0.0000 C   0  0  0  0  0  0  0  0  0  0  0  0
    2.5911   -3.7520    0.0000 C   0  0  0  0  0  0  0  0  0  0  0  0
   -1.2447   -7.4974    0.0000 C   0  0  0  0  0  0  0  0  0  0  0  0
   -1.2964    1.4973    0.0000 C   0  0  0  0  0  0  0  0  0  0  0  0
    1.2933   -2.9981    0.0000 O   0  0  0  0  0  0  0  0  0  0  0  0
    1.2964    1.4973    0.0000 C   0  0  0  0  0  0  0  0  0  0  0  0
   -1.2964   -1.4973    0.0000 C   0  0  0  0  0  0  0  0  0  0  0  0
   -1.2596   -5.9975    0.0000 O   0  0  0  0  0  0  0  0  0  0  0  0
   -2.6111    0.7486    0.0000 C   0  0  0  0  0  0  0  0  0  0  0  0
   -2.5363   -8.2603    0.0000 C   0  0  0  0  0  0  0  0  0  0  0  0
    2.5880   -5.2529    0.0000 C   0  0  0  0  0  0  0  0  0  0  0  0
   -1.2845   -2.9981    0.0000 C   0  0  0  0  0  0  0  0  0  0  0  0
    2.5929   -0.7486    0.0000 C   0  0  0  0  0  0  0  0  0  0  0  0
   -2.6111   -0.7486    0.0000 C   0  0  0  0  0  0  0  0  0  0  0  0
   -2.5660   -5.2603    0.0000 C   0  0  0  0  0  0  0  0  0  0  0  0
    3.4583   -3.2541    0.0000 O   0  0  0  0  0  0  0  0  0  0  0  0
   -3.8427   -7.5232    0.0000 C   0  0  0  0  0  0  0  0  0  0  0  0
   -0.1996   -8.0871    0.0000 O   0  0  0  0  0  0  0  0  0  0  0  0
    2.5929    0.7486    0.0000 C   0  0  0  0  0  0  0  0  0  0  0  0
   -3.8575   -6.0232    0.0000 C   0  0  0  0  0  0  0  0  0  0  0  0
   -2.5778   -3.7595    0.0000 C   0  0  0  0  0  0  0  0  0  0  0  0
   -4.8759   -8.1334    0.0000 O   0  0  0  0  0  0  0  0  0  0  0  0
    3.8857   -6.0068    0.0000 C   0  0  0  0  0  0  0  0  0  0  0  0
    2.5849   -6.4529    0.0000 C   0  0  0  0  0  0  0  0  0  0  0  0
    1.7208   -5.7508    0.0000 C   0  0  0  0  0  0  0  0  0  0  0  0
   -3.6486   -1.3517    0.0000 C   0  0  0  0  0  0  0  0  0  0  0  0
    3.6321    1.3486    0.0000 C   0  0  0  0  0  0  0  0  0  0  0  0
    3.8837   -7.0068    0.0000 C   0  0  0  0  0  0  0  0  0  0  0  0
  2  1  1  0
  3  2  1  0
  4  7  1  0
  5 10  1  0
  6  1  1  0
  3  7  1  0
  8  1  2  0
  9  2  1  0
 10 17  1  0
 11  6  2  0
 12 19  1  0
 13  4  1  0
  9 14  1  0
 15 21  1  0
 16 11  1  0
 17 23  1  0
 18  4  2  0
 19 22  1  0
 20  5  2  0
 21  8  1  0
 22 17  1  0
 23 14  1  0
 19 24  1  0
 25 13  1  0
 26 13  1  0
 27 13  1  0
 16 28  1  0
 21 29  1  0
 30 25  1  0
  3 15  1  0
 16  9  1  0
  5 12  1  0
M  END
>  <Classification>  (249) 
0

>  <pchembl>  (249) 
4.34

>  <InChI_steorem>  (249) 
InChI=1S/C25H38O5/c1-6-25(4,5)24(28)30-21-12-15(2)11-17-8-7-16(3)20(23(17)21)10-9-19-13-18(26)14-22(27)29-19/h7-8,11,15-16,18-21,23,26H,6,9-10,12-14H2,1-5H3

>  <source>  (249) 
ChEMBL25

>  <source_id>  (249) 
25

>  <optional_reference>  (249) 
10.1023/a:1011036428972

>  <optional_origin>  (249) 
None

>  <target>  (249) 
MDR1

$$$$

     RDKit          2D

 29 33  0  0  0  0  0  0  0  0999 V2000
    3.7496    1.2177    0.0000 C   0  0  0  0  0  0  0  0  0  0  0  0
    0.0000    1.9521    0.0000 C   0  0  0  0  0  0  0  0  0  0  0  0
    1.1983    1.2177    0.0000 C   0  0  0  0  0  0  0  0  0  0  0  0
   -2.6286   -0.9664    0.0000 C   0  0  0  0  0  0  0  0  0  0  0  0
    1.1983   -0.2513    0.0000 C   0  0  0  0  0  0  0  0  0  0  0  0
   -3.9042   -0.2513    0.0000 C   0  0  0  0  0  0  0  0  0  0  0  0
   -1.3723    1.2177    0.0000 C   0  0  0  0  0  0  0  0  0  0  0  0
    3.7496   -0.2513    0.0000 C   0  0  0  0  0  0  0  0  0  0  0  0
    2.4740    1.9521    0.0000 C   0  0  0  0  0  0  0  0  0  0  0  0
    1.2148    2.4175    0.0000 C   0  0  0  0  0  0  0  0  0  0  0  0
   -2.6325    0.2336    0.0000 C   0  0  0  0  0  0  0  0  0  0  0  0
   -5.1992   -0.9664    0.0000 C   0  0  0  0  0  0  0  0  0  0  0  0
    3.3630    2.5706    0.0000 C   0  0  0  0  0  0  0  0  0  0  0  0
    3.4017    3.7882    0.0000 C   0  0  0  0  0  0  0  0  0  0  0  0
    2.7059    4.2135    0.0000 C   0  0  0  0  0  0  0  0  0  0  0  0
    1.2773   -4.6995    0.0000 C   0  0  0  0  0  0  0  0  0  0  0  0
    0.2323   -5.2894    0.0000 C   0  0  0  0  0  0  0  0  0  0  0  0
   -5.1992   -2.4353    0.0000 C   0  0  0  0  0  0  0  0  0  0  0  0
   -3.9042   -3.1504    0.0000 C   0  0  0  0  0  0  0  0  0  0  0  0
   -2.6286   -2.4353    0.0000 C   0  0  0  0  0  0  0  0  0  0  0  0
   -1.3723   -3.1504    0.0000 C   0  0  0  0  0  0  0  0  0  0  0  0
    0.0000   -2.4353    0.0000 C   0  0  0  0  0  0  0  0  0  0  0  0
    0.0000   -0.9664    0.0000 C   0  0  0  0  0  0  0  0  0  0  0  0
   -1.3723   -0.2513    0.0000 C   0  0  0  0  0  0  0  0  0  0  0  0
    2.9605    5.3861    0.0000 O   0  0  0  0  0  0  0  0  0  0  0  0
    1.2756    4.0395    0.0000 O   0  0  0  0  0  0  0  0  0  0  0  0
    2.3105   -5.3099    0.0000 O   0  0  0  0  0  0  0  0  0  0  0  0
   -6.2326   -3.0452    0.0000 O   0  0  0  0  0  0  0  0  0  0  0  0
    1.2914   -3.1988    0.0000 S   0  0  0  0  0  0  0  0  0  0  0  0
  8  1  1  0
  9  1  1  0
  2  3  1  0
  7  2  1  0
  3  5  1  0
  3  9  1  0
  3 10  1  0
  6  4  1  0
  4 11  1  0
  4 20  1  0
  4 24  1  0
  5  8  1  0
 23  5  1  0
  6 12  1  0
 24  7  1  0
 13  9  1  0
  9 26  1  0
 12 18  1  0
 13 14  1  0
 14 15  1  0
 15 25  2  0
 15 26  1  0
 16 17  1  0
 16 27  2  0
 16 29  1  0
 18 19  1  0
 18 28  2  0
 19 20  2  0
 20 21  1  0
 21 22  1  0
 22 23  1  0
 22 29  1  0
 23 24  1  0
M  END
>  <Classification>  (250) 
0

>  <pchembl>  (250) 
4.63

>  <InChI_steorem>  (250) 
InChI=1S/C24H32O4S/c1-14(25)29-19-13-15-12-16(26)4-8-22(15,2)17-5-9-23(3)18(21(17)19)6-10-24(23)11-7-20(27)28-24/h12,17-19,21H,4-11,13H2,1-3H3

>  <source>  (250) 
ChEMBL25

>  <source_id>  (250) 
25

>  <optional_reference>  (250) 
10.1021/tx010125x

>  <optional_origin>  (250) 
None

>  <target>  (250) 
MDR1

$$$$

     RDKit          2D

 39 43  0  0  0  0  0  0  0  0999 V2000
    4.5671    0.2243    0.0000 C   0  0  0  0  0  0  0  0  0  0  0  0
    4.5671   -1.2660    0.0000 C   0  0  0  0  0  0  0  0  0  0  0  0
    3.2691   -2.0191    0.0000 C   0  0  0  0  0  0  0  0  0  0  0  0
    3.2691    0.9935    0.0000 C   0  0  0  0  0  0  0  0  0  0  0  0
    1.9711    0.2243    0.0000 C   0  0  0  0  0  0  0  0  0  0  0  0
    1.9711   -1.2660    0.0000 C   0  0  0  0  0  0  0  0  0  0  0  0
    0.6891   -2.0191    0.0000 C   0  0  0  0  0  0  0  0  0  0  0  0
    0.6891    0.9935    0.0000 C   0  0  0  0  0  0  0  0  0  0  0  0
   -0.6089    0.2243    0.0000 C   0  0  0  0  0  0  0  0  0  0  0  0
   -0.6089   -1.2660    0.0000 C   0  0  0  0  0  0  0  0  0  0  0  0
   -1.9070   -2.0191    0.0000 C   0  0  0  0  0  0  0  0  0  0  0  0
   -1.9070    0.9935    0.0000 C   0  0  0  0  0  0  0  0  0  0  0  0
    0.6923    2.1935    0.0000 O   0  0  0  0  0  0  0  0  0  0  0  0
    0.6923   -3.2191    0.0000 O   0  0  0  0  0  0  0  0  0  0  0  0
    3.2722   -3.5199    0.0000 O   0  0  0  0  0  0  0  0  0  0  0  0
    4.3122   -4.1184    0.0000 C   0  0  0  0  0  0  0  0  0  0  0  0
   -1.9070    2.1935    0.0000 O   0  0  0  0  0  0  0  0  0  0  0  0
   -1.9070   -3.2191    0.0000 O   0  0  0  0  0  0  0  0  0  0  0  0
   -3.2050    0.2243    0.0000 C   0  0  0  0  0  0  0  0  0  0  0  0
   -3.2050   -1.2660    0.0000 C   0  0  0  0  0  0  0  0  0  0  0  0
   -4.5030   -2.0191    0.0000 C   0  0  0  0  0  0  0  0  0  0  0  0
   -5.8010   -1.2660    0.0000 C   0  0  0  0  0  0  0  0  0  0  0  0
   -5.8010    0.2243    0.0000 C   0  0  0  0  0  0  0  0  0  0  0  0
   -4.5030    0.9935    0.0000 C   0  0  0  0  0  0  0  0  0  0  0  0
   -5.7778    1.4241    0.0000 O   0  0  0  0  0  0  0  0  0  0  0  0
   -7.0594   -0.5548    0.0000 C   0  0  0  0  0  0  0  0  0  0  0  0
   -7.0515   -2.0556    0.0000 C   0  0  0  0  0  0  0  0  0  0  0  0
   -7.9282   -0.0596    0.0000 O   0  0  0  0  0  0  0  0  0  0  0  0
   -7.9145   -2.5607    0.0000 O   0  0  0  0  0  0  0  0  0  0  0  0
   -5.8029   -2.7279    0.0000 O   0  0  0  0  0  0  0  0  0  0  0  0
   -5.8769   -4.2269    0.0000 C   0  0  0  0  0  0  0  0  0  0  0  0
   -7.1972   -4.9363    0.0000 O   0  0  0  0  0  0  0  0  0  0  0  0
   -7.2428   -6.4356    0.0000 C   0  0  0  0  0  0  0  0  0  0  0  0
   -5.9671   -7.2248    0.0000 C   0  0  0  0  0  0  0  0  0  0  0  0
   -4.6459   -6.5146    0.0000 C   0  0  0  0  0  0  0  0  0  0  0  0
   -4.6003   -5.0153    0.0000 C   0  0  0  0  0  0  0  0  0  0  0  0
   -8.2998   -7.0038    0.0000 C   0  0  0  0  0  0  0  0  0  0  0  0
   -6.0036   -8.4242    0.0000 O   0  0  0  0  0  0  0  0  0  0  0  0
   -3.6254   -7.1459    0.0000 N   0  0  0  0  0  0  0  0  0  0  0  0
  7 10  1  0
  9  8  1  0
  5  4  1  0
  9 10  2  0
  4  1  2  0
 19 24  1  0
 20 21  1  0
 21 22  1  0
 22 23  1  0
 23 24  1  0
 10 11  1  0
 23 25  1  0
 11 20  2  0
 23 26  1  0
  5  6  2  0
 26 27  1  0
 19 12  2  0
 26 28  2  0
 12  9  1  0
 27 29  1  0
  1  2  1  0
 21 30  1  0
  8 13  2  0
 31 30  1  0
 31 32  1  0
  7 14  2  0
  2  3  2  0
  3 15  1  0
  3  6  1  0
 31 36  1  0
 32 33  1  0
 33 34  1  0
 34 35  1  0
 35 36  1  0
 15 16  1  0
 33 37  1  0
  5  8  1  0
 34 38  1  0
 12 17  1  0
 35 39  1  0
  6  7  1  0
 11 18  1  0
 19 20  1  0
M  END
>  <Classification>  (251) 
1

>  <pchembl>  (251) 
5.07

>  <InChI_steorem>  (251) 
InChI=1S/C27H29NO11/c1-10-22(31)13(28)6-17(38-10)39-15-8-27(36,16(30)9-29)7-12-19(15)26(35)21-20(24(12)33)23(32)11-4-3-5-14(37-2)18(11)25(21)34/h3-5,10,13,15,17,22,29,31,33,35-36H,6-9,28H2,1-2H3

>  <source>  (251) 
ChEMBL25

>  <source_id>  (251) 
25

>  <optional_reference>  (251) 
10.1023/a:1011076217118

>  <optional_origin>  (251) 
None

>  <target>  (251) 
MDR1

$$$$

     RDKit          2D

 50 53  0  0  0  0  0  0  0  0999 V2000
   -7.6913    6.1464    0.0000 N   0  0  0  0  0  0  0  0  0  0  0  0
   -5.1920    1.5249    0.0000 C   0  0  0  0  0  0  0  0  0  0  0  0
   -7.2212    7.5708    0.0000 C   0  0  0  0  0  0  0  0  0  0  0  0
   -3.8946    0.7703    0.0000 N   0  0  0  0  0  0  0  0  0  0  0  0
   -2.6010   -1.4850    0.0000 C   0  0  0  0  0  0  0  0  0  0  0  0
   -6.4817    5.2810    0.0000 C   0  0  0  0  0  0  0  0  0  0  0  0
   -5.7213    7.5640    0.0000 S   0  0  0  0  0  0  0  0  0  0  0  0
   -3.8984   -0.7305    0.0000 C   0  0  0  0  0  0  0  0  0  0  0  0
    3.9044   -0.7576    0.0000 C   0  0  0  0  0  0  0  0  0  0  0  0
   -5.1882    3.0257    0.0000 N   0  0  0  0  0  0  0  0  0  0  0  0
   -2.6048   -2.9858    0.0000 N   0  0  0  0  0  0  0  0  0  0  0  0
    4.4757    5.2776    0.0000 N   0  0  0  0  0  0  0  0  0  0  0  0
    2.6018   -1.5031    0.0000 N   0  0  0  0  0  0  0  0  0  0  0  0
    5.2203    2.9895    0.0000 C   0  0  0  0  0  0  0  0  0  0  0  0
   -5.2643    6.1353    0.0000 C   0  0  0  0  0  0  0  0  0  0  0  0
    2.5951   -3.0039    0.0000 C   0  0  0  0  0  0  0  0  0  0  0  0
    6.4358    3.8464    0.0000 S   0  0  0  0  0  0  0  0  0  0  0  0
    5.9757    5.2741    0.0000 C   0  0  0  0  0  0  0  0  0  0  0  0
   -6.4855    3.7802    0.0000 C   0  0  0  0  0  0  0  0  0  0  0  0
   -0.0048   -2.9949    0.0000 C   0  0  0  0  0  0  0  0  0  0  0  0
   -1.3074   -3.7403    0.0000 C   0  0  0  0  0  0  0  0  0  0  0  0
    4.0088    3.8522    0.0000 C   0  0  0  0  0  0  0  0  0  0  0  0
    1.2925   -3.7494    0.0000 C   0  0  0  0  0  0  0  0  0  0  0  0
   -6.2329    0.9278    0.0000 O   0  0  0  0  0  0  0  0  0  0  0  0
   -1.5601   -0.8880    0.0000 O   0  0  0  0  0  0  0  0  0  0  0  0
    4.9411   -1.3619    0.0000 O   0  0  0  0  0  0  0  0  0  0  0  0
    3.8902   -3.7623    0.0000 C   0  0  0  0  0  0  0  0  0  0  0  0
    3.9110    0.7432    0.0000 O   0  0  0  0  0  0  0  0  0  0  0  0
   -8.0938    8.7888    0.0000 C   0  0  0  0  0  0  0  0  0  0  0  0
    5.2136    1.4886    0.0000 C   0  0  0  0  0  0  0  0  0  0  0  0
   -1.3157   -5.2412    0.0000 C   0  0  0  0  0  0  0  0  0  0  0  0
   -5.2018   -1.4745    0.0000 C   0  0  0  0  0  0  0  0  0  0  0  0
    3.8819   -5.2632    0.0000 C   0  0  0  0  0  0  0  0  0  0  0  0
    1.2884   -4.9494    0.0000 O   0  0  0  0  0  0  0  0  0  0  0  0
   -2.6192   -5.9852    0.0000 C   0  0  0  0  0  0  0  0  0  0  0  0
   -4.1472    3.6227    0.0000 C   0  0  0  0  0  0  0  0  0  0  0  0
   -7.5991    9.8821    0.0000 C   0  0  0  0  0  0  0  0  0  0  0  0
   -9.2880    8.6709    0.0000 C   0  0  0  0  0  0  0  0  0  0  0  0
   -6.2385   -0.8701    0.0000 C   0  0  0  0  0  0  0  0  0  0  0  0
   -5.2073   -2.6745    0.0000 C   0  0  0  0  0  0  0  0  0  0  0  0
    5.1752   -6.0230    0.0000 C   0  0  0  0  0  0  0  0  0  0  0  0
    2.5772   -6.0033    0.0000 C   0  0  0  0  0  0  0  0  0  0  0  0
   -2.6297   -7.4852    0.0000 C   0  0  0  0  0  0  0  0  0  0  0  0
   -3.9131   -5.2262    0.0000 C   0  0  0  0  0  0  0  0  0  0  0  0
   -5.2173   -5.9672    0.0000 C   0  0  0  0  0  0  0  0  0  0  0  0
    5.1638   -7.5230    0.0000 C   0  0  0  0  0  0  0  0  0  0  0  0
    2.5658   -7.5032    0.0000 C   0  0  0  0  0  0  0  0  0  0  0  0
   -3.9339   -8.2261    0.0000 C   0  0  0  0  0  0  0  0  0  0  0  0
   -5.2277   -7.4672    0.0000 C   0  0  0  0  0  0  0  0  0  0  0  0
    3.8591   -8.2631    0.0000 C   0  0  0  0  0  0  0  0  0  0  0  0
  2 10  1  0
  3  1  2  0
  4  2  1  0
  5  8  1  0
  6  1  1  0
  7  3  1  0
  8  4  1  0
  9 13  1  0
 10 19  1  0
 11  5  1  0
 12 22  1  0
 13 16  1  0
 14 30  1  0
 15  6  2  0
 16 23  1  0
 17 14  1  0
 18 17  1  0
 19  6  1  0
 20 21  1  0
 21 11  1  0
 22 14  2  0
 23 20  1  0
 24  2  2  0
 25  5  2  0
 26  9  2  0
 16 27  1  0
 28  9  1  0
 29  3  1  0
 30 28  1  0
 31 21  1  0
 32  8  1  0
 33 27  1  0
 23 34  1  0
 35 31  1  0
 36 10  1  0
 37 29  1  0
 38 29  1  0
 39 32  1  0
 40 32  1  0
 41 33  2  0
 42 33  1  0
 43 35  2  0
 44 35  1  0
 45 44  2  0
 46 41  1  0
 47 42  2  0
 48 43  1  0
 49 45  1  0
 50 47  1  0
  7 15  1  0
 48 49  2  0
 46 50  2  0
 18 12  2  0
M  END
>  <Classification>  (252) 
0

>  <pchembl>  (252) 
4.92

>  <InChI_steorem>  (252) 
InChI=1S/C37H48N6O5S2/c1-24(2)33(42-36(46)43(5)20-29-22-49-35(40-29)25(3)4)34(45)39-28(16-26-12-8-6-9-13-26)18-32(44)31(17-27-14-10-7-11-15-27)41-37(47)48-21-30-19-38-23-50-30/h6-15,19,22-25,28,31-33,44H,16-18,20-21H2,1-5H3,(H,39,45)(H,41,47)(H,42,46)

>  <source>  (252) 
ChEMBL25

>  <source_id>  (252) 
25

>  <optional_reference>  (252) 
10.1021/jm021012t

>  <optional_origin>  (252) 
None

>  <target>  (252) 
MDR1

$$$$

     RDKit          2D

 49 53  0  0  0  0  0  0  0  0999 V2000
    3.9112   12.0085    0.0000 C   0  0  0  0  0  0  0  0  0  0  0  0
    5.2100   12.7535    0.0000 C   0  0  0  0  0  0  0  0  0  0  0  0
    6.5135   11.9855    0.0000 C   0  0  0  0  0  0  0  0  0  0  0  0
    3.9159   10.4957    0.0000 C   0  0  0  0  0  0  0  0  0  0  0  0
    5.2103    9.7435    0.0000 C   0  0  0  0  0  0  0  0  0  0  0  0
    6.5091   10.4885    0.0000 C   0  0  0  0  0  0  0  0  0  0  0  0
    7.8036    9.7364    0.0000 C   0  0  0  0  0  0  0  0  0  0  0  0
    7.7992    8.2393    0.0000 C   0  0  0  0  0  0  0  0  0  0  0  0
    6.5003    7.4944    0.0000 C   0  0  0  0  0  0  0  0  0  0  0  0
    5.2059    8.2465    0.0000 N   0  0  0  0  0  0  0  0  0  0  0  0
    6.4992    5.9935    0.0000 C   0  0  0  0  0  0  0  0  0  0  0  0
    5.4593    5.3947    0.0000 O   0  0  0  0  0  0  0  0  0  0  0  0
    7.7966    3.7404    0.0000 C   0  0  0  0  0  0  0  0  0  0  0  0
    9.0953    2.9882    0.0000 C   0  0  0  0  0  0  0  0  0  0  0  0
    6.4945    2.9941    0.0000 C   0  0  0  0  0  0  0  0  0  0  0  0
    5.1967    3.7478    0.0000 C   0  0  0  0  0  0  0  0  0  0  0  0
    4.1555    3.1511    0.0000 O   0  0  0  0  0  0  0  0  0  0  0  0
   10.1352    3.5870    0.0000 O   0  0  0  0  0  0  0  0  0  0  0  0
   10.3928    0.7351    0.0000 C   0  0  0  0  0  0  0  0  0  0  0  0
   11.6941    1.4828    0.0000 C   0  0  0  0  0  0  0  0  0  0  0  0
   10.3871   -0.7658    0.0000 C   0  0  0  0  0  0  0  0  0  0  0  0
    9.0850   -1.5121    0.0000 C   0  0  0  0  0  0  0  0  0  0  0  0
    9.0771   -3.0121    0.0000 C   0  0  0  0  0  0  0  0  0  0  0  0
    7.7742   -3.7553    0.0000 C   0  0  0  0  0  0  0  0  0  0  0  0
    6.4791   -2.9985    0.0000 C   0  0  0  0  0  0  0  0  0  0  0  0
    6.4869   -1.4986    0.0000 C   0  0  0  0  0  0  0  0  0  0  0  0
    7.7898   -0.7553    0.0000 C   0  0  0  0  0  0  0  0  0  0  0  0
   12.9928    0.7305    0.0000 C   0  0  0  0  0  0  0  0  0  0  0  0
   14.2941    1.4783    0.0000 N   0  0  0  0  0  0  0  0  0  0  0  0
   15.5911    0.7298    0.0000 C   0  0  0  0  0  0  0  0  0  0  0  0
   16.8960    1.4954    0.0000 C   0  0  0  0  0  0  0  0  0  0  0  0
   14.3011    2.9899    0.0000 C   0  0  0  0  0  0  0  0  0  0  0  0
   15.5968    3.7397    0.0000 C   0  0  0  0  0  0  0  0  0  0  0  0
   16.8943    2.9924    0.0000 C   0  0  0  0  0  0  0  0  0  0  0  0
   18.1901    3.7422    0.0000 C   0  0  0  0  0  0  0  0  0  0  0  0
   18.1883    5.2393    0.0000 C   0  0  0  0  0  0  0  0  0  0  0  0
   16.8909    5.9866    0.0000 C   0  0  0  0  0  0  0  0  0  0  0  0
   15.5951    5.2368    0.0000 C   0  0  0  0  0  0  0  0  0  0  0  0
   15.5894   -0.7709    0.0000 C   0  0  0  0  0  0  0  0  0  0  0  0
   16.6280   -1.3719    0.0000 O   0  0  0  0  0  0  0  0  0  0  0  0
   14.2873   -3.0214    0.0000 C   0  0  0  0  0  0  0  0  0  0  0  0
   13.2477   -3.6207    0.0000 C   0  0  0  0  0  0  0  0  0  0  0  0
   14.2864   -4.2214    0.0000 C   0  0  0  0  0  0  0  0  0  0  0  0
   15.3260   -3.6223    0.0000 C   0  0  0  0  0  0  0  0  0  0  0  0
    7.7978    5.2412    0.0000 N   0  0  0  0  0  0  0  0  0  0  0  0
    5.2001    4.9478    0.0000 N   0  0  0  0  0  0  0  0  0  0  0  0
    9.0941    1.4873    0.0000 N   0  0  0  0  0  0  0  0  0  0  0  0
   11.6962    2.6828    0.0000 O   0  0  0  0  0  0  0  0  0  0  0  0
   14.2892   -1.5205    0.0000 N   0  0  0  0  0  0  0  0  0  0  0  0
  9 10  2  0
 10  5  1  0
  9 11  1  0
 11 12  2  0
 13 14  1  0
 13 15  1  0
 15 16  1  0
 16 17  2  0
 14 18  2  0
 19 20  1  0
 19 21  1  0
 21 22  1  0
 22 23  2  0
 23 24  1  0
 24 25  2  0
 25 26  1  0
 26 27  2  0
 27 22  1  0
 20 28  1  0
 28 29  1  0
 29 30  1  0
 29 32  1  0
 30 31  1  0
 31 34  1  0
 33 32  1  0
 33 34  1  0
 33 38  1  0
 34 35  1  0
 35 36  1  0
 36 37  1  0
 37 38  1  0
 30 39  1  0
 39 40  2  0
 41 42  1  0
 41 43  1  0
 41 44  1  0
  1  2  2  0
  2  3  1  0
  3  6  2  0
  5  4  2  0
 11 45  1  0
 45 13  1  0
 14 47  1  0
 47 19  1  0
 20 48  1  0
 16 46  1  0
 39 49  1  0
 49 41  1  0
  4  1  1  0
  5  6  1  0
  6  7  1  0
  7  8  2  0
  8  9  1  0
M  END
>  <Classification>  (253) 
0

>  <pchembl>  (253) 
4.92

>  <InChI_steorem>  (253) 
InChI=1S/C38H50N6O5/c1-38(2,3)43-37(49)32-20-26-14-7-8-15-27(26)22-44(32)23-33(45)30(19-24-11-5-4-6-12-24)41-36(48)31(21-34(39)46)42-35(47)29-18-17-25-13-9-10-16-28(25)40-29/h4-6,9-13,16-18,26-27,30-33,45H,7-8,14-15,19-23H2,1-3H3,(H2,39,46)(H,41,48)(H,42,47)(H,43,49)

>  <source>  (253) 
ChEMBL25

>  <source_id>  (253) 
25

>  <optional_reference>  (253) 
10.1021/jm021012t

>  <optional_origin>  (253) 
None

>  <target>  (253) 
MDR1

$$$$

     RDKit          2D

 52 54  0  0  0  0  0  0  0  0999 V2000
   -1.2948    5.6332    0.0000 C   0  0  0  0  0  0  0  0  0  0  0  0
    2.6351    2.1015    0.0000 C   0  0  0  0  0  0  0  0  0  0  0  0
    3.2860   -0.7500    0.0000 C   0  0  0  0  0  0  0  0  0  0  0  0
    0.0000   -3.3705    0.0000 C   0  0  0  0  0  0  0  0  0  0  0  0
    3.2860    0.7500    0.0000 C   0  0  0  0  0  0  0  0  0  0  0  0
   -2.5944    4.8840    0.0000 C   0  0  0  0  0  0  0  0  0  0  0  0
    0.0000    3.3705    0.0000 C   0  0  0  0  0  0  0  0  0  0  0  0
    1.4624    3.0367    0.0000 C   0  0  0  0  0  0  0  0  0  0  0  0
   -2.6351   -2.1015    0.0000 C   0  0  0  0  0  0  0  0  0  0  0  0
    2.6351   -2.1015    0.0000 O   0  0  0  0  0  0  0  0  0  0  0  0
   -1.4624   -3.0367    0.0000 C   0  0  0  0  0  0  0  0  0  0  0  0
   -3.2860   -0.7500    0.0000 C   0  0  0  0  0  0  0  0  0  0  0  0
    0.0030    4.8795    0.0000 O   0  0  0  0  0  0  0  0  0  0  0  0
    4.5283    6.9502    0.0000 C   0  0  0  0  0  0  0  0  0  0  0  0
   -3.8930    5.6347    0.0000 C   0  0  0  0  0  0  0  0  0  0  0  0
   -1.4624    3.0367    0.0000 C   0  0  0  0  0  0  0  0  0  0  0  0
    3.5874    4.5284    0.0000 C   0  0  0  0  0  0  0  0  0  0  0  0
    4.7569    5.4677    0.0000 C   0  0  0  0  0  0  0  0  0  0  0  0
   -1.2941    7.1333    0.0000 O   0  0  0  0  0  0  0  0  0  0  0  0
    2.1892    5.0718    0.0000 O   0  0  0  0  0  0  0  0  0  0  0  0
    1.4624   -3.0367    0.0000 C   0  0  0  0  0  0  0  0  0  0  0  0
    3.1302    7.4934    0.0000 C   0  0  0  0  0  0  0  0  0  0  0  0
    3.8131    3.0446    0.0000 O   0  0  0  0  0  0  0  0  0  0  0  0
    1.9606    6.5542    0.0000 C   0  0  0  0  0  0  0  0  0  0  0  0
   -3.2860    0.7500    0.0000 C   0  0  0  0  0  0  0  0  0  0  0  0
   -2.6352    2.1014    0.0000 C   0  0  0  0  0  0  0  0  0  0  0  0
   -3.8922    7.1347    0.0000 C   0  0  0  0  0  0  0  0  0  0  0  0
   -5.1947    4.8877    0.0000 N   0  0  0  0  0  0  0  0  0  0  0  0
    4.4559   -1.0170    0.0000 O   0  0  0  0  0  0  0  0  0  0  0  0
   -2.5927    7.8840    0.0000 C   0  0  0  0  0  0  0  0  0  0  0  0
   -4.4559   -1.0170    0.0000 O   0  0  0  0  0  0  0  0  0  0  0  0
    1.0687   -3.9163    0.0000 O   0  0  0  0  0  0  0  0  0  0  0  0
   -2.5951    3.6840    0.0000 O   0  0  0  0  0  0  0  0  0  0  0  0
   -1.9830   -4.1179    0.0000 O   0  0  0  0  0  0  0  0  0  0  0  0
    4.2668    8.4073    0.0000 O   0  0  0  0  0  0  0  0  0  0  0  0
   -0.5786    4.1974    0.0000 O   0  0  0  0  0  0  0  0  0  0  0  0
    2.9473    8.6794    0.0000 O   0  0  0  0  0  0  0  0  0  0  0  0
   -1.0687   -3.9163    0.0000 C   0  0  0  0  0  0  0  0  0  0  0  0
    4.4559    1.0170    0.0000 C   0  0  0  0  0  0  0  0  0  0  0  0
    1.9830    4.1179    0.0000 C   0  0  0  0  0  0  0  0  0  0  0  0
   -3.5733   -2.8497    0.0000 C   0  0  0  0  0  0  0  0  0  0  0  0
    5.6359    6.4883    0.0000 C   0  0  0  0  0  0  0  0  0  0  0  0
   -2.6621    3.0636    0.0000 C   0  0  0  0  0  0  0  0  0  0  0  0
    2.1198   -4.3949    0.0000 C   0  0  0  0  0  0  0  0  0  0  0  0
    0.8421    6.9889    0.0000 C   0  0  0  0  0  0  0  0  0  0  0  0
   -4.4559    1.0170    0.0000 C   0  0  0  0  0  0  0  0  0  0  0  0
   -6.2328    5.4898    0.0000 C   0  0  0  0  0  0  0  0  0  0  0  0
   -5.1975    3.6877    0.0000 C   0  0  0  0  0  0  0  0  0  0  0  0
   -2.5920    9.0840    0.0000 C   0  0  0  0  0  0  0  0  0  0  0  0
    0.6181    4.1083    0.0000 C   0  0  0  0  0  0  0  0  0  0  0  0
    5.1640    9.2042    0.0000 C   0  0  0  0  0  0  0  0  0  0  0  0
    3.3166   -4.4830    0.0000 C   0  0  0  0  0  0  0  0  0  0  0  0
  2  8  1  0
  3  5  1  0
  4 11  1  0
  5  2  1  0
  6  1  1  0
  7 13  1  0
  8  7  1  0
  9 12  1  0
 10  3  1  0
 11  9  1  0
 12 25  1  0
  1 13  1  0
 14 18  1  0
 15  6  1  0
 16  7  1  0
 17 23  1  0
 18 17  1  0
 19  1  1  0
 20 17  1  0
 21 10  1  0
 22 24  1  0
  2 23  1  0
 24 20  1  0
 25 26  1  0
 26 16  1  0
 27 30  1  0
 15 28  1  0
 29  3  2  0
 30 19  1  0
 31 12  2  0
  4 32  1  0
  6 33  1  0
 11 34  1  0
 14 35  1  0
 16 36  1  0
 22 37  1  0
 38  4  1  0
  5 39  1  0
  8 40  1  0
  9 41  1  0
 14 42  1  0
 16 43  1  0
 21 44  1  0
 24 45  1  0
 25 46  1  0
 47 28  1  0
 48 28  1  0
 30 49  1  0
 50 36  1  0
 51 35  1  0
 52 44  1  0
 27 15  1  0
 21  4  1  0
 22 14  1  0
M  END
>  <Classification>  (254) 
0

>  <pchembl>  (254) 
4.82

>  <InChI_steorem>  (254) 
InChI=1S/C38H69NO13/c1-15-26-38(10,45)31(42)21(4)28(40)19(2)17-37(9,47-14)33(52-35-29(41)25(39(11)12)16-20(3)48-35)22(5)30(23(6)34(44)50-26)51-27-18-36(8,46-13)32(43)24(7)49-27/h19-27,29-33,35,41-43,45H,15-18H2,1-14H3

>  <source>  (254) 
ChEMBL25

>  <source_id>  (254) 
25

>  <optional_reference>  (254) 
10.1006/bbrc.2001.6000

>  <optional_origin>  (254) 
None

>  <target>  (254) 
MDR1

$$$$

     RDKit          2D

 65 68  0  0  0  0  0  0  0  0999 V2000
   -1.9000    2.2900    0.0000 C   0  0  0  0  0  0  0  0  0  0  0  0
   -0.7100    3.2100    0.0000 O   0  0  0  0  0  0  0  0  0  0  0  0
   -1.8636    1.0906    0.0000 O   0  0  0  0  0  0  0  0  0  0  0  0
   -3.1200    3.1200    0.0000 C   0  0  0  0  0  0  0  0  0  0  0  0
   -2.6400    4.4900    0.0000 C   0  0  0  0  0  0  0  0  0  0  0  0
   -3.4600    5.5000    0.0000 C   0  0  0  0  0  0  0  0  0  0  0  0
   -4.8400    5.2900    0.0000 C   0  0  0  0  0  0  0  0  0  0  0  0
   -5.4800    3.8300    0.0000 C   0  0  0  0  0  0  0  0  0  0  0  0
   -4.5400    2.3900    0.0000 N   0  0  0  0  0  0  0  0  0  0  0  0
   -6.1000    2.2500    0.0000 C   0  0  0  0  0  0  0  0  0  0  0  0
   -6.8303    3.2022    0.0000 O   0  0  0  0  0  0  0  0  0  0  0  0
   -6.6100    0.8600    0.0000 C   0  0  0  0  0  0  0  0  0  0  0  0
   -5.7904   -0.0165    0.0000 O   0  0  0  0  0  0  0  0  0  0  0  0
   -8.0800    0.4300    0.0000 C   0  0  0  0  0  0  0  0  0  0  0  0
   -7.2300   -0.9300    0.0000 O   0  0  0  0  0  0  0  0  0  0  0  0
   -8.3982    1.5870    0.0000 O   0  0  0  0  0  0  0  0  0  0  0  0
   -9.7100    0.0100    0.0000 C   0  0  0  0  0  0  0  0  0  0  0  0
  -10.1800   -1.4400    0.0000 C   0  0  0  0  0  0  0  0  0  0  0  0
   -9.2500   -2.5000    0.0000 C   0  0  0  0  0  0  0  0  0  0  0  0
   -7.8600   -2.2400    0.0000 C   0  0  0  0  0  0  0  0  0  0  0  0
   -6.8600   -3.4400    0.0000 C   0  0  0  0  0  0  0  0  0  0  0  0
   -5.3700   -2.8300    0.0000 C   0  0  0  0  0  0  0  0  0  0  0  0
   -5.1674   -1.3437    0.0000 O   0  0  0  0  0  0  0  0  0  0  0  0
   -4.1200   -3.7800    0.0000 C   0  0  0  0  0  0  0  0  0  0  0  0
   -2.6300   -3.1700    0.0000 C   0  0  0  0  0  0  0  0  0  0  0  0
   -1.4100   -4.1500    0.0000 C   0  0  0  0  0  0  0  0  0  0  0  0
    0.1200   -3.6900    0.0000 C   0  0  0  0  0  0  0  0  0  0  0  0
    1.1300   -4.8600    0.0000 C   0  0  0  0  0  0  0  0  0  0  0  0
    2.7800   -4.7900    0.0000 C   0  0  0  0  0  0  0  0  0  0  0  0
    3.3400   -6.2300    0.0000 C   0  0  0  0  0  0  0  0  0  0  0  0
    4.8700   -6.7500    0.0000 C   0  0  0  0  0  0  0  0  0  0  0  0
    6.2500   -5.8600    0.0000 C   0  0  0  0  0  0  0  0  0  0  0  0
    6.5100   -4.2800    0.0000 C   0  0  0  0  0  0  0  0  0  0  0  0
    7.6623   -3.9451    0.0000 O   0  0  0  0  0  0  0  0  0  0  0  0
    5.5100   -3.1600    0.0000 C   0  0  0  0  0  0  0  0  0  0  0  0
    4.0188   -3.2852    0.0000 O   0  0  0  0  0  0  0  0  0  0  0  0
    6.4400   -1.8000    0.0000 C   0  0  0  0  0  0  0  0  0  0  0  0
    7.6356   -1.9025    0.0000 O   0  0  0  0  0  0  0  0  0  0  0  0
    5.8000   -0.4000    0.0000 C   0  0  0  0  0  0  0  0  0  0  0  0
    4.3600   -0.3900    0.0000 C   0  0  0  0  0  0  0  0  0  0  0  0
    3.4300    0.8000    0.0000 C   0  0  0  0  0  0  0  0  0  0  0  0
    2.0600    0.3500    0.0000 C   0  0  0  0  0  0  0  0  0  0  0  0
    1.9216   -0.8420    0.0000 O   0  0  0  0  0  0  0  0  0  0  0  0
    0.8000    1.1200    0.0000 C   0  0  0  0  0  0  0  0  0  0  0  0
    0.6400    2.7300    0.0000 C   0  0  0  0  0  0  0  0  0  0  0  0
    0.4013    4.1939    0.0000 C   0  0  0  0  0  0  0  0  0  0  0  0
   -0.9905    4.7555    0.0000 C   0  0  0  0  0  0  0  0  0  0  0  0
   -1.2011    6.2415    0.0000 C   0  0  0  0  0  0  0  0  0  0  0  0
   -2.5913    6.8048    0.0000 C   0  0  0  0  0  0  0  0  0  0  0  0
   -2.7987    8.2904    0.0000 C   0  0  0  0  0  0  0  0  0  0  0  0
   -4.1909    8.8510    0.0000 O   0  0  0  0  0  0  0  0  0  0  0  0
   -1.6158    9.2128    0.0000 C   0  0  0  0  0  0  0  0  0  0  0  0
   -1.7817   10.4012    0.0000 O   0  0  0  0  0  0  0  0  0  0  0  0
   -0.2256    8.6496    0.0000 C   0  0  0  0  0  0  0  0  0  0  0  0
   -0.0182    7.1640    0.0000 C   0  0  0  0  0  0  0  0  0  0  0  0
  -10.5321    0.8841    0.0000 C   0  0  0  0  0  0  0  0  0  0  0  0
   -4.2763   -4.9698    0.0000 C   0  0  0  0  0  0  0  0  0  0  0  0
    2.5100   -7.0967    0.0000 C   0  0  0  0  0  0  0  0  0  0  0  0
    7.2534   -6.5182    0.0000 C   0  0  0  0  0  0  0  0  0  0  0  0
    6.4521    0.6074    0.0000 C   0  0  0  0  0  0  0  0  0  0  0  0
    3.7789    1.9482    0.0000 C   0  0  0  0  0  0  0  0  0  0  0  0
    1.3463    4.9335    0.0000 C   0  0  0  0  0  0  0  0  0  0  0  0
   -6.1155   -0.6081    0.0000 C   0  0  0  0  0  0  0  0  0  0  0  0
    3.5077   -4.3709    0.0000 C   0  0  0  0  0  0  0  0  0  0  0  0
   -5.1361    8.1118    0.0000 C   0  0  0  0  0  0  0  0  0  0  0  0
  1  2  1  0
  1  3  2  0
  1  4  1  0
 45  2  1  0
  4  5  1  0
  4  9  1  0
  5  6  1  0
  6  7  1  0
  7  8  1  0
  8  9  1  0
 10  9  1  0
 10 11  2  0
 10 12  1  0
 12 13  2  0
 14 12  1  0
 14 15  1  0
 14 16  1  0
 14 17  1  0
 20 15  1  0
 17 18  1  0
 17 56  1  0
 18 19  1  0
 19 20  1  0
 20 21  1  0
 21 22  1  0
 22 23  1  0
 22 24  1  0
 63 23  1  0
 24 25  2  0
 24 57  1  0
 25 26  1  0
 26 27  2  0
 27 28  1  0
 28 29  2  0
 29 30  1  0
 30 31  1  0
 30 58  1  0
 31 32  1  0
 32 33  1  0
 32 59  1  0
 33 34  2  0
 33 35  1  0
 35 36  1  0
 35 37  1  0
 64 36  1  0
 37 38  1  0
 37 39  1  0
 39 40  2  0
 39 60  1  0
 40 41  1  0
 41 42  1  0
 41 61  1  0
 42 43  2  0
 42 44  1  0
 44 45  1  0
 45 46  1  0
 46 47  1  0
 46 62  1  0
 48 47  1  0
 48 49  1  0
 48 55  1  0
 49 50  1  0
 50 51  1  0
 50 52  1  0
 65 51  1  0
 52 53  1  0
 52 54  1  0
 54 55  1  0
M  END
>  <Classification>  (255) 
1

>  <pchembl>  (255) 
5.9

>  <InChI_steorem>  (255) 
InChI=1S/C51H79NO13/c1-30-16-12-11-13-17-31(2)42(61-8)28-38-21-19-36(7)51(60,65-38)48(57)49(58)52-23-15-14-18-39(52)50(59)64-43(33(4)26-37-20-22-40(53)44(27-37)62-9)29-41(54)32(3)25-35(6)46(56)47(63-10)45(55)34(5)24-30/h11-13,16-17,25,30,32-34,36-40,42-44,46-47,53,56,60H,14-15,18-24,26-29H2,1-10H3

>  <source>  (255) 
ChEMBL25

>  <source_id>  (255) 
25

>  <optional_reference>  (255) 
10.1124/jpet.102.036541

>  <optional_origin>  (255) 
None

>  <target>  (255) 
MDR1

$$$$

     RDKit          2D

 18 19  0  0  0  0  0  0  0  0999 V2000
   -1.7472    1.3833    0.0000 C   0  0  0  0  0  0  0  0  0  0  0  0
   -1.7483    0.5560    0.0000 C   0  0  0  0  0  0  0  0  0  0  0  0
   -1.0335    0.1431    0.0000 C   0  0  0  0  0  0  0  0  0  0  0  0
   -1.0353    1.7960    0.0000 C   0  0  0  0  0  0  0  0  0  0  0  0
   -0.3200    1.3869    0.0000 C   0  0  0  0  0  0  0  0  0  0  0  0
   -0.3193    0.5560    0.0000 C   0  0  0  0  0  0  0  0  0  0  0  0
    0.3997    0.1430    0.0000 O   0  0  0  0  0  0  0  0  0  0  0  0
    1.1182    0.5598    0.0000 C   0  0  0  0  0  0  0  0  0  0  0  0
    1.1134    1.3939    0.0000 C   0  0  0  0  0  0  0  0  0  0  0  0
    0.3940    1.8031    0.0000 C   0  0  0  0  0  0  0  0  0  0  0  0
    1.8343    0.1501    0.0000 O   0  0  0  0  0  0  0  0  0  0  0  0
   -1.0334   -0.6819    0.0000 C   0  0  0  0  0  0  0  0  0  0  0  0
   -0.3190   -1.0942    0.0000 C   0  0  0  0  0  0  0  0  0  0  0  0
   -0.3189   -1.9192    0.0000 C   0  0  0  0  0  0  0  0  0  0  0  0
    0.3957   -2.3316    0.0000 C   0  0  0  0  0  0  0  0  0  0  0  0
   -1.0332   -2.3318    0.0000 C   0  0  0  0  0  0  0  0  0  0  0  0
   -2.4630    0.1441    0.0000 O   0  0  0  0  0  0  0  0  0  0  0  0
   -3.1772    0.5571    0.0000 C   0  0  0  0  0  0  0  0  0  0  0  0
  8  9  1  0
  4  1  2  0
  9 10  2  0
 10  5  1  0
  8 11  2  0
  2  3  2  0
  3 12  1  0
  5  6  2  0
 12 13  1  0
  3  6  1  0
 13 14  2  3
  6  7  1  0
 14 15  1  0
  1  2  1  0
 14 16  1  0
  7  8  1  0
  2 17  1  0
  5  4  1  0
 17 18  1  0
M  END
>  <Classification>  (256) 
0

>  <pchembl>  (256) 
4.47

>  <InChI_steorem>  (256) 
InChI=1S/C15H16O3/c1-10(2)4-7-12-13(17-3)8-5-11-6-9-14(16)18-15(11)12/h4-6,8-9H,7H2,1-3H3

>  <source>  (256) 
ChEMBL25

>  <source_id>  (256) 
25

>  <optional_reference>  (256) 
10.1039/C4MD00196F

>  <optional_origin>  (256) 
None

>  <target>  (256) 
MDR1

$$$$

     RDKit          2D

 19 20  0  0  0  0  0  0  0  0999 V2000
   -5.0888   -6.8290    0.0000 C   0  0  0  0  0  0  0  0  0  0  0  0
   -5.0900   -7.6564    0.0000 C   0  0  0  0  0  0  0  0  0  0  0  0
   -4.3752   -8.0692    0.0000 C   0  0  0  0  0  0  0  0  0  0  0  0
   -3.6587   -7.6559    0.0000 C   0  0  0  0  0  0  0  0  0  0  0  0
   -3.6616   -6.8254    0.0000 C   0  0  0  0  0  0  0  0  0  0  0  0
   -4.3770   -6.4163    0.0000 C   0  0  0  0  0  0  0  0  0  0  0  0
   -2.9488   -6.4102    0.0000 C   0  0  0  0  0  0  0  0  0  0  0  0
   -2.2327   -6.8200    0.0000 C   0  0  0  0  0  0  0  0  0  0  0  0
   -1.5198   -6.4048    0.0000 C   0  0  0  0  0  0  0  0  0  0  0  0
   -0.8054   -6.8181    0.0000 C   0  0  0  0  0  0  0  0  0  0  0  0
   -0.0930   -6.4036    0.0000 C   0  0  0  0  0  0  0  0  0  0  0  0
   -0.0957   -5.5777    0.0000 C   0  0  0  0  0  0  0  0  0  0  0  0
   -0.8167   -5.1681    0.0000 C   0  0  0  0  0  0  0  0  0  0  0  0
   -1.5262   -5.5849    0.0000 C   0  0  0  0  0  0  0  0  0  0  0  0
   -5.8034   -6.4167    0.0000 O   0  0  0  0  0  0  0  0  0  0  0  0
   -4.3754   -8.8943    0.0000 O   0  0  0  0  0  0  0  0  0  0  0  0
    0.6166   -5.1615    0.0000 O   0  0  0  0  0  0  0  0  0  0  0  0
   -5.8036   -5.5917    0.0000 C   0  0  0  0  0  0  0  0  0  0  0  0
   -3.6610   -9.3068    0.0000 C   0  0  0  0  0  0  0  0  0  0  0  0
  4  5  2  0
  9 10  2  0
  2  3  2  0
 10 11  1  0
  5  6  1  0
 11 12  2  0
  6  1  2  0
 12 13  1  0
  1  2  1  0
 13 14  2  0
 14  9  1  0
  5  7  1  0
  1 15  1  0
  3  4  1  0
  3 16  1  0
  7  8  2  3
 12 17  1  0
 15 18  1  0
  8  9  1  0
 16 19  1  0
M  END
>  <Classification>  (257) 
0

>  <pchembl>  (257) 
4.38

>  <InChI_steorem>  (257) 
InChI=1S/C16H16O3/c1-18-15-9-13(10-16(11-15)19-2)4-3-12-5-7-14(17)8-6-12/h3-11,17H,1-2H3

>  <source>  (257) 
ChEMBL25

>  <source_id>  (257) 
25

>  <optional_reference>  (257) 
10.1021/jm060253o

>  <optional_origin>  (257) 
None

>  <target>  (257) 
MDR1

$$$$

     RDKit          2D

 20 22  0  0  0  0  0  0  0  0999 V2000
   14.2000   -0.8667    0.0000 C   0  0  0  0  0  0  0  0  0  0  0  0
   14.9208   -1.2792    0.0000 C   0  0  0  0  0  0  0  0  0  0  0  0
   13.4833   -1.2792    0.0000 C   0  0  0  0  0  0  0  0  0  0  0  0
   14.2000   -0.0375    0.0000 C   0  0  0  0  0  0  0  0  0  0  0  0
   15.6375   -0.8625    0.0000 C   0  0  0  0  0  0  0  0  0  0  0  0
   15.6375   -0.0292    0.0000 C   0  0  0  0  0  0  0  0  0  0  0  0
   14.9125    0.3833    0.0000 O   0  0  0  0  0  0  0  0  0  0  0  0
   12.7708   -0.8667    0.0000 C   0  0  0  0  0  0  0  0  0  0  0  0
   13.4833    0.3708    0.0000 C   0  0  0  0  0  0  0  0  0  0  0  0
   12.7708   -0.0417    0.0000 C   0  0  0  0  0  0  0  0  0  0  0  0
   14.9250   -2.1042    0.0000 O   0  0  0  0  0  0  0  0  0  0  0  0
   16.3500    0.3833    0.0000 C   0  0  0  0  0  0  0  0  0  0  0  0
   13.4750   -2.1042    0.0000 O   0  0  0  0  0  0  0  0  0  0  0  0
   12.0583   -1.2792    0.0000 O   0  0  0  0  0  0  0  0  0  0  0  0
   12.0583    0.3708    0.0000 O   0  0  0  0  0  0  0  0  0  0  0  0
   16.3458    1.2083    0.0000 C   0  0  0  0  0  0  0  0  0  0  0  0
   17.0625   -0.0292    0.0000 C   0  0  0  0  0  0  0  0  0  0  0  0
   17.7750    0.3833    0.0000 C   0  0  0  0  0  0  0  0  0  0  0  0
   17.0500    1.6208    0.0000 C   0  0  0  0  0  0  0  0  0  0  0  0
   17.7750    1.2083    0.0000 C   0  0  0  0  0  0  0  0  0  0  0  0
  2  1  1  0
  3  1  2  0
  4  1  1  0
  5  2  1  0
  6  7  1  0
  7  4  1  0
  8  3  1  0
  9  4  2  0
 10  9  1  0
 11  2  2  0
 12  6  1  0
 13  3  1  0
 14  8  1  0
 15 10  1  0
 16 12  2  0
 17 12  1  0
 18 17  2  0
 19 16  1  0
 20 18  1  0
  8 10  2  0
  5  6  2  0
 19 20  2  0
M  END
>  <Classification>  (258) 
0

>  <pchembl>  (258) 
4.39

>  <InChI_steorem>  (258) 
InChI=1S/C15H10O5/c16-9-6-11(8-4-2-1-3-5-8)20-12-7-10(17)14(18)15(19)13(9)12/h1-7,17-19H

>  <source>  (258) 
ChEMBL25

>  <source_id>  (258) 
25

>  <optional_reference>  (258) 
10.1021/jm049949c

>  <optional_origin>  (258) 
None

>  <target>  (258) 
MDR1

$$$$

     RDKit          2D

 21 23  0  0  0  0  0  0  0  0999 V2000
    1.2875  -17.5167    0.0000 C   0  0  0  0  0  0  0  0  0  0  0  0
    2.0000  -17.9250    0.0000 N   0  0  0  0  0  0  0  0  0  0  0  0
   -3.7125  -17.9458    0.0000 C   0  0  0  0  0  0  0  0  0  0  0  0
   -3.7125  -18.7750    0.0000 C   0  0  0  0  0  0  0  0  0  0  0  0
   -4.5000  -17.6875    0.0000 O   0  0  0  0  0  0  0  0  0  0  0  0
   -4.5000  -19.0292    0.0000 O   0  0  0  0  0  0  0  0  0  0  0  0
   -4.9875  -18.3583    0.0000 C   0  0  0  0  0  0  0  0  0  0  0  0
    0.5750  -17.9333    0.0000 C   0  0  0  0  0  0  0  0  0  0  0  0
   -3.0000  -17.5333    0.0000 C   0  0  0  0  0  0  0  0  0  0  0  0
    1.2833  -16.6917    0.0000 O   0  0  0  0  0  0  0  0  0  0  0  0
   -0.1417  -17.5208    0.0000 C   0  0  0  0  0  0  0  0  0  0  0  0
   -0.8542  -17.9375    0.0000 C   0  0  0  0  0  0  0  0  0  0  0  0
   -1.5708  -17.5292    0.0000 C   0  0  0  0  0  0  0  0  0  0  0  0
   -2.9958  -19.1875    0.0000 C   0  0  0  0  0  0  0  0  0  0  0  0
   -2.2833  -17.9417    0.0000 C   0  0  0  0  0  0  0  0  0  0  0  0
   -2.2833  -18.7750    0.0000 C   0  0  0  0  0  0  0  0  0  0  0  0
    2.0042  -18.7500    0.0000 C   0  0  0  0  0  0  0  0  0  0  0  0
    2.7125  -17.5083    0.0000 C   0  0  0  0  0  0  0  0  0  0  0  0
    3.4292  -17.9250    0.0000 C   0  0  0  0  0  0  0  0  0  0  0  0
    2.7167  -19.1625    0.0000 C   0  0  0  0  0  0  0  0  0  0  0  0
    3.4292  -18.7500    0.0000 C   0  0  0  0  0  0  0  0  0  0  0  0
  2  1  1  0
  3  9  2  0
  4  3  1  0
  5  3  1  0
  6  4  1  0
  7  5  1  0
  8  1  1  0
  9 15  1  0
 10  1  2  0
 11  8  2  3
 12 11  1  0
 13 12  2  3
 14 16  1  0
 15 13  1  0
 16 15  2  0
 17  2  1  0
 18  2  1  0
 19 18  1  0
 20 17  1  0
 21 19  1  0
 21 20  1  0
 14  4  2  0
  6  7  1  0
M  END
>  <Classification>  (259) 
0

>  <pchembl>  (259) 
4.81

>  <InChI_steorem>  (259) 
InChI=1S/C17H19NO3/c19-17(18-10-4-1-5-11-18)7-3-2-6-14-8-9-15-16(12-14)21-13-20-15/h2-3,6-9,12H,1,4-5,10-11,13H2

>  <source>  (259) 
ChEMBL25

>  <source_id>  (259) 
25

>  <optional_reference>  (259) 
10.1124/jpet.102.034728

>  <optional_origin>  (259) 
None

>  <target>  (259) 
MDR1

$$$$

     RDKit          2D

 31 35  0  0  0  0  0  0  0  0999 V2000
   13.8223    1.5823    0.0000 C   0  0  0  0  0  0  0  0  0  0  0  0
   13.8211    0.7555    0.0000 C   0  0  0  0  0  0  0  0  0  0  0  0
   14.5355    0.3429    0.0000 C   0  0  0  0  0  0  0  0  0  0  0  0
   14.5337    1.9947    0.0000 C   0  0  0  0  0  0  0  0  0  0  0  0
   15.2485    1.5859    0.0000 C   0  0  0  0  0  0  0  0  0  0  0  0
   15.2534    0.7555    0.0000 C   0  0  0  0  0  0  0  0  0  0  0  0
   16.0448    0.5038    0.0000 N   0  0  0  0  0  0  0  0  0  0  0  0
   16.5290    1.1782    0.0000 C   0  0  0  0  0  0  0  0  0  0  0  0
   16.0365    1.8466    0.0000 C   0  0  0  0  0  0  0  0  0  0  0  0
   16.4485    2.5607    0.0000 C   0  0  0  0  0  0  0  0  0  0  0  0
   17.2706    2.5608    0.0000 C   0  0  0  0  0  0  0  0  0  0  0  0
   17.6825    3.2708    0.0000 C   0  0  0  0  0  0  0  0  0  0  0  0
   17.2736    3.9871    0.0000 N   0  0  0  0  0  0  0  0  0  0  0  0
   16.4482    3.9888    0.0000 C   0  0  0  0  0  0  0  0  0  0  0  0
   16.0317    3.2743    0.0000 C   0  0  0  0  0  0  0  0  0  0  0  0
   16.4529   -0.2126    0.0000 C   0  0  0  0  0  0  0  0  0  0  0  0
   16.0348   -0.9242    0.0000 C   0  0  0  0  0  0  0  0  0  0  0  0
   16.4422   -1.6401    0.0000 C   0  0  0  0  0  0  0  0  0  0  0  0
   17.2675   -1.6453    0.0000 C   0  0  0  0  0  0  0  0  0  0  0  0
   17.6837   -0.9287    0.0000 C   0  0  0  0  0  0  0  0  0  0  0  0
   17.2739   -0.2158    0.0000 C   0  0  0  0  0  0  0  0  0  0  0  0
   17.6766   -2.3611    0.0000 F   0  0  0  0  0  0  0  0  0  0  0  0
   17.6883    4.7021    0.0000 C   0  0  0  0  0  0  0  0  0  0  0  0
   18.5128    4.7050    0.0000 C   0  0  0  0  0  0  0  0  0  0  0  0
   18.9274    5.4165    0.0000 N   0  0  0  0  0  0  0  0  0  0  0  0
   19.7443    5.4924    0.0000 C   0  0  0  0  0  0  0  0  0  0  0  0
   19.9186    6.3021    0.0000 N   0  0  0  0  0  0  0  0  0  0  0  0
   19.2060    6.7201    0.0000 C   0  0  0  0  0  0  0  0  0  0  0  0
   18.5915    6.1705    0.0000 C   0  0  0  0  0  0  0  0  0  0  0  0
   20.2936    4.8830    0.0000 O   0  0  0  0  0  0  0  0  0  0  0  0
   13.1082    1.9943    0.0000 Cl  0  0  0  0  0  0  0  0  0  0  0  0
 13 14  1  0
 14 15  1  0
  5  4  1  0
  7 16  1  0
  6  7  1  0
 16 17  2  0
  7  8  1  0
 17 18  1  0
  8  9  2  0
 18 19  2  0
  9  5  1  0
 19 20  1  0
  4  1  2  0
 20 21  2  0
 21 16  1  0
  9 10  1  0
 19 22  1  0
 10 11  1  0
 13 23  1  0
  5  6  2  0
 23 24  1  0
 24 25  1  0
 25 26  1  0
  2  3  2  0
  3  6  1  0
  1  2  1  0
 10 15  1  0
 26 27  1  0
 27 28  1  0
 28 29  1  0
 29 25  1  0
 11 12  1  0
 26 30  2  0
 12 13  1  0
  1 31  1  0
M  END
>  <Classification>  (260) 
1

>  <pchembl>  (260) 
5.19

>  <InChI_steorem>  (260) 
InChI=1S/C24H26ClFN4O/c25-18-1-6-23-21(15-18)22(16-30(23)20-4-2-19(26)3-5-20)17-7-10-28(11-8-17)13-14-29-12-9-27-24(29)31/h1-6,15-17H,7-14H2,(H,27,31)

>  <source>  (260) 
ChEMBL25

>  <source_id>  (260) 
25

>  <optional_reference>  (260) 
10.1021/jm101421d

>  <optional_origin>  (260) 
None

>  <target>  (260) 
MDR1

$$$$

     RDKit          2D

 86 86  0  0  0  0  0  0  0  0999 V2000
    1.0754   -0.7045    0.0000 N   0  0  0  0  0  0  0  0  0  0  0  0
    0.3523   -0.2873    0.0000 C   0  0  0  0  0  0  0  0  0  0  0  0
   -1.0754   -0.2873    0.0000 N   0  0  0  0  0  0  0  0  0  0  0  0
    1.7892   -0.2873    0.0000 C   0  0  0  0  0  0  0  0  0  0  0  0
   -1.7892   -0.7045    0.0000 C   0  0  0  0  0  0  0  0  0  0  0  0
   -3.2169   -0.6906    0.0000 N   0  0  0  0  0  0  0  0  0  0  0  0
   -3.2400   -1.5157    0.0000 C   0  0  0  0  0  0  0  0  0  0  0  0
   -3.9539   -2.7441    0.0000 N   0  0  0  0  0  0  0  0  0  0  0  0
    2.5030   -0.7045    0.0000 C   0  0  0  0  0  0  0  0  0  0  0  0
    1.8031   -3.5830    0.0000 N   0  0  0  0  0  0  0  0  0  0  0  0
    2.5169   -3.9956    0.0000 C   0  0  0  0  0  0  0  0  0  0  0  0
   -2.5123   -0.2873    0.0000 C   0  0  0  0  0  0  0  0  0  0  0  0
   -3.9539   -1.9190    0.0000 C   0  0  0  0  0  0  0  0  0  0  0  0
    3.9585   -4.0049    0.0000 N   0  0  0  0  0  0  0  0  0  0  0  0
    6.0999   -3.5830    0.0000 N   0  0  0  0  0  0  0  0  0  0  0  0
   -3.2447   -3.1705    0.0000 C   0  0  0  0  0  0  0  0  0  0  0  0
    4.6862   -3.5830    0.0000 C   0  0  0  0  0  0  0  0  0  0  0  0
   -0.3615   -0.7045    0.0000 C   0  0  0  0  0  0  0  0  0  0  0  0
    0.3894   -3.5830    0.0000 C   0  0  0  0  0  0  0  0  0  0  0  0
    6.0999   -2.7533    0.0000 C   0  0  0  0  0  0  0  0  0  0  0  0
    3.2215   -0.2873    0.0000 N   0  0  0  0  0  0  0  0  0  0  0  0
    5.3676   -0.7045    0.0000 N   0  0  0  0  0  0  0  0  0  0  0  0
    1.0800   -3.9956    0.0000 C   0  0  0  0  0  0  0  0  0  0  0  0
    3.2308   -3.5830    0.0000 C   0  0  0  0  0  0  0  0  0  0  0  0
    5.3815   -3.9956    0.0000 C   0  0  0  0  0  0  0  0  0  0  0  0
    4.6538   -0.2873    0.0000 C   0  0  0  0  0  0  0  0  0  0  0  0
   -0.3337   -4.0049    0.0000 N   0  0  0  0  0  0  0  0  0  0  0  0
   -2.4984   -3.5830    0.0000 N   0  0  0  0  0  0  0  0  0  0  0  0
   -1.7753   -3.9956    0.0000 C   0  0  0  0  0  0  0  0  0  0  0  0
   -3.2122   -3.9956    0.0000 C   0  0  0  0  0  0  0  0  0  0  0  0
    3.9353   -0.7045    0.0000 C   0  0  0  0  0  0  0  0  0  0  0  0
    5.3815   -2.3408    0.0000 C   0  0  0  0  0  0  0  0  0  0  0  0
    1.7892    0.5470    0.0000 C   0  0  0  0  0  0  0  0  0  0  0  0
   -1.0615   -3.5830    0.0000 C   0  0  0  0  0  0  0  0  0  0  0  0
    0.3523    0.5470    0.0000 O   0  0  0  0  0  0  0  0  0  0  0  0
   -1.7892   -1.5296    0.0000 O   0  0  0  0  0  0  0  0  0  0  0  0
   -2.5262   -1.9282    0.0000 O   0  0  0  0  0  0  0  0  0  0  0  0
    2.5169   -4.8206    0.0000 O   0  0  0  0  0  0  0  0  0  0  0  0
    2.5030   -1.5296    0.0000 O   0  0  0  0  0  0  0  0  0  0  0  0
   -2.5123    0.5470    0.0000 C   0  0  0  0  0  0  0  0  0  0  0  0
   -4.6584   -1.5018    0.0000 C   0  0  0  0  0  0  0  0  0  0  0  0
   -2.5308   -2.7533    0.0000 O   0  0  0  0  0  0  0  0  0  0  0  0
    4.6677   -2.7533    0.0000 O   0  0  0  0  0  0  0  0  0  0  0  0
    0.3662   -2.7533    0.0000 O   0  0  0  0  0  0  0  0  0  0  0  0
    6.8138   -2.3408    0.0000 O   0  0  0  0  0  0  0  0  0  0  0  0
    4.6538    0.5470    0.0000 O   0  0  0  0  0  0  0  0  0  0  0  0
    1.0800   -4.8206    0.0000 C   0  0  0  0  0  0  0  0  0  0  0  0
    5.3815   -4.8206    0.0000 C   0  0  0  0  0  0  0  0  0  0  0  0
   -1.7753   -4.8206    0.0000 O   0  0  0  0  0  0  0  0  0  0  0  0
   -0.3615   -1.5296    0.0000 C   0  0  0  0  0  0  0  0  0  0  0  0
    3.2308   -2.7533    0.0000 C   0  0  0  0  0  0  0  0  0  0  0  0
    1.0754   -1.5296    0.0000 C   0  0  0  0  0  0  0  0  0  0  0  0
    1.7892    2.2018    0.0000 C   0  0  0  0  0  0  0  0  0  0  0  0
   -1.0754    0.5470    0.0000 C   0  0  0  0  0  0  0  0  0  0  0  0
    1.7892    3.0268    0.0000 C   0  0  0  0  0  0  0  0  0  0  0  0
   -3.9400   -0.2642    0.0000 C   0  0  0  0  0  0  0  0  0  0  0  0
   -4.6770   -3.1566    0.0000 C   0  0  0  0  0  0  0  0  0  0  0  0
    1.8031   -2.7533    0.0000 C   0  0  0  0  0  0  0  0  0  0  0  0
    2.5030    0.9503    0.0000 C   0  0  0  0  0  0  0  0  0  0  0  0
    6.8138   -3.9956    0.0000 C   0  0  0  0  0  0  0  0  0  0  0  0
    1.0754    0.9503    0.0000 O   0  0  0  0  0  0  0  0  0  0  0  0
    6.0860   -0.2873    0.0000 C   0  0  0  0  0  0  0  0  0  0  0  0
    3.9353   -1.5296    0.0000 C   0  0  0  0  0  0  0  0  0  0  0  0
   -3.6155   -4.7326    0.0000 C   0  0  0  0  0  0  0  0  0  0  0  0
    2.5030    1.7753    0.0000 C   0  0  0  0  0  0  0  0  0  0  0  0
   -3.2261    0.9503    0.0000 C   0  0  0  0  0  0  0  0  0  0  0  0
   -5.3769   -1.9051    0.0000 C   0  0  0  0  0  0  0  0  0  0  0  0
    6.0999   -5.2332    0.0000 C   0  0  0  0  0  0  0  0  0  0  0  0
    0.3662   -5.2332    0.0000 C   0  0  0  0  0  0  0  0  0  0  0  0
   -1.0615   -2.7533    0.0000 C   0  0  0  0  0  0  0  0  0  0  0  0
    1.0754    3.4255    0.0000 C   0  0  0  0  0  0  0  0  0  0  0  0
   -1.0754   -1.9421    0.0000 C   0  0  0  0  0  0  0  0  0  0  0  0
    3.9446   -2.3408    0.0000 C   0  0  0  0  0  0  0  0  0  0  0  0
    2.5169   -2.3408    0.0000 C   0  0  0  0  0  0  0  0  0  0  0  0
    0.3523   -1.9421    0.0000 C   0  0  0  0  0  0  0  0  0  0  0  0
    3.2215    0.5470    0.0000 C   0  0  0  0  0  0  0  0  0  0  0  0
    6.8138   -4.8206    0.0000 C   0  0  0  0  0  0  0  0  0  0  0  0
    0.3662   -6.0582    0.0000 C   0  0  0  0  0  0  0  0  0  0  0  0
   -0.2225   -4.8809    0.0000 C   0  0  0  0  0  0  0  0  0  0  0  0
   -3.9400    0.5470    0.0000 C   0  0  0  0  0  0  0  0  0  0  0  0
   -6.0815   -1.4787    0.0000 C   0  0  0  0  0  0  0  0  0  0  0  0
   -5.3815   -2.7302    0.0000 C   0  0  0  0  0  0  0  0  0  0  0  0
   -3.2261    1.7753    0.0000 C   0  0  0  0  0  0  0  0  0  0  0  0
    6.0999   -6.0582    0.0000 C   0  0  0  0  0  0  0  0  0  0  0  0
    4.6538   -1.9421    0.0000 C   0  0  0  0  0  0  0  0  0  0  0  0
    3.2132   -1.9477    0.0000 C   0  0  0  0  0  0  0  0  0  0  0  0
  2  1  1  0
  3 18  1  0
  4  1  1  0
  5  3  1  0
  6 12  1  0
  7  6  1  0
  8 13  1  0
  9  4  1  0
 10 11  1  0
 11 24  1  0
 12  5  1  0
 13  7  1  0
 14 17  1  0
 15 20  1  0
 16  8  1  0
 17 25  1  0
 18  2  1  0
 19 27  1  0
 20 32  1  0
 21  9  1  0
 22 26  1  0
 23 10  1  0
 24 14  1  0
 25 15  1  0
 26 31  1  0
 27 34  1  0
 28 30  1  0
 29 28  1  0
 30 16  1  0
 31 21  1  0
 32 22  1  0
 33  4  1  0
 34 29  1  0
 35  2  2  0
 36  5  2  0
 37  7  2  0
 38 11  2  0
 39  9  2  0
 12 40  1  0
 13 41  1  0
 42 16  2  0
 43 17  2  0
 44 19  2  0
 45 20  2  0
 46 26  2  0
 23 47  1  0
 25 48  1  0
 49 29  2  0
 18 50  1  0
 24 51  1  0
 52  1  1  0
 53 65  1  0
 54  3  1  0
 55 53  2  3
 56  6  1  0
 57  8  1  0
 58 10  1  0
 59 33  1  0
 60 15  1  0
 33 61  2  0
 62 22  1  0
 31 63  1  0
 30 64  1  0
 65 59  1  0
 66 40  1  0
 67 41  1  0
 68 48  1  0
 69 47  1  0
 34 70  1  0
 71 55  1  0
 72 50  1  0
 73 51  1  0
 74 51  1  0
 75 50  1  0
 59 76  1  0
 77 68  1  0
 78 69  1  0
 79 69  1  0
 80 66  1  0
 81 67  1  0
 82 67  1  0
 83 66  1  0
 84 68  1  0
 85 63  1  0
 23 19  1  0
 63 86  1  0
M  END
>  <Classification>  (261) 
1

>  <pchembl>  (261) 
6.3

>  <InChI_steorem>  (261) 
InChI=1S/C63H111N11O12/c1-26-27-28-41(16)53(76)52-57(80)67-49(38(10)11)61(84)68(19)33-48(75)69(20)44(29-34(2)3)56(79)66-50(39(12)13)62(85)70(21)45(30-35(4)5)55(78)64-42(17)54(77)65-43(18)58(81)71(22)46(31-36(6)7)59(82)72(23)47(32-37(8)9)60(83)73(24)51(40(14)15)63(86)74(52)25/h26-27,34-47,49-52H,28-33H2,1-25H3,(H,64,78)(H,65,77)(H,66,79)(H,67,80)

>  <source>  (261) 
ChEMBL25

>  <source_id>  (261) 
25

>  <optional_reference>  (261) 
10.1021/jm201705f

>  <optional_origin>  (261) 
None

>  <target>  (261) 
MDR1

$$$$

     RDKit          2D

 20 21  0  0  0  0  0  0  0  0999 V2000
    9.1479  -13.5834    0.0000 C   0  0  0  0  0  0  0  0  0  0  0  0
    8.4331  -13.9953    0.0000 C   0  0  0  0  0  0  0  0  0  0  0  0
    7.7224  -13.5814    0.0000 C   0  0  0  0  0  0  0  0  0  0  0  0
    7.0081  -13.9926    0.0000 C   0  0  0  0  0  0  0  0  0  0  0  0
    7.0070  -14.8185    0.0000 C   0  0  0  0  0  0  0  0  0  0  0  0
    7.7262  -15.2314    0.0000 C   0  0  0  0  0  0  0  0  0  0  0  0
    8.4375  -14.8178    0.0000 C   0  0  0  0  0  0  0  0  0  0  0  0
    6.2942  -13.5792    0.0000 O   0  0  0  0  0  0  0  0  0  0  0  0
    7.7284  -16.0564    0.0000 O   0  0  0  0  0  0  0  0  0  0  0  0
   10.5819  -12.7541    0.0000 C   0  0  0  0  0  0  0  0  0  0  0  0
   10.5807  -13.5815    0.0000 C   0  0  0  0  0  0  0  0  0  0  0  0
   11.2956  -13.9944    0.0000 C   0  0  0  0  0  0  0  0  0  0  0  0
   12.0120  -13.5810    0.0000 C   0  0  0  0  0  0  0  0  0  0  0  0
   12.0091  -12.7505    0.0000 C   0  0  0  0  0  0  0  0  0  0  0  0
   11.2938  -12.3414    0.0000 C   0  0  0  0  0  0  0  0  0  0  0  0
   12.7221  -12.3353    0.0000 O   0  0  0  0  0  0  0  0  0  0  0  0
    9.8659  -13.9934    0.0000 C   0  0  0  0  0  0  0  0  0  0  0  0
    6.2952  -12.7542    0.0000 C   0  0  0  0  0  0  0  0  0  0  0  0
    8.4440  -16.4670    0.0000 C   0  0  0  0  0  0  0  0  0  0  0  0
   12.7189  -11.5103    0.0000 C   0  0  0  0  0  0  0  0  0  0  0  0
  2  3  2  0
 10 11  2  0
  5  6  1  0
 11 12  1  0
  1  2  1  0
 12 13  2  0
  6  7  2  0
 13 14  1  0
  7  2  1  0
 14 15  2  0
 15 10  1  0
  3  4  1  0
 14 16  1  0
  4  8  1  0
 11 17  1  0
 17  1  2  3
  8 18  1  0
  6  9  1  0
  9 19  1  0
  4  5  2  0
 16 20  1  0
M  END
>  <Classification>  (262) 
1

>  <pchembl>  (262) 
5.1

>  <InChI_steorem>  (262) 
InChI=1S/C17H18O3/c1-18-15-8-6-13(7-9-15)4-5-14-10-16(19-2)12-17(11-14)20-3/h4-12H,1-3H3

>  <source>  (262) 
ChEMBL25

>  <source_id>  (262) 
25

>  <optional_reference>  (262) 
10.1021/jm060253o

>  <optional_origin>  (262) 
None

>  <target>  (262) 
MDR1

$$$$

     RDKit          2D

 44 49  0  0  0  0  0  0  0  0999 V2000
   -1.7429   -4.6672    0.0000 C   0  0  0  0  0  0  0  0  0  0  0  0
   -1.7440   -5.4967    0.0000 C   0  0  0  0  0  0  0  0  0  0  0  0
   -1.0268   -5.9127    0.0000 C   0  0  0  0  0  0  0  0  0  0  0  0
   -1.0286   -4.2556    0.0000 C   0  0  0  0  0  0  0  0  0  0  0  0
   -0.3109   -4.6637    0.0000 C   0  0  0  0  0  0  0  0  0  0  0  0
   -0.3113   -5.4930    0.0000 C   0  0  0  0  0  0  0  0  0  0  0  0
    0.4783   -5.7513    0.0000 N   0  0  0  0  0  0  0  0  0  0  0  0
    0.4780   -4.4103    0.0000 C   0  0  0  0  0  0  0  0  0  0  0  0
    0.9581   -5.0759    0.0000 C   0  0  0  0  0  0  0  0  0  0  0  0
    1.6252   -3.5765    0.0000 C   0  0  0  0  0  0  0  0  0  0  0  0
    0.8064   -3.6601    0.0000 C   0  0  0  0  0  0  0  0  0  0  0  0
    2.1094   -4.2422    0.0000 N   0  0  0  0  0  0  0  0  0  0  0  0
    1.7723   -4.9873    0.0000 C   0  0  0  0  0  0  0  0  0  0  0  0
    2.2491   -5.6468    0.0000 C   0  0  0  0  0  0  0  0  0  0  0  0
    2.9192   -4.1564    0.0000 C   0  0  0  0  0  0  0  0  0  0  0  0
    3.3941   -4.8218    0.0000 C   0  0  0  0  0  0  0  0  0  0  0  0
    3.0597   -5.5600    0.0000 C   0  0  0  0  0  0  0  0  0  0  0  0
    3.5333   -6.2191    0.0000 C   0  0  0  0  0  0  0  0  0  0  0  0
    4.3438   -6.1417    0.0000 C   0  0  0  0  0  0  0  0  0  0  0  0
    4.6779   -5.3996    0.0000 C   0  0  0  0  0  0  0  0  0  0  0  0
    4.2020   -4.7343    0.0000 C   0  0  0  0  0  0  0  0  0  0  0  0
    5.5050   -5.3899    0.0000 O   0  0  0  0  0  0  0  0  0  0  0  0
    5.9123   -4.6683    0.0000 C   0  0  0  0  0  0  0  0  0  0  0  0
    6.7393   -4.6588    0.0000 C   0  0  0  0  0  0  0  0  0  0  0  0
    5.4884   -3.9605    0.0000 O   0  0  0  0  0  0  0  0  0  0  0  0
    7.1544   -5.3731    0.0000 C   0  0  0  0  0  0  0  0  0  0  0  0
    7.9807   -5.3638    0.0000 C   0  0  0  0  0  0  0  0  0  0  0  0
    8.3888   -4.6417    0.0000 C   0  0  0  0  0  0  0  0  0  0  0  0
    7.9605   -3.9274    0.0000 C   0  0  0  0  0  0  0  0  0  0  0  0
    7.1356   -3.9402    0.0000 C   0  0  0  0  0  0  0  0  0  0  0  0
    8.3610   -3.2115    0.0000 O   0  0  0  0  0  0  0  0  0  0  0  0
    7.9387   -2.5010    0.0000 C   0  0  0  0  0  0  0  0  0  0  0  0
    9.2107   -4.6317    0.0000 O   0  0  0  0  0  0  0  0  0  0  0  0
    9.6128   -3.9096    0.0000 C   0  0  0  0  0  0  0  0  0  0  0  0
    8.4009   -6.0717    0.0000 O   0  0  0  0  0  0  0  0  0  0  0  0
    9.2279   -6.0625    0.0000 C   0  0  0  0  0  0  0  0  0  0  0  0
    4.8223   -6.8154    0.0000 O   0  0  0  0  0  0  0  0  0  0  0  0
    5.6455   -6.7356    0.0000 C   0  0  0  0  0  0  0  0  0  0  0  0
    3.1093   -6.9311    0.0000 C   0  0  0  0  0  0  0  0  0  0  0  0
    2.2823   -6.9214    0.0000 O   0  0  0  0  0  0  0  0  0  0  0  0
    3.5166   -7.6527    0.0000 O   0  0  0  0  0  0  0  0  0  0  0  0
    1.8625   -7.6333    0.0000 C   0  0  0  0  0  0  0  0  0  0  0  0
   -2.4592   -5.9080    0.0000 O   0  0  0  0  0  0  0  0  0  0  0  0
   -2.4599   -6.7350    0.0000 C   0  0  0  0  0  0  0  0  0  0  0  0
  5  6  1  0
 20 22  1  0
  8 11  1  0
 22 23  1  0
  9 13  1  0
 23 24  1  0
 12 10  1  0
 23 25  2  0
 10 11  1  0
 24 26  2  0
 12 13  1  0
 26 27  1  0
 27 28  2  0
  2  3  1  0
 28 29  1  0
  3  6  2  0
 29 30  2  0
 30 24  1  0
  8  5  1  0
 12 15  1  0
 31 32  1  0
 29 31  1  0
 13 14  1  0
 14 17  1  0
 33 34  1  0
 28 33  1  0
 16 15  1  0
 16 17  1  0
 35 36  1  0
 27 35  1  0
  6  7  1  0
  7  9  1  0
 19 37  1  0
  8  9  2  0
 37 38  1  0
  1  2  2  0
 18 39  1  0
  5  4  2  0
 39 40  1  0
  4  1  1  0
 39 41  2  0
 16 21  1  0
 40 42  1  0
 17 18  1  0
 18 19  1  0
 19 20  1  0
 20 21  1  0
 43 44  1  0
  2 43  1  0
M  END
>  <Classification>  (263) 
1

>  <pchembl>  (263) 
7.0

>  <InChI_steorem>  (263) 
InChI=1S/C33H40N2O9/c1-38-19-7-8-20-21-9-10-35-16-18-13-27(44-32(36)17-11-25(39-2)30(41-4)26(12-17)40-3)31(42-5)28(33(37)43-6)22(18)15-24(35)29(21)34-23(20)14-19/h7-8,11-12,14,18,22,24,27-28,31,34H,9-10,13,15-16H2,1-6H3

>  <source>  (263) 
ChEMBL25

>  <source_id>  (263) 
25

>  <optional_reference>  (263) 
10.1021/jm020941h

>  <optional_origin>  (263) 
None

>  <target>  (263) 
MDR1

$$$$

     RDKit          2D

 21 23  0  0  0  0  0  0  0  0999 V2000
    5.2444   -6.8708    0.0000 C   0  0  0  0  0  0  0  0  0  0  0  0
    5.2432   -7.6982    0.0000 C   0  0  0  0  0  0  0  0  0  0  0  0
    5.9581   -8.1110    0.0000 C   0  0  0  0  0  0  0  0  0  0  0  0
    6.6745   -7.6977    0.0000 C   0  0  0  0  0  0  0  0  0  0  0  0
    6.6716   -6.8672    0.0000 C   0  0  0  0  0  0  0  0  0  0  0  0
    5.9563   -6.4580    0.0000 C   0  0  0  0  0  0  0  0  0  0  0  0
    7.3815   -6.4533    0.0000 C   0  0  0  0  0  0  0  0  0  0  0  0
    8.0978   -6.8648    0.0000 C   0  0  0  0  0  0  0  0  0  0  0  0
    8.8102   -6.4503    0.0000 C   0  0  0  0  0  0  0  0  0  0  0  0
    8.8076   -5.6244    0.0000 C   0  0  0  0  0  0  0  0  0  0  0  0
    8.0865   -5.2148    0.0000 C   0  0  0  0  0  0  0  0  0  0  0  0
    7.3771   -5.6317    0.0000 C   0  0  0  0  0  0  0  0  0  0  0  0
    9.5161   -5.2067    0.0000 C   0  0  0  0  0  0  0  0  0  0  0  0
   10.2329   -5.6173    0.0000 C   0  0  0  0  0  0  0  0  0  0  0  0
   10.9448   -5.2018    0.0000 C   0  0  0  0  0  0  0  0  0  0  0  0
   10.9410   -4.3760    0.0000 C   0  0  0  0  0  0  0  0  0  0  0  0
   10.2194   -3.9673    0.0000 C   0  0  0  0  0  0  0  0  0  0  0  0
    9.5105   -4.3851    0.0000 C   0  0  0  0  0  0  0  0  0  0  0  0
   10.2123   -3.1423    0.0000 O   0  0  0  0  0  0  0  0  0  0  0  0
   11.6612   -5.6110    0.0000 O   0  0  0  0  0  0  0  0  0  0  0  0
    4.5284   -8.1101    0.0000 O   0  0  0  0  0  0  0  0  0  0  0  0
 10 11  1  0
  5  6  1  0
 11 12  2  0
 12  7  1  0
  5  7  1  0
  6  1  2  0
  1  2  1  0
 13 14  2  0
  3  4  1  0
 14 15  1  0
  7  8  2  0
 15 16  2  0
 16 17  1  0
  8  9  1  0
 17 18  2  0
 18 13  1  0
 10 13  1  0
  4  5  2  0
 17 19  1  0
  9 10  2  0
 15 20  1  0
  2  3  2  0
  2 21  1  0
M  END
>  <Classification>  (264) 
0

>  <pchembl>  (264) 
4.64

>  <InChI_steorem>  (264) 
InChI=1S/C18H14O3/c19-16-7-5-13(6-8-16)12-1-3-14(4-2-12)15-9-17(20)11-18(21)10-15/h1-11,19-21H

>  <source>  (264) 
ChEMBL25

>  <source_id>  (264) 
25

>  <optional_reference>  (264) 
10.1021/jm060253o

>  <optional_origin>  (264) 
None

>  <target>  (264) 
MDR1

$$$$

     RDKit          2D

 26 27  0  0  0  0  0  0  0  0999 V2000
   -3.8542   -5.5875    0.0000 C   0  0  0  0  0  0  0  0  0  0  0  0
   -3.8542   -6.4125    0.0000 C   0  0  0  0  0  0  0  0  0  0  0  0
   -3.1421   -6.8208    0.0000 N   0  0  0  0  0  0  0  0  0  0  0  0
   -2.4301   -6.4125    0.0000 C   0  0  0  0  0  0  0  0  0  0  0  0
   -2.4301   -5.5875    0.0000 C   0  0  0  0  0  0  0  0  0  0  0  0
   -3.1421   -5.1708    0.0000 C   0  0  0  0  0  0  0  0  0  0  0  0
   -3.1417   -4.3467    0.0000 C   0  0  0  0  0  0  0  0  0  0  0  0
   -2.4256   -3.9348    0.0000 C   0  0  0  0  0  0  0  0  0  0  0  0
   -2.4252   -3.1106    0.0000 C   0  0  0  0  0  0  0  0  0  0  0  0
   -3.1403   -2.6972    0.0000 C   0  0  0  0  0  0  0  0  0  0  0  0
   -3.8571   -3.1142    0.0000 C   0  0  0  0  0  0  0  0  0  0  0  0
   -3.8539   -3.9370    0.0000 C   0  0  0  0  0  0  0  0  0  0  0  0
   -4.5698   -5.1771    0.0000 C   0  0  0  0  0  0  0  0  0  0  0  0
   -4.5723   -4.3521    0.0000 O   0  0  0  0  0  0  0  0  0  0  0  0
   -5.2831   -5.5917    0.0000 O   0  0  0  0  0  0  0  0  0  0  0  0
   -4.5680   -6.8260    0.0000 C   0  0  0  0  0  0  0  0  0  0  0  0
   -1.7163   -6.8260    0.0000 C   0  0  0  0  0  0  0  0  0  0  0  0
   -1.7145   -5.1771    0.0000 C   0  0  0  0  0  0  0  0  0  0  0  0
   -1.0012   -5.5917    0.0000 O   0  0  0  0  0  0  0  0  0  0  0  0
   -1.7120   -4.3521    0.0000 O   0  0  0  0  0  0  0  0  0  0  0  0
   -0.2855   -5.1813    0.0000 C   0  0  0  0  0  0  0  0  0  0  0  0
   -1.7078   -2.6963    0.0000 N   0  0  0  0  0  0  0  0  0  0  0  0
   -1.7074   -1.8713    0.0000 O   0  0  0  0  0  0  0  0  0  0  0  0
   -0.9935   -3.1091    0.0000 O   0  0  0  0  0  0  0  0  0  0  0  0
    0.4277   -5.5959    0.0000 C   0  0  0  0  0  0  0  0  0  0  0  0
   -5.9988   -5.1813    0.0000 C   0  0  0  0  0  0  0  0  0  0  0  0
  5  6  1  0
  1 13  1  0
 13 14  2  0
  1  2  2  0
 13 15  1  0
  7  8  2  0
  2 16  1  0
  1  6  1  0
  4 17  1  0
  8  9  1  0
  5 18  1  0
  2  3  1  0
 18 19  1  0
  9 10  2  0
 18 20  2  0
  3  4  1  0
 19 21  1  0
 10 11  1  0
  4  5  2  0
 11 12  2  0
 22 23  2  0
 22 24  1  0
  9 22  1  0
 12  7  1  0
 21 25  1  0
  6  7  1  0
 15 26  1  0
M  CHG  2  22   1  24  -1
M  END
>  <Classification>  (265) 
0

>  <pchembl>  (265) 
4.17

>  <InChI_steorem>  (265) 
InChI=1S/C18H20N2O6/c1-5-26-18(22)15-11(3)19-10(2)14(17(21)25-4)16(15)12-7-6-8-13(9-12)20(23)24/h6-9,16,19H,5H2,1-4H3

>  <source>  (265) 
ChEMBL25

>  <source_id>  (265) 
25

>  <optional_reference>  (265) 
10.1016/s0928-0987(02)00082-9

>  <optional_origin>  (265) 
None

>  <target>  (265) 
MDR1

$$$$

     RDKit          2D

 23 25  0  0  0  0  0  0  0  0999 V2000
   12.0112   -3.4452    0.0000 C   0  0  0  0  0  0  0  0  0  0  0  0
   11.9946   -4.2701    0.0000 C   0  0  0  0  0  0  0  0  0  0  0  0
   11.2741   -4.6713    0.0000 C   0  0  0  0  0  0  0  0  0  0  0  0
   10.5661   -4.2435    0.0000 C   0  0  0  0  0  0  0  0  0  0  0  0
    9.8416   -4.6406    0.0000 C   0  0  0  0  0  0  0  0  0  0  0  0
    9.1377   -4.2128    0.0000 C   0  0  0  0  0  0  0  0  0  0  0  0
    9.1544   -3.3880    0.0000 C   0  0  0  0  0  0  0  0  0  0  0  0
    9.8748   -2.9909    0.0000 C   0  0  0  0  0  0  0  0  0  0  0  0
   10.5828   -3.4186    0.0000 C   0  0  0  0  0  0  0  0  0  0  0  0
   11.3073   -3.0216    0.0000 O   0  0  0  0  0  0  0  0  0  0  0  0
   11.2533   -5.4962    0.0000 O   0  0  0  0  0  0  0  0  0  0  0  0
    8.4463   -2.9643    0.0000 O   0  0  0  0  0  0  0  0  0  0  0  0
   12.6984   -4.6978    0.0000 O   0  0  0  0  0  0  0  0  0  0  0  0
   12.7316   -3.0482    0.0000 C   0  0  0  0  0  0  0  0  0  0  0  0
   12.7482   -2.2233    0.0000 C   0  0  0  0  0  0  0  0  0  0  0  0
   13.4729   -1.8263    0.0000 C   0  0  0  0  0  0  0  0  0  0  0  0
   14.1767   -2.2541    0.0000 C   0  0  0  0  0  0  0  0  0  0  0  0
   14.1601   -3.0789    0.0000 C   0  0  0  0  0  0  0  0  0  0  0  0
   13.4396   -3.4760    0.0000 C   0  0  0  0  0  0  0  0  0  0  0  0
   14.9013   -1.8529    0.0000 O   0  0  0  0  0  0  0  0  0  0  0  0
   13.4895   -1.0015    0.0000 O   0  0  0  0  0  0  0  0  0  0  0  0
   14.2128   -0.6054    0.0000 C   0  0  0  0  0  0  0  0  0  0  0  0
   14.9176   -1.0279    0.0000 C   0  0  0  0  0  0  0  0  0  0  0  0
  2  3  1  0
  3  4  1  0
  4  5  2  0
  5  6  1  0
  6  7  2  0
  7  8  1  0
  8  9  2  0
  4  9  1  0
  9 10  1  0
  1 10  1  0
  3 11  2  0
  7 12  1  0
  2 13  1  0
 14 15  2  0
 15 16  1  0
 16 17  2  0
 17 18  1  0
 18 19  2  0
 14 19  1  0
 17 20  1  0
 16 21  1  0
  1 14  1  0
 21 22  1  0
  1  2  2  0
 20 23  1  0
M  END
>  <Classification>  (266) 
1

>  <pchembl>  (266) 
5.2

>  <InChI_steorem>  (266) 
InChI=1S/C17H14O6/c1-21-12-6-3-9(7-14(12)22-2)17-16(20)15(19)11-5-4-10(18)8-13(11)23-17/h3-8,18,20H,1-2H3

>  <source>  (266) 
ChEMBL25

>  <source_id>  (266) 
25

>  <optional_reference>  (266) 
10.1016/j.bbrc.2004.06.020

>  <optional_origin>  (266) 
None

>  <target>  (266) 
MDR1

$$$$

     RDKit          2D

 23 25  0  0  0  0  0  0  0  0999 V2000
   10.3483   -5.9775    0.0000 C   0  0  0  0  0  0  0  0  0  0  0  0
   10.3406   -6.8054    0.0000 C   0  0  0  0  0  0  0  0  0  0  0  0
   11.0513   -7.2227    0.0000 C   0  0  0  0  0  0  0  0  0  0  0  0
   11.0605   -5.5695    0.0000 C   0  0  0  0  0  0  0  0  0  0  0  0
   11.7721   -5.9853    0.0000 C   0  0  0  0  0  0  0  0  0  0  0  0
   11.7712   -6.8178    0.0000 C   0  0  0  0  0  0  0  0  0  0  0  0
   12.4845   -7.2369    0.0000 C   0  0  0  0  0  0  0  0  0  0  0  0
   13.2097   -6.8223    0.0000 C   0  0  0  0  0  0  0  0  0  0  0  0
   13.2147   -5.9899    0.0000 C   0  0  0  0  0  0  0  0  0  0  0  0
   12.4945   -5.5679    0.0000 O   0  0  0  0  0  0  0  0  0  0  0  0
   12.4819   -8.0612    0.0000 O   0  0  0  0  0  0  0  0  0  0  0  0
   13.9289   -5.5832    0.0000 C   0  0  0  0  0  0  0  0  0  0  0  0
   14.6399   -5.9997    0.0000 C   0  0  0  0  0  0  0  0  0  0  0  0
   15.3575   -5.5940    0.0000 C   0  0  0  0  0  0  0  0  0  0  0  0
   15.3603   -4.7683    0.0000 C   0  0  0  0  0  0  0  0  0  0  0  0
   14.6447   -4.3510    0.0000 C   0  0  0  0  0  0  0  0  0  0  0  0
   13.9315   -4.7603    0.0000 C   0  0  0  0  0  0  0  0  0  0  0  0
    9.6379   -5.5610    0.0000 O   0  0  0  0  0  0  0  0  0  0  0  0
    9.6436   -4.7367    0.0000 C   0  0  0  0  0  0  0  0  0  0  0  0
   11.7535   -8.4672    0.0000 C   0  0  0  0  0  0  0  0  0  0  0  0
   16.0764   -4.3586    0.0000 O   0  0  0  0  0  0  0  0  0  0  0  0
   16.7894   -4.7739    0.0000 C   0  0  0  0  0  0  0  0  0  0  0  0
   11.0432   -8.0477    0.0000 O   0  0  0  0  0  0  0  0  0  0  0  0
  5  4  1  0
  4  1  2  0
  5  6  2  0
  5 10  1  0
  6  7  1  0
  7  8  1  0
  8  9  2  0
  9 10  1  0
  7 11  2  0
  9 12  1  0
 12 13  2  0
 13 14  1  0
 14 15  2  0
 15 16  1  0
 16 17  2  0
 17 12  1  0
  1 18  1  0
 18 19  1  0
  1  2  1  0
 15 21  1  0
  2  3  2  0
 21 22  1  0
  3  6  1  0
  3 23  1  0
 23 20  1  0
M  END
>  <Classification>  (267) 
1

>  <pchembl>  (267) 
5.85

>  <InChI_steorem>  (267) 
InChI=1S/C18H16O5/c1-20-12-6-4-11(5-7-12)15-10-14(19)18-16(22-3)8-13(21-2)9-17(18)23-15/h4-10H,1-3H3

>  <source>  (267) 
ChEMBL25

>  <source_id>  (267) 
25

>  <optional_reference>  (267) 
10.1016/j.bbrc.2004.06.020

>  <optional_origin>  (267) 
None

>  <target>  (267) 
MDR1

$$$$

     RDKit          2D

 24 27  0  0  0  0  0  0  0  0999 V2000
    9.5406   -0.8216    0.0000 C   0  0  0  0  0  0  0  0  0  0  0  0
    9.5394   -1.6497    0.0000 C   0  0  0  0  0  0  0  0  0  0  0  0
   10.2550   -2.0629    0.0000 C   0  0  0  0  0  0  0  0  0  0  0  0
   10.2532   -0.4084    0.0000 C   0  0  0  0  0  0  0  0  0  0  0  0
   10.9691   -0.8179    0.0000 C   0  0  0  0  0  0  0  0  0  0  0  0
   10.9699   -1.6455    0.0000 C   0  0  0  0  0  0  0  0  0  0  0  0
   11.6859   -2.0569    0.0000 N   0  0  0  0  0  0  0  0  0  0  0  0
   12.4015   -1.6417    0.0000 C   0  0  0  0  0  0  0  0  0  0  0  0
   12.3968   -0.8109    0.0000 N   0  0  0  0  0  0  0  0  0  0  0  0
   11.6803   -0.4034    0.0000 C   0  0  0  0  0  0  0  0  0  0  0  0
   13.1147   -2.0477    0.0000 C   0  0  0  0  0  0  0  0  0  0  0  0
   13.1166   -2.8745    0.0000 C   0  0  0  0  0  0  0  0  0  0  0  0
   13.8324   -3.2846    0.0000 C   0  0  0  0  0  0  0  0  0  0  0  0
   14.5470   -2.8688    0.0000 C   0  0  0  0  0  0  0  0  0  0  0  0
   14.5411   -2.0389    0.0000 C   0  0  0  0  0  0  0  0  0  0  0  0
   13.8246   -1.6326    0.0000 C   0  0  0  0  0  0  0  0  0  0  0  0
   11.6759    0.4224    0.0000 N   0  0  0  0  0  0  0  0  0  0  0  0
   12.3888    0.8391    0.0000 C   0  0  0  0  0  0  0  0  0  0  0  0
   13.1015    0.4265    0.0000 C   0  0  0  0  0  0  0  0  0  0  0  0
   13.8139    0.8425    0.0000 C   0  0  0  0  0  0  0  0  0  0  0  0
   13.8100    1.6691    0.0000 C   0  0  0  0  0  0  0  0  0  0  0  0
   13.0877    2.0780    0.0000 C   0  0  0  0  0  0  0  0  0  0  0  0
   12.3782    1.6597    0.0000 C   0  0  0  0  0  0  0  0  0  0  0  0
   13.0803    2.9038    0.0000 Br  0  0  0  0  0  0  0  0  0  0  0  0
 11 12  2  0
  5  6  1  0
 12 13  1  0
  3  6  2  0
 13 14  2  0
  6  7  1  0
 14 15  1  0
  1  2  2  0
 15 16  2  0
 16 11  1  0
  8 11  1  0
  7  8  2  0
 10 17  1  0
  5  4  2  0
 17 18  1  0
  8  9  1  0
 18 19  2  0
  4  1  1  0
 19 20  1  0
  9 10  2  0
 20 21  2  0
 10  5  1  0
 21 22  1  0
 22 23  2  0
 23 18  1  0
  2  3  1  0
 22 24  1  0
M  END
>  <Classification>  (268) 
0

>  <pchembl>  (268) 
4.91

>  <InChI_steorem>  (268) 
InChI=1S/C20H14BrN3/c21-15-9-6-10-16(13-15)22-20-17-11-4-5-12-18(17)23-19(24-20)14-7-2-1-3-8-14/h1-13H,(H,22,23,24)

>  <source>  (268) 
ChEMBL25

>  <source_id>  (268) 
25

>  <optional_reference>  (268) 
10.1016/j.bmc.2013.10.007

>  <optional_origin>  (268) 
None

>  <target>  (268) 
MDR1

$$$$

     RDKit          2D

 27 30  0  0  0  0  0  0  0  0999 V2000
    2.4248  -16.7040    0.0000 C   0  0  0  0  0  0  0  0  0  0  0  0
    2.4236  -17.5318    0.0000 C   0  0  0  0  0  0  0  0  0  0  0  0
    3.1387  -17.9448    0.0000 C   0  0  0  0  0  0  0  0  0  0  0  0
    3.1369  -16.2910    0.0000 C   0  0  0  0  0  0  0  0  0  0  0  0
    3.8527  -16.7004    0.0000 C   0  0  0  0  0  0  0  0  0  0  0  0
    3.8535  -17.5276    0.0000 C   0  0  0  0  0  0  0  0  0  0  0  0
    4.5691  -17.9388    0.0000 N   0  0  0  0  0  0  0  0  0  0  0  0
    5.2845  -17.5238    0.0000 C   0  0  0  0  0  0  0  0  0  0  0  0
    5.2797  -16.6934    0.0000 N   0  0  0  0  0  0  0  0  0  0  0  0
    4.5634  -16.2860    0.0000 C   0  0  0  0  0  0  0  0  0  0  0  0
    5.9973  -17.9296    0.0000 C   0  0  0  0  0  0  0  0  0  0  0  0
    5.9992  -18.7561    0.0000 C   0  0  0  0  0  0  0  0  0  0  0  0
    6.7148  -19.1660    0.0000 C   0  0  0  0  0  0  0  0  0  0  0  0
    7.4289  -18.7504    0.0000 C   0  0  0  0  0  0  0  0  0  0  0  0
    7.4231  -17.9208    0.0000 C   0  0  0  0  0  0  0  0  0  0  0  0
    6.7070  -17.5147    0.0000 C   0  0  0  0  0  0  0  0  0  0  0  0
    4.5591  -15.4606    0.0000 N   0  0  0  0  0  0  0  0  0  0  0  0
    5.2717  -15.0441    0.0000 C   0  0  0  0  0  0  0  0  0  0  0  0
    5.9841  -15.4565    0.0000 C   0  0  0  0  0  0  0  0  0  0  0  0
    6.6963  -15.0407    0.0000 C   0  0  0  0  0  0  0  0  0  0  0  0
    6.6923  -14.2144    0.0000 C   0  0  0  0  0  0  0  0  0  0  0  0
    5.9703  -13.8057    0.0000 C   0  0  0  0  0  0  0  0  0  0  0  0
    5.2611  -14.2238    0.0000 C   0  0  0  0  0  0  0  0  0  0  0  0
    5.9630  -12.9803    0.0000 O   0  0  0  0  0  0  0  0  0  0  0  0
    7.4043  -13.7970    0.0000 O   0  0  0  0  0  0  0  0  0  0  0  0
    8.1219  -14.2049    0.0000 C   0  0  0  0  0  0  0  0  0  0  0  0
    5.2446  -12.5739    0.0000 C   0  0  0  0  0  0  0  0  0  0  0  0
  3  6  2  0
 13 14  2  0
  6  7  1  0
 14 15  1  0
  1  2  2  0
 15 16  2  0
 16 11  1  0
  8 11  1  0
  7  8  2  0
 10 17  1  0
  5  4  2  0
 17 18  1  0
  8  9  1  0
 18 19  2  0
  4  1  1  0
 19 20  1  0
  9 10  2  0
 20 21  2  0
 10  5  1  0
 21 22  1  0
 22 23  2  0
 23 18  1  0
  2  3  1  0
 22 24  1  0
 11 12  2  0
 21 25  1  0
  5  6  1  0
 25 26  1  0
 12 13  1  0
 24 27  1  0
M  END
>  <Classification>  (269) 
1

>  <pchembl>  (269) 
5.23

>  <InChI_steorem>  (269) 
InChI=1S/C22H19N3O2/c1-26-19-13-12-16(14-20(19)27-2)23-22-17-10-6-7-11-18(17)24-21(25-22)15-8-4-3-5-9-15/h3-14H,1-2H3,(H,23,24,25)

>  <source>  (269) 
ChEMBL25

>  <source_id>  (269) 
25

>  <optional_reference>  (269) 
10.1016/j.bmcl.2012.08.024

>  <optional_origin>  (269) 
None

>  <target>  (269) 
MDR1

$$$$

     RDKit          2D

 23 25  0  0  0  0  0  0  0  0999 V2000
    8.2156  -16.1227    0.0000 C   0  0  0  0  0  0  0  0  0  0  0  0
    7.3903  -16.0867    0.0000 C   0  0  0  0  0  0  0  0  0  0  0  0
    8.6613  -15.4264    0.0000 O   0  0  0  0  0  0  0  0  0  0  0  0
    8.6388  -16.8356    0.0000 O   0  0  0  0  0  0  0  0  0  0  0  0
    6.6080  -18.0724    0.0000 N   0  0  0  0  0  0  0  0  0  0  0  0
    7.2513  -17.5456    0.0000 C   0  0  0  0  0  0  0  0  0  0  0  0
    6.9487  -16.7789    0.0000 C   0  0  0  0  0  0  0  0  0  0  0  0
    6.1240  -16.8304    0.0000 C   0  0  0  0  0  0  0  0  0  0  0  0
    5.5347  -16.2491    0.0000 C   0  0  0  0  0  0  0  0  0  0  0  0
    4.7372  -16.4684    0.0000 C   0  0  0  0  0  0  0  0  0  0  0  0
    4.5320  -17.2658    0.0000 C   0  0  0  0  0  0  0  0  0  0  0  0
    5.1212  -17.8471    0.0000 C   0  0  0  0  0  0  0  0  0  0  0  0
    5.9158  -17.6267    0.0000 C   0  0  0  0  0  0  0  0  0  0  0  0
    6.6065  -18.9014    0.0000 C   0  0  0  0  0  0  0  0  0  0  0  0
    5.8979  -19.3190    0.0000 C   0  0  0  0  0  0  0  0  0  0  0  0
    5.1764  -18.9087    0.0000 C   0  0  0  0  0  0  0  0  0  0  0  0
    4.4666  -19.3291    0.0000 C   0  0  0  0  0  0  0  0  0  0  0  0
    4.4726  -20.1559    0.0000 C   0  0  0  0  0  0  0  0  0  0  0  0
    5.1911  -20.5591    0.0000 C   0  0  0  0  0  0  0  0  0  0  0  0
    5.9038  -20.1456    0.0000 C   0  0  0  0  0  0  0  0  0  0  0  0
    7.3194  -19.3148    0.0000 O   0  0  0  0  0  0  0  0  0  0  0  0
    3.7569  -20.5722    0.0000 Cl  0  0  0  0  0  0  0  0  0  0  0  0
    4.9147  -18.6426    0.0000 C   0  0  0  0  0  0  0  0  0  0  0  0
  1  2  1  0
  1  3  2  0
  1  4  1  0
  5  6  1  0
  6  7  2  0
  7  8  1  0
  8  9  2  0
  9 10  1  0
 10 11  2  0
 11 12  1  0
 12 13  2  0
  5 13  1  0
  8 13  1  0
 14 15  1  0
 15 16  2  0
 16 17  1  0
 17 18  2  0
 18 19  1  0
 19 20  2  0
 15 20  1  0
 14 21  2  0
 18 22  1  0
  5 14  1  0
  2  7  1  0
 12 23  1  0
M  END
>  <Classification>  (270) 
0

>  <pchembl>  (270) 
4.82

>  <InChI_steorem>  (270) 
InChI=1S/C18H14ClNO3/c1-11-3-2-4-15-13(9-16(21)22)10-20(17(11)15)18(23)12-5-7-14(19)8-6-12/h2-8,10H,9H2,1H3,(H,21,22)

>  <source>  (270) 
ChEMBL25

>  <source_id>  (270) 
25

>  <optional_reference>  (270) 
10.1021/jm301084z

>  <optional_origin>  (270) 
None

>  <target>  (270) 
MDR1

$$$$

     RDKit          2D

 24 26  0  0  0  0  0  0  0  0999 V2000
   18.2032  -16.1270    0.0000 C   0  0  0  0  0  0  0  0  0  0  0  0
   17.3775  -16.0910    0.0000 C   0  0  0  0  0  0  0  0  0  0  0  0
   18.6491  -15.4302    0.0000 O   0  0  0  0  0  0  0  0  0  0  0  0
   18.6267  -16.8401    0.0000 O   0  0  0  0  0  0  0  0  0  0  0  0
   16.5949  -18.0777    0.0000 N   0  0  0  0  0  0  0  0  0  0  0  0
   17.2384  -17.5505    0.0000 C   0  0  0  0  0  0  0  0  0  0  0  0
   16.9357  -16.7835    0.0000 C   0  0  0  0  0  0  0  0  0  0  0  0
   16.1106  -16.8350    0.0000 C   0  0  0  0  0  0  0  0  0  0  0  0
   15.5210  -16.2535    0.0000 C   0  0  0  0  0  0  0  0  0  0  0  0
   14.7231  -16.4727    0.0000 C   0  0  0  0  0  0  0  0  0  0  0  0
   14.5178  -17.2706    0.0000 C   0  0  0  0  0  0  0  0  0  0  0  0
   15.1073  -17.8522    0.0000 C   0  0  0  0  0  0  0  0  0  0  0  0
   15.9023  -17.6317    0.0000 C   0  0  0  0  0  0  0  0  0  0  0  0
   16.5933  -18.9071    0.0000 C   0  0  0  0  0  0  0  0  0  0  0  0
   15.8844  -19.3249    0.0000 C   0  0  0  0  0  0  0  0  0  0  0  0
   15.1624  -18.9144    0.0000 C   0  0  0  0  0  0  0  0  0  0  0  0
   14.4524  -19.3350    0.0000 C   0  0  0  0  0  0  0  0  0  0  0  0
   14.4582  -20.1621    0.0000 C   0  0  0  0  0  0  0  0  0  0  0  0
   15.1771  -20.5656    0.0000 C   0  0  0  0  0  0  0  0  0  0  0  0
   15.8902  -20.1520    0.0000 C   0  0  0  0  0  0  0  0  0  0  0  0
   17.3065  -19.3208    0.0000 O   0  0  0  0  0  0  0  0  0  0  0  0
   13.7423  -20.5788    0.0000 Cl  0  0  0  0  0  0  0  0  0  0  0  0
   14.9006  -18.6480    0.0000 C   0  0  0  0  0  0  0  0  0  0  0  0
   14.1081  -18.8671    0.0000 C   0  0  0  0  0  0  0  0  0  0  0  0
  1  2  1  0
  1  3  2  0
  1  4  1  0
  5  6  1  0
  6  7  2  0
  7  8  1  0
  8  9  2  0
  9 10  1  0
 10 11  2  0
 11 12  1  0
 12 13  2  0
  5 13  1  0
  8 13  1  0
 14 15  1  0
 15 16  2  0
 16 17  1  0
 17 18  2  0
 18 19  1  0
 19 20  2  0
 15 20  1  0
 14 21  2  0
 18 22  1  0
  5 14  1  0
  2  7  1  0
 12 23  1  0
 23 24  1  0
M  END
>  <Classification>  (271) 
0

>  <pchembl>  (271) 
4.77

>  <InChI_steorem>  (271) 
InChI=1S/C19H16ClNO3/c1-2-12-4-3-5-16-14(10-17(22)23)11-21(18(12)16)19(24)13-6-8-15(20)9-7-13/h3-9,11H,2,10H2,1H3,(H,22,23)

>  <source>  (271) 
ChEMBL25

>  <source_id>  (271) 
25

>  <optional_reference>  (271) 
10.1021/jm301084z

>  <optional_origin>  (271) 
None

>  <target>  (271) 
MDR1

$$$$

     RDKit          2D

 25 27  0  0  0  0  0  0  0  0999 V2000
   17.7980  -23.1718    0.0000 C   0  0  0  0  0  0  0  0  0  0  0  0
   16.9774  -23.1360    0.0000 C   0  0  0  0  0  0  0  0  0  0  0  0
   18.2412  -22.4794    0.0000 O   0  0  0  0  0  0  0  0  0  0  0  0
   18.2189  -23.8806    0.0000 O   0  0  0  0  0  0  0  0  0  0  0  0
   16.1995  -25.1105    0.0000 N   0  0  0  0  0  0  0  0  0  0  0  0
   16.8392  -24.5866    0.0000 C   0  0  0  0  0  0  0  0  0  0  0  0
   16.5383  -23.8243    0.0000 C   0  0  0  0  0  0  0  0  0  0  0  0
   15.7183  -23.8755    0.0000 C   0  0  0  0  0  0  0  0  0  0  0  0
   15.1323  -23.2976    0.0000 C   0  0  0  0  0  0  0  0  0  0  0  0
   14.3394  -23.5155    0.0000 C   0  0  0  0  0  0  0  0  0  0  0  0
   14.1352  -24.3084    0.0000 C   0  0  0  0  0  0  0  0  0  0  0  0
   14.7212  -24.8864    0.0000 C   0  0  0  0  0  0  0  0  0  0  0  0
   15.5112  -24.6673    0.0000 C   0  0  0  0  0  0  0  0  0  0  0  0
   16.1980  -25.9348    0.0000 C   0  0  0  0  0  0  0  0  0  0  0  0
   15.4935  -26.3500    0.0000 C   0  0  0  0  0  0  0  0  0  0  0  0
   14.7760  -25.9420    0.0000 C   0  0  0  0  0  0  0  0  0  0  0  0
   14.0703  -26.3601    0.0000 C   0  0  0  0  0  0  0  0  0  0  0  0
   14.0761  -27.1822    0.0000 C   0  0  0  0  0  0  0  0  0  0  0  0
   14.7906  -27.5831    0.0000 C   0  0  0  0  0  0  0  0  0  0  0  0
   15.4993  -27.1720    0.0000 C   0  0  0  0  0  0  0  0  0  0  0  0
   16.9069  -26.3460    0.0000 O   0  0  0  0  0  0  0  0  0  0  0  0
   13.3645  -27.5962    0.0000 Cl  0  0  0  0  0  0  0  0  0  0  0  0
   17.6301  -24.7922    0.0000 C   0  0  0  0  0  0  0  0  0  0  0  0
   14.5158  -25.6774    0.0000 O   0  0  0  0  0  0  0  0  0  0  0  0
   13.7281  -25.8950    0.0000 C   0  0  0  0  0  0  0  0  0  0  0  0
  1  2  1  0
  1  3  2  0
  1  4  1  0
  5  6  1  0
  6  7  2  0
  7  8  1  0
  8  9  2  0
  9 10  1  0
 10 11  2  0
 11 12  1  0
 12 13  2  0
  5 13  1  0
  8 13  1  0
 14 15  1  0
 15 16  2  0
 16 17  1  0
 17 18  2  0
 18 19  1  0
 19 20  2  0
 15 20  1  0
 14 21  2  0
 18 22  1  0
  5 14  1  0
  2  7  1  0
  6 23  1  0
 12 24  1  0
 24 25  1  0
M  END
>  <Classification>  (272) 
0

>  <pchembl>  (272) 
4.82

>  <InChI_steorem>  (272) 
InChI=1S/C19H16ClNO4/c1-11-15(10-17(22)23)14-4-3-5-16(25-2)18(14)21(11)19(24)12-6-8-13(20)9-7-12/h3-9H,10H2,1-2H3,(H,22,23)

>  <source>  (272) 
ChEMBL25

>  <source_id>  (272) 
25

>  <optional_reference>  (272) 
10.1021/jm301084z

>  <optional_origin>  (272) 
None

>  <target>  (272) 
MDR1

$$$$

     RDKit          2D

 25 27  0  0  0  0  0  0  0  0999 V2000
    8.3755  -23.4731    0.0000 C   0  0  0  0  0  0  0  0  0  0  0  0
    7.5549  -23.4373    0.0000 C   0  0  0  0  0  0  0  0  0  0  0  0
    8.8187  -22.7806    0.0000 O   0  0  0  0  0  0  0  0  0  0  0  0
    8.7964  -24.1819    0.0000 O   0  0  0  0  0  0  0  0  0  0  0  0
    6.7771  -25.4118    0.0000 N   0  0  0  0  0  0  0  0  0  0  0  0
    7.4167  -24.8879    0.0000 C   0  0  0  0  0  0  0  0  0  0  0  0
    7.1158  -24.1256    0.0000 C   0  0  0  0  0  0  0  0  0  0  0  0
    6.2958  -24.1768    0.0000 C   0  0  0  0  0  0  0  0  0  0  0  0
    5.7099  -23.5988    0.0000 C   0  0  0  0  0  0  0  0  0  0  0  0
    4.9169  -23.8168    0.0000 C   0  0  0  0  0  0  0  0  0  0  0  0
    4.7128  -24.6097    0.0000 C   0  0  0  0  0  0  0  0  0  0  0  0
    5.2987  -25.1877    0.0000 C   0  0  0  0  0  0  0  0  0  0  0  0
    6.0888  -24.9686    0.0000 C   0  0  0  0  0  0  0  0  0  0  0  0
    6.7756  -26.2361    0.0000 C   0  0  0  0  0  0  0  0  0  0  0  0
    6.0710  -26.6513    0.0000 C   0  0  0  0  0  0  0  0  0  0  0  0
    5.3536  -26.2433    0.0000 C   0  0  0  0  0  0  0  0  0  0  0  0
    4.6478  -26.6614    0.0000 C   0  0  0  0  0  0  0  0  0  0  0  0
    4.6537  -27.4835    0.0000 C   0  0  0  0  0  0  0  0  0  0  0  0
    5.3682  -27.8844    0.0000 C   0  0  0  0  0  0  0  0  0  0  0  0
    6.0768  -27.4733    0.0000 C   0  0  0  0  0  0  0  0  0  0  0  0
    7.4844  -26.6472    0.0000 O   0  0  0  0  0  0  0  0  0  0  0  0
    3.9421  -27.8975    0.0000 Cl  0  0  0  0  0  0  0  0  0  0  0  0
    8.2076  -25.0935    0.0000 C   0  0  0  0  0  0  0  0  0  0  0  0
    3.9252  -24.8278    0.0000 O   0  0  0  0  0  0  0  0  0  0  0  0
    3.3426  -24.2548    0.0000 C   0  0  0  0  0  0  0  0  0  0  0  0
  1  2  1  0
  1  3  2  0
  1  4  1  0
  5  6  1  0
  6  7  2  0
  7  8  1  0
  8  9  2  0
  9 10  1  0
 10 11  2  0
 11 12  1  0
 12 13  2  0
  5 13  1  0
  8 13  1  0
 14 15  1  0
 15 16  2  0
 16 17  1  0
 17 18  2  0
 18 19  1  0
 19 20  2  0
 15 20  1  0
 14 21  2  0
 18 22  1  0
  5 14  1  0
  2  7  1  0
  6 23  1  0
 11 24  1  0
 24 25  1  0
M  END
>  <Classification>  (273) 
1

>  <pchembl>  (273) 
5.01

>  <InChI_steorem>  (273) 
InChI=1S/C19H16ClNO4/c1-11-16(10-18(22)23)15-8-7-14(25-2)9-17(15)21(11)19(24)12-3-5-13(20)6-4-12/h3-9H,10H2,1-2H3,(H,22,23)

>  <source>  (273) 
ChEMBL25

>  <source_id>  (273) 
25

>  <optional_reference>  (273) 
10.1021/jm301084z

>  <optional_origin>  (273) 
None

>  <target>  (273) 
MDR1

$$$$

     RDKit          2D

 54 60  0  0  0  0  0  0  0  0999 V2000
   14.0201   -8.5426    0.0000 C   0  0  0  0  0  0  0  0  0  0  0  0
   14.0212   -9.3621    0.0000 C   0  0  0  0  0  0  0  0  0  0  0  0
   13.3132   -9.7711    0.0000 C   0  0  0  0  0  0  0  0  0  0  0  0
   13.3150   -8.1337    0.0000 C   0  0  0  0  0  0  0  0  0  0  0  0
   12.6063   -8.5390    0.0000 C   0  0  0  0  0  0  0  0  0  0  0  0
   12.6030   -9.3596    0.0000 C   0  0  0  0  0  0  0  0  0  0  0  0
   11.8945   -9.7648    0.0000 C   0  0  0  0  0  0  0  0  0  0  0  0
   11.1849   -9.3538    0.0000 C   0  0  0  0  0  0  0  0  0  0  0  0
   11.1883   -8.5332    0.0000 C   0  0  0  0  0  0  0  0  0  0  0  0
   11.9013   -8.1235    0.0000 O   0  0  0  0  0  0  0  0  0  0  0  0
   11.8923  -10.5820    0.0000 O   0  0  0  0  0  0  0  0  0  0  0  0
   10.4831   -8.1231    0.0000 C   0  0  0  0  0  0  0  0  0  0  0  0
    9.7738   -8.5312    0.0000 C   0  0  0  0  0  0  0  0  0  0  0  0
    9.0679   -8.1211    0.0000 C   0  0  0  0  0  0  0  0  0  0  0  0
    9.0700   -7.3030    0.0000 C   0  0  0  0  0  0  0  0  0  0  0  0
    9.7839   -6.8968    0.0000 C   0  0  0  0  0  0  0  0  0  0  0  0
   10.4869   -7.3092    0.0000 C   0  0  0  0  0  0  0  0  0  0  0  0
    8.3586   -6.9009    0.0000 O   0  0  0  0  0  0  0  0  0  0  0  0
    6.2360   -7.3263    0.0000 O   0  0  0  0  0  0  0  0  0  0  0  0
   -5.7973   -8.6011    0.0000 C   0  0  0  0  0  0  0  0  0  0  0  0
   -5.7962   -9.4206    0.0000 C   0  0  0  0  0  0  0  0  0  0  0  0
   -5.0927   -9.8296    0.0000 C   0  0  0  0  0  0  0  0  0  0  0  0
   -5.0909   -8.1922    0.0000 C   0  0  0  0  0  0  0  0  0  0  0  0
   -4.3798   -8.5975    0.0000 C   0  0  0  0  0  0  0  0  0  0  0  0
   -4.3749   -9.4182    0.0000 C   0  0  0  0  0  0  0  0  0  0  0  0
   -3.6718   -9.8233    0.0000 C   0  0  0  0  0  0  0  0  0  0  0  0
   -2.9617   -9.4123    0.0000 C   0  0  0  0  0  0  0  0  0  0  0  0
   -2.9666   -8.5917    0.0000 C   0  0  0  0  0  0  0  0  0  0  0  0
   -3.6734   -8.1820    0.0000 O   0  0  0  0  0  0  0  0  0  0  0  0
   -3.6658  -10.6405    0.0000 O   0  0  0  0  0  0  0  0  0  0  0  0
   -2.2602   -8.1816    0.0000 C   0  0  0  0  0  0  0  0  0  0  0  0
   -1.5497   -8.5897    0.0000 C   0  0  0  0  0  0  0  0  0  0  0  0
   -0.8442   -8.1796    0.0000 C   0  0  0  0  0  0  0  0  0  0  0  0
   -0.8421   -7.3615    0.0000 C   0  0  0  0  0  0  0  0  0  0  0  0
   -1.5562   -6.9553    0.0000 C   0  0  0  0  0  0  0  0  0  0  0  0
   -2.2646   -7.3677    0.0000 C   0  0  0  0  0  0  0  0  0  0  0  0
   -0.1365   -6.9498    0.0000 O   0  0  0  0  0  0  0  0  0  0  0  0
    0.5736   -7.3553    0.0000 C   0  0  0  0  0  0  0  0  0  0  0  0
    1.2795   -6.9436    0.0000 C   0  0  0  0  0  0  0  0  0  0  0  0
    1.9890   -7.3490    0.0000 O   0  0  0  0  0  0  0  0  0  0  0  0
    2.6949   -6.9373    0.0000 C   0  0  0  0  0  0  0  0  0  0  0  0
    3.4044   -7.3428    0.0000 C   0  0  0  0  0  0  0  0  0  0  0  0
    4.1103   -6.9310    0.0000 N   0  0  0  0  0  0  0  0  0  0  0  0
    4.8198   -7.3365    0.0000 C   0  0  0  0  0  0  0  0  0  0  0  0
    5.5257   -6.9248    0.0000 C   0  0  0  0  0  0  0  0  0  0  0  0
    6.9399   -6.9112    0.0000 C   0  0  0  0  0  0  0  0  0  0  0  0
    7.6513   -7.3134    0.0000 C   0  0  0  0  0  0  0  0  0  0  0  0
    4.1067   -6.1139    0.0000 C   0  0  0  0  0  0  0  0  0  0  0  0
    4.8126   -5.7021    0.0000 C   0  0  0  0  0  0  0  0  0  0  0  0
    5.5194   -6.1095    0.0000 C   0  0  0  0  0  0  0  0  0  0  0  0
    6.2248   -5.6985    0.0000 C   0  0  0  0  0  0  0  0  0  0  0  0
    6.2217   -4.8804    0.0000 C   0  0  0  0  0  0  0  0  0  0  0  0
    5.5072   -4.4751    0.0000 C   0  0  0  0  0  0  0  0  0  0  0  0
    4.8047   -4.8885    0.0000 C   0  0  0  0  0  0  0  0  0  0  0  0
  1  2  2  0
  2  3  1  0
  3  6  2  0
  5  4  2  0
  4  1  1  0
  5  6  1  0
  5 10  1  0
  6  7  1  0
  7  8  1  0
  8  9  2  0
  9 10  1  0
  7 11  2  0
 12 13  2  0
 13 14  1  0
 14 15  2  0
 15 16  1  0
 16 17  2  0
 17 12  1  0
  9 12  1  0
 18 15  1  0
 20 21  2  0
 21 22  1  0
 22 25  2  0
 24 23  2  0
 23 20  1  0
 24 25  1  0
 24 29  1  0
 25 26  1  0
 26 27  1  0
 27 28  2  0
 28 29  1  0
 26 30  2  0
 31 32  2  0
 32 33  1  0
 33 34  2  0
 34 35  1  0
 35 36  2  0
 36 31  1  0
 28 31  1  0
 34 37  1  0
 37 38  1  0
 38 39  1  0
 39 40  1  0
 40 41  1  0
 41 42  1  0
 42 43  1  0
 43 44  1  0
 44 45  1  0
 45 19  1  0
 19 46  1  0
 46 47  1  0
 47 18  1  0
 43 48  1  0
 48 49  1  0
 49 50  2  0
 50 51  1  0
 51 52  2  0
 52 53  1  0
 53 54  2  0
 54 49  1  0
M  END
>  <Classification>  (274) 
1

>  <pchembl>  (274) 
6.47

>  <InChI_steorem>  (274) 
InChI=1S/C45H41NO8/c47-40-30-44(53-42-12-6-4-10-38(40)42)34-14-18-36(19-15-34)51-28-26-49-24-22-46(32-33-8-2-1-3-9-33)23-25-50-27-29-52-37-20-16-35(17-21-37)45-31-41(48)39-11-5-7-13-43(39)54-45/h1-21,30-31H,22-29,32H2

>  <source>  (274) 
ChEMBL25

>  <source_id>  (274) 
25

>  <optional_reference>  (274) 
10.1021/jm201121b

>  <optional_origin>  (274) 
None

>  <target>  (274) 
MDR1

$$$$

     RDKit          2D

 36 39  0  0  0  0  0  0  0  0999 V2000
    2.9361  -14.1083    0.0000 C   0  0  0  0  0  0  0  0  0  0  0  0
    2.9349  -14.9357    0.0000 C   0  0  0  0  0  0  0  0  0  0  0  0
    3.6497  -15.3485    0.0000 C   0  0  0  0  0  0  0  0  0  0  0  0
    3.6479  -13.6955    0.0000 C   0  0  0  0  0  0  0  0  0  0  0  0
    4.3633  -14.1047    0.0000 C   0  0  0  0  0  0  0  0  0  0  0  0
    4.3621  -14.9331    0.0000 C   0  0  0  0  0  0  0  0  0  0  0  0
    5.0751  -15.3461    0.0000 C   0  0  0  0  0  0  0  0  0  0  0  0
    5.7938  -14.9352    0.0000 C   0  0  0  0  0  0  0  0  0  0  0  0
    5.7949  -14.1067    0.0000 C   0  0  0  0  0  0  0  0  0  0  0  0
    5.0774  -13.6891    0.0000 C   0  0  0  0  0  0  0  0  0  0  0  0
    5.0774  -12.8641    0.0000 C   0  0  0  0  0  0  0  0  0  0  0  0
    6.5104  -13.6959    0.0000 C   0  0  0  0  0  0  0  0  0  0  0  0
    6.9167  -14.4083    0.0000 C   0  0  0  0  0  0  0  0  0  0  0  0
    7.7417  -14.4127    0.0000 N   0  0  0  0  0  0  0  0  0  0  0  0
    8.3208  -13.8250    0.0000 C   0  0  0  0  0  0  0  0  0  0  0  0
    9.1193  -14.0327    0.0000 C   0  0  0  0  0  0  0  0  0  0  0  0
    9.6983  -13.4451    0.0000 C   0  0  0  0  0  0  0  0  0  0  0  0
   10.4968  -13.6527    0.0000 C   0  0  0  0  0  0  0  0  0  0  0  0
   10.8005  -14.4186    0.0000 N   0  0  0  0  0  0  0  0  0  0  0  0
   11.1365  -13.1268    0.0000 N   0  0  0  0  0  0  0  0  0  0  0  0
   11.8317  -13.5709    0.0000 C   0  0  0  0  0  0  0  0  0  0  0  0
   11.6226  -14.3686    0.0000 C   0  0  0  0  0  0  0  0  0  0  0  0
   12.2082  -14.9465    0.0000 C   0  0  0  0  0  0  0  0  0  0  0  0
   13.0031  -14.7280    0.0000 C   0  0  0  0  0  0  0  0  0  0  0  0
   13.2091  -13.9262    0.0000 C   0  0  0  0  0  0  0  0  0  0  0  0
   12.6220  -13.3518    0.0000 C   0  0  0  0  0  0  0  0  0  0  0  0
    8.0581  -15.1746    0.0000 C   0  0  0  0  0  0  0  0  0  0  0  0
    5.5837  -13.3092    0.0000 O   0  0  0  0  0  0  0  0  0  0  0  0
    6.2958  -12.8917    0.0000 C   0  0  0  0  0  0  0  0  0  0  0  0
    7.0130  -13.2994    0.0000 O   0  0  0  0  0  0  0  0  0  0  0  0
    6.2903  -12.0667    0.0000 C   0  0  0  0  0  0  0  0  0  0  0  0
    7.0020  -11.6494    0.0000 O   0  0  0  0  0  0  0  0  0  0  0  0
    6.9965  -10.8244    0.0000 C   0  0  0  0  0  0  0  0  0  0  0  0
    5.7919  -12.4517    0.0000 C   0  0  0  0  0  0  0  0  0  0  0  0
    4.3630  -12.4516    0.0000 C   0  0  0  0  0  0  0  0  0  0  0  0
    2.2201  -15.3476    0.0000 F   0  0  0  0  0  0  0  0  0  0  0  0
  5 10  1  0
 17 18  1  0
 18 19  1  0
  6  7  1  0
  7  8  1  0
 19 22  1  0
 21 20  1  0
 20 18  2  0
  8  9  1  0
  9 10  1  0
 21 22  2  0
  5  6  1  0
 22 23  1  0
 10 11  1  0
 23 24  2  0
 24 25  1  0
  9 12  1  0
 25 26  2  0
 26 21  1  0
  2  3  1  0
 14 27  1  0
 12 13  1  0
  9 28  1  0
  3  6  2  0
 28 29  1  0
 13 14  1  0
 29 30  2  0
  1  2  2  0
 29 31  1  0
 14 15  1  0
 31 32  1  0
  5  4  2  0
 32 33  1  0
 15 16  1  0
 11 34  1  0
  4  1  1  0
 11 35  1  0
 16 17  1  0
  2 36  1  0
M  END
>  <Classification>  (275) 
1

>  <pchembl>  (275) 
5.75

>  <InChI_steorem>  (275) 
InChI=1S/C29H38FN3O3/c1-20(2)28-23-12-11-22(30)18-21(23)13-14-29(28,36-27(34)19-35-4)15-17-33(3)16-7-10-26-31-24-8-5-6-9-25(24)32-26/h5-6,8-9,11-12,18,20,28H,7,10,13-17,19H2,1-4H3,(H,31,32)

>  <source>  (275) 
ChEMBL25

>  <source_id>  (275) 
25

>  <optional_reference>  (275) 
10.1021/jm021012t

>  <optional_origin>  (275) 
None

>  <target>  (275) 
MDR1

$$$$

     RDKit          2D

 32 35  0  0  0  0  0  0  0  0999 V2000
    9.0538   -5.6829    0.0000 C   0  0  0  0  0  0  0  0  0  0  0  0
    9.0527   -6.5096    0.0000 C   0  0  0  0  0  0  0  0  0  0  0  0
    9.7669   -6.9221    0.0000 C   0  0  0  0  0  0  0  0  0  0  0  0
    9.7651   -5.2705    0.0000 C   0  0  0  0  0  0  0  0  0  0  0  0
   10.4799   -5.6792    0.0000 C   0  0  0  0  0  0  0  0  0  0  0  0
   10.4787   -6.5117    0.0000 C   0  0  0  0  0  0  0  0  0  0  0  0
   11.1950   -6.9266    0.0000 S   0  0  0  0  0  0  0  0  0  0  0  0
   11.1974   -5.2618    0.0000 C   0  0  0  0  0  0  0  0  0  0  0  0
   11.9183   -5.6814    0.0000 C   0  0  0  0  0  0  0  0  0  0  0  0
   11.9170   -6.5096    0.0000 C   0  0  0  0  0  0  0  0  0  0  0  0
   12.6325   -6.9230    0.0000 C   0  0  0  0  0  0  0  0  0  0  0  0
   13.3498   -6.5093    0.0000 C   0  0  0  0  0  0  0  0  0  0  0  0
   13.3471   -5.6779    0.0000 C   0  0  0  0  0  0  0  0  0  0  0  0
   12.6310   -5.2683    0.0000 C   0  0  0  0  0  0  0  0  0  0  0  0
   14.0643   -6.9205    0.0000 N   0  0  0  0  0  0  0  0  0  0  0  0
   14.0654   -7.7448    0.0000 C   0  0  0  0  0  0  0  0  0  0  0  0
   14.7776   -6.5073    0.0000 C   0  0  0  0  0  0  0  0  0  0  0  0
    8.3384   -6.9212    0.0000 N   0  0  0  0  0  0  0  0  0  0  0  0
    7.6248   -6.5084    0.0000 C   0  0  0  0  0  0  0  0  0  0  0  0
    8.3378   -7.7455    0.0000 C   0  0  0  0  0  0  0  0  0  0  0  0
   11.1999   -4.4368    0.0000 C   0  0  0  0  0  0  0  0  0  0  0  0
   11.8679   -3.9531    0.0000 C   0  0  0  0  0  0  0  0  0  0  0  0
   11.6130   -3.1682    0.0000 C   0  0  0  0  0  0  0  0  0  0  0  0
   10.7875   -3.1695    0.0000 C   0  0  0  0  0  0  0  0  0  0  0  0
   10.5350   -3.9552    0.0000 S   0  0  0  0  0  0  0  0  0  0  0  0
   10.3700   -2.4586    0.0000 C   0  0  0  0  0  0  0  0  0  0  0  0
   10.7768   -1.7417    0.0000 N   0  0  0  0  0  0  0  0  0  0  0  0
    9.5457   -2.4648    0.0000 S   0  0  0  0  0  0  0  0  0  0  0  0
   11.6012   -1.7356    0.0000 C   0  0  0  0  0  0  0  0  0  0  0  0
   10.3594   -1.0309    0.0000 C   0  0  0  0  0  0  0  0  0  0  0  0
   10.7662   -0.3139    0.0000 C   0  0  0  0  0  0  0  0  0  0  0  0
   12.0080   -1.0186    0.0000 C   0  0  0  0  0  0  0  0  0  0  0  0
  1  2  2  0
  2  3  1  0
  3  6  2  0
  5  4  2  0
  4  1  1  0
  5  6  1  0
  5  8  1  0
  6  7  1  0
  7 10  1  0
  9  8  2  0
  9 10  1  0
 10 11  2  0
 11 12  1  0
 12 13  1  0
 13 14  2  0
 14  9  1  0
 12 15  2  3
 15 16  1  0
 15 17  1  0
  2 18  1  0
 18 19  1  0
 18 20  1  0
 22 23  1  0
 21 22  2  0
 23 24  2  0
 24 25  1  0
 25 21  1  0
  8 21  1  0
 24 26  1  0
 26 27  1  0
 26 28  2  0
 27 29  1  0
 27 30  1  0
 30 31  1  0
 29 32  1  0
M  CHG  1  15   1
M  END
>  <Classification>  (276) 
0

>  <pchembl>  (276) 
4.85

>  <InChI_steorem>  (276) 
InChI=1S/C26H30N3S3/c1-7-29(8-2)26(30)22-14-13-21(31-22)25-19-11-9-17(27(3)4)15-23(19)32-24-16-18(28(5)6)10-12-20(24)25/h9-16H,7-8H2,1-6H3

>  <source>  (276) 
ChEMBL25

>  <source_id>  (276) 
25

>  <optional_reference>  (276) 
10.1016/j.bmc.2012.05.075

>  <optional_origin>  (276) 
None

>  <target>  (276) 
MDR1

$$$$

     RDKit          2D

 36 40  0  0  0  0  0  0  0  0999 V2000
   10.3991  -22.5309    0.0000 C   0  0  0  0  0  0  0  0  0  0  0  0
   11.1143  -22.9398    0.0000 C   0  0  0  0  0  0  0  0  0  0  0  0
   11.1132  -23.7727    0.0000 C   0  0  0  0  0  0  0  0  0  0  0  0
   11.8299  -24.1879    0.0000 S   0  0  0  0  0  0  0  0  0  0  0  0
   11.8322  -22.5222    0.0000 C   0  0  0  0  0  0  0  0  0  0  0  0
   12.5535  -22.9420    0.0000 C   0  0  0  0  0  0  0  0  0  0  0  0
   12.5522  -23.7707    0.0000 C   0  0  0  0  0  0  0  0  0  0  0  0
   13.2681  -24.1843    0.0000 C   0  0  0  0  0  0  0  0  0  0  0  0
   13.9858  -23.7704    0.0000 C   0  0  0  0  0  0  0  0  0  0  0  0
   13.9831  -22.9385    0.0000 C   0  0  0  0  0  0  0  0  0  0  0  0
   13.2666  -22.5287    0.0000 C   0  0  0  0  0  0  0  0  0  0  0  0
   14.7007  -24.1818    0.0000 N   0  0  0  0  0  0  0  0  0  0  0  0
   14.7018  -25.0065    0.0000 C   0  0  0  0  0  0  0  0  0  0  0  0
   15.4143  -23.7684    0.0000 C   0  0  0  0  0  0  0  0  0  0  0  0
   11.8348  -21.6967    0.0000 C   0  0  0  0  0  0  0  0  0  0  0  0
   12.5031  -21.2129    0.0000 C   0  0  0  0  0  0  0  0  0  0  0  0
   12.2481  -20.4275    0.0000 C   0  0  0  0  0  0  0  0  0  0  0  0
   11.4221  -20.4288    0.0000 C   0  0  0  0  0  0  0  0  0  0  0  0
   11.1695  -21.2149    0.0000 S   0  0  0  0  0  0  0  0  0  0  0  0
   11.0044  -19.7175    0.0000 C   0  0  0  0  0  0  0  0  0  0  0  0
   11.4114  -19.0003    0.0000 N   0  0  0  0  0  0  0  0  0  0  0  0
   10.1796  -19.7237    0.0000 S   0  0  0  0  0  0  0  0  0  0  0  0
   12.2362  -18.9942    0.0000 C   0  0  0  0  0  0  0  0  0  0  0  0
   10.9938  -18.2891    0.0000 C   0  0  0  0  0  0  0  0  0  0  0  0
   11.4008  -17.5718    0.0000 C   0  0  0  0  0  0  0  0  0  0  0  0
   12.6433  -18.2769    0.0000 C   0  0  0  0  0  0  0  0  0  0  0  0
   10.4010  -24.1834    0.0000 C   0  0  0  0  0  0  0  0  0  0  0  0
    8.9758  -25.0000    0.0000 C   0  0  0  0  0  0  0  0  0  0  0  0
    8.9799  -24.1779    0.0000 N   0  0  0  0  0  0  0  0  0  0  0  0
    9.6877  -23.7720    0.0000 C   0  0  0  0  0  0  0  0  0  0  0  0
    9.6900  -22.9606    0.0000 C   0  0  0  0  0  0  0  0  0  0  0  0
    8.9864  -22.5491    0.0000 C   0  0  0  0  0  0  0  0  0  0  0  0
    8.2786  -22.9549    0.0000 C   0  0  0  0  0  0  0  0  0  0  0  0
    8.2745  -23.7724    0.0000 C   0  0  0  0  0  0  0  0  0  0  0  0
    8.5684  -21.8314    0.0000 C   0  0  0  0  0  0  0  0  0  0  0  0
    9.3932  -21.8314    0.0000 C   0  0  0  0  0  0  0  0  0  0  0  0
 27  3  2  0
  2  1  2  0
  1 31  1  0
  2  3  1  0
  2  5  1  0
  3  4  1  0
  4  7  1  0
  6  5  2  0
  6  7  1  0
  7  8  2  0
  8  9  1  0
  9 10  1  0
 10 11  2  0
 11  6  1  0
  9 12  2  3
 12 13  1  0
 12 14  1  0
 16 17  1  0
 15 16  2  0
 17 18  2  0
 18 19  1  0
 19 15  1  0
  5 15  1  0
 18 20  1  0
 20 21  1  0
 20 22  2  0
 21 23  1  0
 21 24  1  0
 24 25  1  0
 23 26  1  0
 27 30  1  0
 29 28  1  0
 29 30  1  0
 29 34  1  0
 30 31  2  0
 31 32  1  0
 32 33  1  0
 33 34  1  0
 32 35  1  0
 32 36  1  0
M  CHG  1  12   1
M  END
>  <Classification>  (277) 
1

>  <pchembl>  (277) 
5.06

>  <InChI_steorem>  (277) 
InChI=1S/C30H36N3S3/c1-8-33(9-2)29(34)25-13-12-24(35-25)28-20-11-10-19(31(5)6)16-26(20)36-27-18-23-22(17-21(27)28)30(3,4)14-15-32(23)7/h10-13,16-18H,8-9,14-15H2,1-7H3

>  <source>  (277) 
ChEMBL25

>  <source_id>  (277) 
25

>  <optional_reference>  (277) 
10.1016/j.bmc.2012.05.075

>  <optional_origin>  (277) 
None

>  <target>  (277) 
MDR1

$$$$

     RDKit          2D

 36 40  0  0  0  0  0  0  0  0999 V2000
    2.3847  -22.1851    0.0000 C   0  0  0  0  0  0  0  0  0  0  0  0
    3.1000  -22.5942    0.0000 C   0  0  0  0  0  0  0  0  0  0  0  0
    3.0988  -23.4270    0.0000 C   0  0  0  0  0  0  0  0  0  0  0  0
    3.8155  -23.8421    0.0000 S   0  0  0  0  0  0  0  0  0  0  0  0
    3.8178  -22.1764    0.0000 C   0  0  0  0  0  0  0  0  0  0  0  0
    4.5391  -22.5962    0.0000 C   0  0  0  0  0  0  0  0  0  0  0  0
    4.5378  -23.4249    0.0000 C   0  0  0  0  0  0  0  0  0  0  0  0
    5.2537  -23.8386    0.0000 C   0  0  0  0  0  0  0  0  0  0  0  0
    5.9714  -23.4247    0.0000 C   0  0  0  0  0  0  0  0  0  0  0  0
    5.9686  -22.5928    0.0000 C   0  0  0  0  0  0  0  0  0  0  0  0
    5.2522  -22.1829    0.0000 C   0  0  0  0  0  0  0  0  0  0  0  0
    6.6862  -23.8361    0.0000 N   0  0  0  0  0  0  0  0  0  0  0  0
    6.6873  -24.6608    0.0000 C   0  0  0  0  0  0  0  0  0  0  0  0
    7.3999  -23.4227    0.0000 C   0  0  0  0  0  0  0  0  0  0  0  0
    3.8204  -21.3509    0.0000 C   0  0  0  0  0  0  0  0  0  0  0  0
    4.4886  -20.8671    0.0000 C   0  0  0  0  0  0  0  0  0  0  0  0
    4.2337  -20.0818    0.0000 C   0  0  0  0  0  0  0  0  0  0  0  0
    3.4077  -20.0830    0.0000 C   0  0  0  0  0  0  0  0  0  0  0  0
    3.1551  -20.8691    0.0000 S   0  0  0  0  0  0  0  0  0  0  0  0
    2.9900  -19.3719    0.0000 C   0  0  0  0  0  0  0  0  0  0  0  0
    3.3970  -18.6546    0.0000 N   0  0  0  0  0  0  0  0  0  0  0  0
    2.1652  -19.3779    0.0000 O   0  0  0  0  0  0  0  0  0  0  0  0
    4.2218  -18.6484    0.0000 C   0  0  0  0  0  0  0  0  0  0  0  0
    2.9794  -17.9433    0.0000 C   0  0  0  0  0  0  0  0  0  0  0  0
    3.3864  -17.2261    0.0000 C   0  0  0  0  0  0  0  0  0  0  0  0
    4.6288  -17.9311    0.0000 C   0  0  0  0  0  0  0  0  0  0  0  0
    2.3865  -23.8377    0.0000 C   0  0  0  0  0  0  0  0  0  0  0  0
    0.9614  -24.6543    0.0000 C   0  0  0  0  0  0  0  0  0  0  0  0
    0.9656  -23.8321    0.0000 N   0  0  0  0  0  0  0  0  0  0  0  0
    1.6733  -23.4263    0.0000 C   0  0  0  0  0  0  0  0  0  0  0  0
    1.6756  -22.6150    0.0000 C   0  0  0  0  0  0  0  0  0  0  0  0
    0.9719  -22.2033    0.0000 C   0  0  0  0  0  0  0  0  0  0  0  0
    0.2641  -22.6092    0.0000 C   0  0  0  0  0  0  0  0  0  0  0  0
    0.2601  -23.4267    0.0000 C   0  0  0  0  0  0  0  0  0  0  0  0
    0.5540  -21.4856    0.0000 C   0  0  0  0  0  0  0  0  0  0  0  0
    1.3788  -21.4856    0.0000 C   0  0  0  0  0  0  0  0  0  0  0  0
 27  3  2  0
  2  1  2  0
  1 31  1  0
  2  3  1  0
  2  5  1  0
  3  4  1  0
  4  7  1  0
  6  5  2  0
  6  7  1  0
  7  8  2  0
  8  9  1  0
  9 10  1  0
 10 11  2  0
 11  6  1  0
  9 12  2  3
 12 13  1  0
 12 14  1  0
 16 17  1  0
 15 16  2  0
 17 18  2  0
 18 19  1  0
 19 15  1  0
  5 15  1  0
 18 20  1  0
 20 21  1  0
 20 22  2  0
 21 23  1  0
 21 24  1  0
 24 25  1  0
 23 26  1  0
 27 30  1  0
 29 28  1  0
 29 30  1  0
 29 34  1  0
 30 31  2  0
 31 32  1  0
 32 33  1  0
 33 34  1  0
 32 35  1  0
 32 36  1  0
M  CHG  1  12   1
M  END
>  <Classification>  (278) 
1

>  <pchembl>  (278) 
5.1

>  <InChI_steorem>  (278) 
InChI=1S/C30H36N3OS2/c1-8-33(9-2)29(34)25-13-12-24(35-25)28-20-11-10-19(31(5)6)16-26(20)36-27-18-23-22(17-21(27)28)30(3,4)14-15-32(23)7/h10-13,16-18H,8-9,14-15H2,1-7H3

>  <source>  (278) 
ChEMBL25

>  <source_id>  (278) 
25

>  <optional_reference>  (278) 
10.1016/j.bmc.2012.05.075

>  <optional_origin>  (278) 
None

>  <target>  (278) 
MDR1

$$$$

     RDKit          2D

 36 41  0  0  0  0  0  0  0  0999 V2000
    1.4604  -13.4283    0.0000 C   0  0  0  0  0  0  0  0  0  0  0  0
    2.1757  -13.8373    0.0000 C   0  0  0  0  0  0  0  0  0  0  0  0
    2.1745  -14.6704    0.0000 C   0  0  0  0  0  0  0  0  0  0  0  0
    2.8913  -15.0856    0.0000 S   0  0  0  0  0  0  0  0  0  0  0  0
    2.8938  -13.4196    0.0000 C   0  0  0  0  0  0  0  0  0  0  0  0
    3.6151  -13.8394    0.0000 C   0  0  0  0  0  0  0  0  0  0  0  0
    3.6139  -14.6682    0.0000 C   0  0  0  0  0  0  0  0  0  0  0  0
    4.3300  -15.0820    0.0000 C   0  0  0  0  0  0  0  0  0  0  0  0
    5.0477  -14.6680    0.0000 C   0  0  0  0  0  0  0  0  0  0  0  0
    5.0450  -13.8360    0.0000 C   0  0  0  0  0  0  0  0  0  0  0  0
    4.3285  -13.4259    0.0000 C   0  0  0  0  0  0  0  0  0  0  0  0
    5.7628  -15.0795    0.0000 N   0  0  0  0  0  0  0  0  0  0  0  0
    5.7640  -15.9045    0.0000 C   0  0  0  0  0  0  0  0  0  0  0  0
    6.4767  -14.6660    0.0000 C   0  0  0  0  0  0  0  0  0  0  0  0
    2.8963  -12.5939    0.0000 C   0  0  0  0  0  0  0  0  0  0  0  0
    3.5647  -12.1098    0.0000 C   0  0  0  0  0  0  0  0  0  0  0  0
    3.3097  -11.3244    0.0000 C   0  0  0  0  0  0  0  0  0  0  0  0
    2.4836  -11.3257    0.0000 C   0  0  0  0  0  0  0  0  0  0  0  0
    2.2309  -12.1120    0.0000 S   0  0  0  0  0  0  0  0  0  0  0  0
    2.0657  -10.6143    0.0000 C   0  0  0  0  0  0  0  0  0  0  0  0
    2.4729   -9.8968    0.0000 N   0  0  0  0  0  0  0  0  0  0  0  0
    1.2408  -10.6204    0.0000 O   0  0  0  0  0  0  0  0  0  0  0  0
    3.2978   -9.8906    0.0000 C   0  0  0  0  0  0  0  0  0  0  0  0
    2.0551   -9.1854    0.0000 C   0  0  0  0  0  0  0  0  0  0  0  0
    2.4623   -8.4679    0.0000 C   0  0  0  0  0  0  0  0  0  0  0  0
    3.7050   -9.1732    0.0000 C   0  0  0  0  0  0  0  0  0  0  0  0
    1.4622  -15.0811    0.0000 C   0  0  0  0  0  0  0  0  0  0  0  0
    0.0366  -15.8979    0.0000 C   0  0  0  0  0  0  0  0  0  0  0  0
    0.7483  -16.3110    0.0000 C   0  0  0  0  0  0  0  0  0  0  0  0
    1.4642  -15.9018    0.0000 C   0  0  0  0  0  0  0  0  0  0  0  0
    0.0408  -15.0757    0.0000 N   0  0  0  0  0  0  0  0  0  0  0  0
    0.7488  -14.6697    0.0000 C   0  0  0  0  0  0  0  0  0  0  0  0
    0.7511  -13.8581    0.0000 C   0  0  0  0  0  0  0  0  0  0  0  0
    0.0471  -13.4463    0.0000 C   0  0  0  0  0  0  0  0  0  0  0  0
   -0.6642  -13.8524    0.0000 C   0  0  0  0  0  0  0  0  0  0  0  0
   -0.6685  -14.6701    0.0000 C   0  0  0  0  0  0  0  0  0  0  0  0
 27  3  2  0
  2  1  2  0
  1 33  1  0
  2  3  1  0
  2  5  1  0
  3  4  1  0
  4  7  1  0
  6  5  2  0
  6  7  1  0
  7  8  2  0
  8  9  1  0
  9 10  1  0
 10 11  2  0
 11  6  1  0
  9 12  2  3
 12 13  1  0
 12 14  1  0
 16 17  1  0
 15 16  2  0
 17 18  2  0
 18 19  1  0
 19 15  1  0
  5 15  1  0
 18 20  1  0
 20 21  1  0
 20 22  2  0
 21 23  1  0
 21 24  1  0
 24 25  1  0
 23 26  1  0
 27 32  1  0
 27 30  1  0
 31 28  1  0
 28 29  1  0
 29 30  1  0
 31 32  1  0
 31 36  1  0
 32 33  2  0
 33 34  1  0
 34 35  1  0
 35 36  1  0
M  CHG  1  12   1
M  END
>  <Classification>  (279) 
1

>  <pchembl>  (279) 
5.0

>  <InChI_steorem>  (279) 
InChI=1S/C30H34N3OS2/c1-5-32(6-2)30(34)25-14-13-24(35-25)27-21-12-11-20(31(3)4)18-26(21)36-29-22-10-8-16-33-15-7-9-19(28(22)33)17-23(27)29/h11-14,17-18H,5-10,15-16H2,1-4H3

>  <source>  (279) 
ChEMBL25

>  <source_id>  (279) 
25

>  <optional_reference>  (279) 
10.1016/j.bmc.2012.05.075

>  <optional_origin>  (279) 
None

>  <target>  (279) 
MDR1

$$$$

     RDKit          2D

 36 41  0  0  0  0  0  0  0  0999 V2000
    9.7029  -13.1759    0.0000 C   0  0  0  0  0  0  0  0  0  0  0  0
   10.4184  -13.5850    0.0000 C   0  0  0  0  0  0  0  0  0  0  0  0
   10.4172  -14.4181    0.0000 C   0  0  0  0  0  0  0  0  0  0  0  0
   11.1341  -14.8335    0.0000 S   0  0  0  0  0  0  0  0  0  0  0  0
   11.1365  -13.1672    0.0000 C   0  0  0  0  0  0  0  0  0  0  0  0
   11.8581  -13.5871    0.0000 C   0  0  0  0  0  0  0  0  0  0  0  0
   11.8568  -14.4160    0.0000 C   0  0  0  0  0  0  0  0  0  0  0  0
   12.5728  -14.8299    0.0000 C   0  0  0  0  0  0  0  0  0  0  0  0
   13.2909  -14.4157    0.0000 C   0  0  0  0  0  0  0  0  0  0  0  0
   13.2881  -13.5836    0.0000 C   0  0  0  0  0  0  0  0  0  0  0  0
   12.5713  -13.1736    0.0000 C   0  0  0  0  0  0  0  0  0  0  0  0
   14.0059  -14.8273    0.0000 N   0  0  0  0  0  0  0  0  0  0  0  0
   14.0071  -15.6524    0.0000 C   0  0  0  0  0  0  0  0  0  0  0  0
   14.7199  -14.4137    0.0000 C   0  0  0  0  0  0  0  0  0  0  0  0
   11.1391  -12.3414    0.0000 C   0  0  0  0  0  0  0  0  0  0  0  0
   11.8076  -11.8574    0.0000 C   0  0  0  0  0  0  0  0  0  0  0  0
   11.5525  -11.0716    0.0000 C   0  0  0  0  0  0  0  0  0  0  0  0
   10.7262  -11.0729    0.0000 C   0  0  0  0  0  0  0  0  0  0  0  0
   10.4735  -11.8594    0.0000 S   0  0  0  0  0  0  0  0  0  0  0  0
   10.3084  -10.3616    0.0000 C   0  0  0  0  0  0  0  0  0  0  0  0
   10.7155   -9.6439    0.0000 N   0  0  0  0  0  0  0  0  0  0  0  0
    9.4832  -10.3676    0.0000 S   0  0  0  0  0  0  0  0  0  0  0  0
   11.5406   -9.6378    0.0000 C   0  0  0  0  0  0  0  0  0  0  0  0
   10.2978   -8.9325    0.0000 C   0  0  0  0  0  0  0  0  0  0  0  0
   10.7049   -8.2149    0.0000 C   0  0  0  0  0  0  0  0  0  0  0  0
   11.9478   -8.9203    0.0000 C   0  0  0  0  0  0  0  0  0  0  0  0
    9.7046  -14.8290    0.0000 C   0  0  0  0  0  0  0  0  0  0  0  0
    8.2790  -15.6458    0.0000 C   0  0  0  0  0  0  0  0  0  0  0  0
    8.9909  -16.0589    0.0000 C   0  0  0  0  0  0  0  0  0  0  0  0
    9.7068  -15.6497    0.0000 C   0  0  0  0  0  0  0  0  0  0  0  0
    8.2832  -14.8235    0.0000 N   0  0  0  0  0  0  0  0  0  0  0  0
    8.9912  -14.4173    0.0000 C   0  0  0  0  0  0  0  0  0  0  0  0
    8.9936  -13.6057    0.0000 C   0  0  0  0  0  0  0  0  0  0  0  0
    8.2895  -13.1940    0.0000 C   0  0  0  0  0  0  0  0  0  0  0  0
    7.5815  -13.6000    0.0000 C   0  0  0  0  0  0  0  0  0  0  0  0
    7.5776  -14.4177    0.0000 C   0  0  0  0  0  0  0  0  0  0  0  0
 27  3  2  0
  2  1  2  0
  1 33  1  0
  2  3  1  0
  2  5  1  0
  3  4  1  0
  4  7  1  0
  6  5  2  0
  6  7  1  0
  7  8  2  0
  8  9  1  0
  9 10  1  0
 10 11  2  0
 11  6  1  0
  9 12  2  3
 12 13  1  0
 12 14  1  0
 16 17  1  0
 15 16  2  0
 17 18  2  0
 18 19  1  0
 19 15  1  0
  5 15  1  0
 18 20  1  0
 20 21  1  0
 20 22  2  0
 21 23  1  0
 21 24  1  0
 24 25  1  0
 23 26  1  0
 27 32  1  0
 27 30  1  0
 31 28  1  0
 28 29  1  0
 29 30  1  0
 31 32  1  0
 31 36  1  0
 32 33  2  0
 33 34  1  0
 34 35  1  0
 35 36  1  0
M  CHG  1  12   1
M  END
>  <Classification>  (280) 
1

>  <pchembl>  (280) 
5.02

>  <InChI_steorem>  (280) 
InChI=1S/C30H34N3S3/c1-5-32(6-2)30(34)25-14-13-24(35-25)27-21-12-11-20(31(3)4)18-26(21)36-29-22-10-8-16-33-15-7-9-19(28(22)33)17-23(27)29/h11-14,17-18H,5-10,15-16H2,1-4H3

>  <source>  (280) 
ChEMBL25

>  <source_id>  (280) 
25

>  <optional_reference>  (280) 
10.1016/j.bmc.2012.05.075

>  <optional_origin>  (280) 
None

>  <target>  (280) 
MDR1

$$$$

     RDKit          2D

 37 42  0  0  0  0  0  0  0  0999 V2000
   18.8409  -22.2380    0.0000 C   0  0  0  0  0  0  0  0  0  0  0  0
   19.5562  -22.6471    0.0000 C   0  0  0  0  0  0  0  0  0  0  0  0
   19.5550  -23.4800    0.0000 C   0  0  0  0  0  0  0  0  0  0  0  0
   20.2717  -23.8952    0.0000 S   0  0  0  0  0  0  0  0  0  0  0  0
   20.2742  -22.2294    0.0000 C   0  0  0  0  0  0  0  0  0  0  0  0
   20.9955  -22.6492    0.0000 C   0  0  0  0  0  0  0  0  0  0  0  0
   20.9943  -23.4779    0.0000 C   0  0  0  0  0  0  0  0  0  0  0  0
   21.7102  -23.8917    0.0000 C   0  0  0  0  0  0  0  0  0  0  0  0
   22.4279  -23.4777    0.0000 C   0  0  0  0  0  0  0  0  0  0  0  0
   22.4252  -22.6458    0.0000 C   0  0  0  0  0  0  0  0  0  0  0  0
   21.7086  -22.2357    0.0000 C   0  0  0  0  0  0  0  0  0  0  0  0
   23.1429  -23.8891    0.0000 N   0  0  0  0  0  0  0  0  0  0  0  0
   23.1441  -24.7140    0.0000 C   0  0  0  0  0  0  0  0  0  0  0  0
   23.8567  -23.4757    0.0000 C   0  0  0  0  0  0  0  0  0  0  0  0
   20.2767  -21.4038    0.0000 C   0  0  0  0  0  0  0  0  0  0  0  0
   20.9450  -20.9198    0.0000 C   0  0  0  0  0  0  0  0  0  0  0  0
   20.6900  -20.1344    0.0000 C   0  0  0  0  0  0  0  0  0  0  0  0
   19.8640  -20.1356    0.0000 C   0  0  0  0  0  0  0  0  0  0  0  0
   19.6114  -20.9219    0.0000 S   0  0  0  0  0  0  0  0  0  0  0  0
   19.4462  -19.4243    0.0000 C   0  0  0  0  0  0  0  0  0  0  0  0
   19.8533  -18.7070    0.0000 N   0  0  0  0  0  0  0  0  0  0  0  0
   18.6214  -19.4305    0.0000 O   0  0  0  0  0  0  0  0  0  0  0  0
   20.6781  -18.7008    0.0000 C   0  0  0  0  0  0  0  0  0  0  0  0
   19.4356  -17.9956    0.0000 C   0  0  0  0  0  0  0  0  0  0  0  0
   19.8427  -17.2783    0.0000 C   0  0  0  0  0  0  0  0  0  0  0  0
   21.0853  -17.9834    0.0000 C   0  0  0  0  0  0  0  0  0  0  0  0
   18.8427  -23.8908    0.0000 C   0  0  0  0  0  0  0  0  0  0  0  0
   17.4174  -24.7075    0.0000 C   0  0  0  0  0  0  0  0  0  0  0  0
   17.4215  -23.8852    0.0000 N   0  0  0  0  0  0  0  0  0  0  0  0
   18.1294  -23.4793    0.0000 C   0  0  0  0  0  0  0  0  0  0  0  0
   18.1317  -22.6679    0.0000 C   0  0  0  0  0  0  0  0  0  0  0  0
   17.4279  -22.2561    0.0000 C   0  0  0  0  0  0  0  0  0  0  0  0
   16.7201  -22.6621    0.0000 C   0  0  0  0  0  0  0  0  0  0  0  0
   16.7160  -23.4797    0.0000 C   0  0  0  0  0  0  0  0  0  0  0  0
   17.0100  -21.5384    0.0000 C   0  0  0  0  0  0  0  0  0  0  0  0
   17.8348  -21.5384    0.0000 C   0  0  0  0  0  0  0  0  0  0  0  0
   20.6675  -17.2722    0.0000 C   0  0  0  0  0  0  0  0  0  0  0  0
 27  3  2  0
  2  1  2  0
  1 31  1  0
  2  3  1  0
  2  5  1  0
  3  4  1  0
  4  7  1  0
  6  5  2  0
  6  7  1  0
  7  8  2  0
  8  9  1  0
  9 10  1  0
 10 11  2  0
 11  6  1  0
  9 12  2  3
 12 13  1  0
 12 14  1  0
 16 17  1  0
 15 16  2  0
 17 18  2  0
 18 19  1  0
 19 15  1  0
  5 15  1  0
 18 20  1  0
 20 21  1  0
 20 22  2  0
 21 23  1  0
 21 24  1  0
 24 25  1  0
 23 26  1  0
 27 30  1  0
 29 28  1  0
 29 30  1  0
 29 34  1  0
 30 31  2  0
 31 32  1  0
 32 33  1  0
 33 34  1  0
 32 35  1  0
 32 36  1  0
 25 37  1  0
 26 37  1  0
M  CHG  1  12   1
M  END
>  <Classification>  (281) 
1

>  <pchembl>  (281) 
5.25

>  <InChI_steorem>  (281) 
InChI=1S/C31H36N3OS2/c1-31(2)13-16-33(5)24-19-28-22(18-23(24)31)29(21-10-9-20(32(3)4)17-27(21)37-28)25-11-12-26(36-25)30(35)34-14-7-6-8-15-34/h9-12,17-19H,6-8,13-16H2,1-5H3

>  <source>  (281) 
ChEMBL25

>  <source_id>  (281) 
25

>  <optional_reference>  (281) 
10.1016/j.bmc.2012.05.075

>  <optional_origin>  (281) 
None

>  <target>  (281) 
MDR1

$$$$

     RDKit          2D

 37 42  0  0  0  0  0  0  0  0999 V2000
   27.3921  -22.4283    0.0000 C   0  0  0  0  0  0  0  0  0  0  0  0
   28.1073  -22.8374    0.0000 C   0  0  0  0  0  0  0  0  0  0  0  0
   28.1061  -23.6702    0.0000 C   0  0  0  0  0  0  0  0  0  0  0  0
   28.8229  -24.0854    0.0000 S   0  0  0  0  0  0  0  0  0  0  0  0
   28.8253  -22.4196    0.0000 C   0  0  0  0  0  0  0  0  0  0  0  0
   29.5466  -22.8394    0.0000 C   0  0  0  0  0  0  0  0  0  0  0  0
   29.5454  -23.6682    0.0000 C   0  0  0  0  0  0  0  0  0  0  0  0
   30.2613  -24.0818    0.0000 C   0  0  0  0  0  0  0  0  0  0  0  0
   30.9789  -23.6679    0.0000 C   0  0  0  0  0  0  0  0  0  0  0  0
   30.9762  -22.8360    0.0000 C   0  0  0  0  0  0  0  0  0  0  0  0
   30.2597  -22.4261    0.0000 C   0  0  0  0  0  0  0  0  0  0  0  0
   31.6938  -24.0793    0.0000 N   0  0  0  0  0  0  0  0  0  0  0  0
   31.6950  -24.9041    0.0000 C   0  0  0  0  0  0  0  0  0  0  0  0
   32.4076  -23.6658    0.0000 C   0  0  0  0  0  0  0  0  0  0  0  0
   28.8278  -21.5941    0.0000 C   0  0  0  0  0  0  0  0  0  0  0  0
   29.4961  -21.1102    0.0000 C   0  0  0  0  0  0  0  0  0  0  0  0
   29.2411  -20.3247    0.0000 C   0  0  0  0  0  0  0  0  0  0  0  0
   28.4152  -20.3260    0.0000 C   0  0  0  0  0  0  0  0  0  0  0  0
   28.1626  -21.1122    0.0000 S   0  0  0  0  0  0  0  0  0  0  0  0
   27.9973  -19.6148    0.0000 C   0  0  0  0  0  0  0  0  0  0  0  0
   28.4045  -18.8974    0.0000 N   0  0  0  0  0  0  0  0  0  0  0  0
   27.1726  -19.6209    0.0000 S   0  0  0  0  0  0  0  0  0  0  0  0
   29.2292  -18.8913    0.0000 C   0  0  0  0  0  0  0  0  0  0  0  0
   27.9867  -18.1862    0.0000 C   0  0  0  0  0  0  0  0  0  0  0  0
   28.3939  -17.4689    0.0000 C   0  0  0  0  0  0  0  0  0  0  0  0
   29.6364  -18.1740    0.0000 C   0  0  0  0  0  0  0  0  0  0  0  0
   27.3939  -24.0810    0.0000 C   0  0  0  0  0  0  0  0  0  0  0  0
   25.9686  -24.8975    0.0000 C   0  0  0  0  0  0  0  0  0  0  0  0
   25.9728  -24.0754    0.0000 N   0  0  0  0  0  0  0  0  0  0  0  0
   26.6806  -23.6695    0.0000 C   0  0  0  0  0  0  0  0  0  0  0  0
   26.6830  -22.8581    0.0000 C   0  0  0  0  0  0  0  0  0  0  0  0
   25.9791  -22.4464    0.0000 C   0  0  0  0  0  0  0  0  0  0  0  0
   25.2714  -22.8523    0.0000 C   0  0  0  0  0  0  0  0  0  0  0  0
   25.2674  -23.6699    0.0000 C   0  0  0  0  0  0  0  0  0  0  0  0
   25.5613  -21.7287    0.0000 C   0  0  0  0  0  0  0  0  0  0  0  0
   26.3861  -21.7287    0.0000 C   0  0  0  0  0  0  0  0  0  0  0  0
   29.2186  -17.4627    0.0000 C   0  0  0  0  0  0  0  0  0  0  0  0
 27  3  2  0
  2  1  2  0
  1 31  1  0
  2  3  1  0
  2  5  1  0
  3  4  1  0
  4  7  1  0
  6  5  2  0
  6  7  1  0
  7  8  2  0
  8  9  1  0
  9 10  1  0
 10 11  2  0
 11  6  1  0
  9 12  2  3
 12 13  1  0
 12 14  1  0
 16 17  1  0
 15 16  2  0
 17 18  2  0
 18 19  1  0
 19 15  1  0
  5 15  1  0
 18 20  1  0
 20 21  1  0
 20 22  2  0
 21 23  1  0
 21 24  1  0
 24 25  1  0
 23 26  1  0
 27 30  1  0
 29 28  1  0
 29 30  1  0
 29 34  1  0
 30 31  2  0
 31 32  1  0
 32 33  1  0
 33 34  1  0
 32 35  1  0
 32 36  1  0
 25 37  1  0
 26 37  1  0
M  CHG  1  12   1
M  END
>  <Classification>  (282) 
1

>  <pchembl>  (282) 
5.05

>  <InChI_steorem>  (282) 
InChI=1S/C31H36N3S3/c1-31(2)13-16-33(5)24-19-28-22(18-23(24)31)29(21-10-9-20(32(3)4)17-27(21)37-28)25-11-12-26(36-25)30(35)34-14-7-6-8-15-34/h9-12,17-19H,6-8,13-16H2,1-5H3

>  <source>  (282) 
ChEMBL25

>  <source_id>  (282) 
25

>  <optional_reference>  (282) 
10.1016/j.bmc.2012.05.075

>  <optional_origin>  (282) 
None

>  <target>  (282) 
MDR1

$$$$

     RDKit          2D

 37 43  0  0  0  0  0  0  0  0999 V2000
   17.8308  -13.4785    0.0000 C   0  0  0  0  0  0  0  0  0  0  0  0
   18.5461  -13.8876    0.0000 C   0  0  0  0  0  0  0  0  0  0  0  0
   18.5449  -14.7206    0.0000 C   0  0  0  0  0  0  0  0  0  0  0  0
   19.2618  -15.1359    0.0000 S   0  0  0  0  0  0  0  0  0  0  0  0
   19.2642  -13.4698    0.0000 C   0  0  0  0  0  0  0  0  0  0  0  0
   19.9856  -13.8897    0.0000 C   0  0  0  0  0  0  0  0  0  0  0  0
   19.9844  -14.7186    0.0000 C   0  0  0  0  0  0  0  0  0  0  0  0
   20.7005  -15.1323    0.0000 C   0  0  0  0  0  0  0  0  0  0  0  0
   21.4182  -14.7183    0.0000 C   0  0  0  0  0  0  0  0  0  0  0  0
   21.4155  -13.8862    0.0000 C   0  0  0  0  0  0  0  0  0  0  0  0
   20.6988  -13.4763    0.0000 C   0  0  0  0  0  0  0  0  0  0  0  0
   22.1333  -15.1298    0.0000 N   0  0  0  0  0  0  0  0  0  0  0  0
   22.1345  -15.9548    0.0000 C   0  0  0  0  0  0  0  0  0  0  0  0
   22.8471  -14.7163    0.0000 C   0  0  0  0  0  0  0  0  0  0  0  0
   19.2667  -12.6441    0.0000 C   0  0  0  0  0  0  0  0  0  0  0  0
   19.9351  -12.1602    0.0000 C   0  0  0  0  0  0  0  0  0  0  0  0
   19.6801  -11.3745    0.0000 C   0  0  0  0  0  0  0  0  0  0  0  0
   18.8540  -11.3759    0.0000 C   0  0  0  0  0  0  0  0  0  0  0  0
   18.6012  -12.1622    0.0000 S   0  0  0  0  0  0  0  0  0  0  0  0
   18.4361  -10.6645    0.0000 C   0  0  0  0  0  0  0  0  0  0  0  0
   18.8433   -9.9470    0.0000 N   0  0  0  0  0  0  0  0  0  0  0  0
   17.6111  -10.6706    0.0000 O   0  0  0  0  0  0  0  0  0  0  0  0
   19.6682   -9.9409    0.0000 C   0  0  0  0  0  0  0  0  0  0  0  0
   18.4255   -9.2357    0.0000 C   0  0  0  0  0  0  0  0  0  0  0  0
   18.8327   -8.5182    0.0000 C   0  0  0  0  0  0  0  0  0  0  0  0
   20.0755   -9.2234    0.0000 C   0  0  0  0  0  0  0  0  0  0  0  0
   17.8326  -15.1314    0.0000 C   0  0  0  0  0  0  0  0  0  0  0  0
   16.4070  -15.9482    0.0000 C   0  0  0  0  0  0  0  0  0  0  0  0
   17.1188  -16.3613    0.0000 C   0  0  0  0  0  0  0  0  0  0  0  0
   17.8346  -15.9520    0.0000 C   0  0  0  0  0  0  0  0  0  0  0  0
   16.4112  -15.1259    0.0000 N   0  0  0  0  0  0  0  0  0  0  0  0
   17.1191  -14.7199    0.0000 C   0  0  0  0  0  0  0  0  0  0  0  0
   17.1215  -13.9084    0.0000 C   0  0  0  0  0  0  0  0  0  0  0  0
   16.4175  -13.4967    0.0000 C   0  0  0  0  0  0  0  0  0  0  0  0
   15.7097  -13.9026    0.0000 C   0  0  0  0  0  0  0  0  0  0  0  0
   15.7056  -14.7203    0.0000 C   0  0  0  0  0  0  0  0  0  0  0  0
   19.6576   -8.5120    0.0000 C   0  0  0  0  0  0  0  0  0  0  0  0
 27  3  2  0
  2  1  2  0
  1 33  1  0
  2  3  1  0
  2  5  1  0
  3  4  1  0
  4  7  1  0
  6  5  2  0
  6  7  1  0
  7  8  2  0
  8  9  1  0
  9 10  1  0
 10 11  2  0
 11  6  1  0
  9 12  2  3
 12 13  1  0
 12 14  1  0
 16 17  1  0
 15 16  2  0
 17 18  2  0
 18 19  1  0
 19 15  1  0
  5 15  1  0
 18 20  1  0
 20 21  1  0
 20 22  2  0
 21 23  1  0
 21 24  1  0
 24 25  1  0
 23 26  1  0
 27 32  1  0
 27 30  1  0
 31 28  1  0
 28 29  1  0
 29 30  1  0
 31 32  1  0
 31 36  1  0
 32 33  2  0
 33 34  1  0
 34 35  1  0
 35 36  1  0
 25 37  1  0
 26 37  1  0
M  CHG  1  12   1
M  END
>  <Classification>  (283) 
0

>  <pchembl>  (283) 
4.25

>  <InChI_steorem>  (283) 
InChI=1S/C31H34N3OS2/c1-32(2)21-10-11-22-27(19-21)37-30-23-9-7-17-33-16-6-8-20(29(23)33)18-24(30)28(22)25-12-13-26(36-25)31(35)34-14-4-3-5-15-34/h10-13,18-19H,3-9,14-17H2,1-2H3

>  <source>  (283) 
ChEMBL25

>  <source_id>  (283) 
25

>  <optional_reference>  (283) 
10.1016/j.bmc.2012.05.075

>  <optional_origin>  (283) 
None

>  <target>  (283) 
MDR1

$$$$

     RDKit          2D

 22 24  0  0  0  0  0  0  0  0999 V2000
   10.5409   -8.5150    0.0000 C   0  0  0  0  0  0  0  0  0  0  0  0
   10.5409   -9.3363    0.0000 C   0  0  0  0  0  0  0  0  0  0  0  0
    9.8290   -9.7490    0.0000 C   0  0  0  0  0  0  0  0  0  0  0  0
    9.8290  -10.5703    0.0000 C   0  0  0  0  0  0  0  0  0  0  0  0
   10.5409  -10.9789    0.0000 C   0  0  0  0  0  0  0  0  0  0  0  0
   11.2486  -10.5703    0.0000 N   0  0  0  0  0  0  0  0  0  0  0  0
   11.2486   -9.7490    0.0000 C   0  0  0  0  0  0  0  0  0  0  0  0
   11.2486   -8.1064    0.0000 O   0  0  0  0  0  0  0  0  0  0  0  0
    9.8290   -8.1064    0.0000 N   0  0  0  0  0  0  0  0  0  0  0  0
    9.1172   -8.5150    0.0000 C   0  0  0  0  0  0  0  0  0  0  0  0
    8.4054   -8.1064    0.0000 C   0  0  0  0  0  0  0  0  0  0  0  0
    7.6935   -8.5150    0.0000 C   0  0  0  0  0  0  0  0  0  0  0  0
    7.6935   -9.3363    0.0000 C   0  0  0  0  0  0  0  0  0  0  0  0
    8.4054   -9.7490    0.0000 C   0  0  0  0  0  0  0  0  0  0  0  0
    9.1172   -9.3363    0.0000 C   0  0  0  0  0  0  0  0  0  0  0  0
    6.9817  -10.5703    0.0000 C   0  0  0  0  0  0  0  0  0  0  0  0
    6.9817   -9.7490    0.0000 C   0  0  0  0  0  0  0  0  0  0  0  0
    6.2699   -9.3363    0.0000 C   0  0  0  0  0  0  0  0  0  0  0  0
    5.5621   -9.7490    0.0000 C   0  0  0  0  0  0  0  0  0  0  0  0
    5.5621  -10.5703    0.0000 C   0  0  0  0  0  0  0  0  0  0  0  0
    6.2699  -10.9789    0.0000 N   0  0  0  0  0  0  0  0  0  0  0  0
    8.4054   -7.2851    0.0000 F   0  0  0  0  0  0  0  0  0  0  0  0
  1  2  1  0
  2  3  2  0
  3  4  1  0
  4  5  2  0
  5  6  1  0
  6  7  2  0
  2  7  1  0
  1  8  2  0
  1  9  1  0
 10 11  2  0
 11 12  1  0
 12 13  2  0
 13 14  1  0
 14 15  2  0
 10 15  1  0
 16 17  2  0
 17 18  1  0
 18 19  2  0
 19 20  1  0
 20 21  2  0
 16 21  1  0
 13 17  1  0
 11 22  1  0
  9 10  1  0
M  END
>  <Classification>  (284) 
0

>  <pchembl>  (284) 
4.22

>  <InChI_steorem>  (284) 
InChI=1S/C17H12FN3O/c18-15-9-12(13-3-1-7-19-10-13)5-6-16(15)21-17(22)14-4-2-8-20-11-14/h1-11H,(H,21,22)

>  <source>  (284) 
ChEMBL25

>  <source_id>  (284) 
25

>  <optional_reference>  (284) 
10.1021/jm500697c

>  <optional_origin>  (284) 
None

>  <target>  (284) 
MDR1

$$$$

     RDKit          2D

 22 24  0  0  0  0  0  0  0  0999 V2000
    9.0530   -7.8670    0.0000 C   0  0  0  0  0  0  0  0  0  0  0  0
    9.0530   -8.6883    0.0000 C   0  0  0  0  0  0  0  0  0  0  0  0
    8.3412   -9.1011    0.0000 C   0  0  0  0  0  0  0  0  0  0  0  0
    8.3412   -9.9224    0.0000 C   0  0  0  0  0  0  0  0  0  0  0  0
    9.0530  -10.3310    0.0000 C   0  0  0  0  0  0  0  0  0  0  0  0
    9.7607   -9.9224    0.0000 C   0  0  0  0  0  0  0  0  0  0  0  0
    9.7607   -9.1011    0.0000 C   0  0  0  0  0  0  0  0  0  0  0  0
    9.7607   -7.4584    0.0000 O   0  0  0  0  0  0  0  0  0  0  0  0
    8.3412   -7.4584    0.0000 N   0  0  0  0  0  0  0  0  0  0  0  0
    7.6293   -7.8670    0.0000 C   0  0  0  0  0  0  0  0  0  0  0  0
    6.9175   -7.4584    0.0000 C   0  0  0  0  0  0  0  0  0  0  0  0
    6.2057   -7.8670    0.0000 C   0  0  0  0  0  0  0  0  0  0  0  0
    6.2057   -8.6883    0.0000 C   0  0  0  0  0  0  0  0  0  0  0  0
    6.9175   -9.1011    0.0000 C   0  0  0  0  0  0  0  0  0  0  0  0
    7.6293   -8.6883    0.0000 C   0  0  0  0  0  0  0  0  0  0  0  0
    5.4938   -9.9224    0.0000 C   0  0  0  0  0  0  0  0  0  0  0  0
    5.4938   -9.1011    0.0000 C   0  0  0  0  0  0  0  0  0  0  0  0
    4.7820   -8.6883    0.0000 C   0  0  0  0  0  0  0  0  0  0  0  0
    4.0743   -9.1011    0.0000 C   0  0  0  0  0  0  0  0  0  0  0  0
    4.0743   -9.9224    0.0000 C   0  0  0  0  0  0  0  0  0  0  0  0
    4.7820  -10.3310    0.0000 N   0  0  0  0  0  0  0  0  0  0  0  0
    6.9175   -6.6371    0.0000 F   0  0  0  0  0  0  0  0  0  0  0  0
  1  2  1  0
  2  3  2  0
  3  4  1  0
  4  5  2  0
  5  6  1  0
  6  7  2  0
  2  7  1  0
  1  8  2  0
  1  9  1  0
 10 11  2  0
 11 12  1  0
 12 13  2  0
 13 14  1  0
 14 15  2  0
 10 15  1  0
 16 17  2  0
 17 18  1  0
 18 19  2  0
 19 20  1  0
 20 21  2  0
 16 21  1  0
 13 17  1  0
 11 22  1  0
  9 10  1  0
M  END
>  <Classification>  (285) 
1

>  <pchembl>  (285) 
5.04

>  <InChI_steorem>  (285) 
InChI=1S/C18H13FN2O/c19-16-11-14(15-7-4-10-20-12-15)8-9-17(16)21-18(22)13-5-2-1-3-6-13/h1-12H,(H,21,22)

>  <source>  (285) 
ChEMBL25

>  <source_id>  (285) 
25

>  <optional_reference>  (285) 
10.1021/jm500697c

>  <optional_origin>  (285) 
None

>  <target>  (285) 
MDR1

$$$$

     RDKit          2D

 24 26  0  0  0  0  0  0  0  0999 V2000
    8.5624   -8.1333    0.0000 C   0  0  0  0  0  0  0  0  0  0  0  0
    8.5624   -7.3161    0.0000 C   0  0  0  0  0  0  0  0  0  0  0  0
    7.8547   -6.9075    0.0000 C   0  0  0  0  0  0  0  0  0  0  0  0
    7.8547   -6.0903    0.0000 C   0  0  0  0  0  0  0  0  0  0  0  0
    8.5624   -5.6817    0.0000 C   0  0  0  0  0  0  0  0  0  0  0  0
    9.2701   -6.0903    0.0000 C   0  0  0  0  0  0  0  0  0  0  0  0
    9.2701   -6.9075    0.0000 C   0  0  0  0  0  0  0  0  0  0  0  0
    9.2701   -8.5419    0.0000 O   0  0  0  0  0  0  0  0  0  0  0  0
    7.8547   -8.5419    0.0000 N   0  0  0  0  0  0  0  0  0  0  0  0
    8.5624   -4.8645    0.0000 O   0  0  0  0  0  0  0  0  0  0  0  0
    9.2701   -4.4559    0.0000 C   0  0  0  0  0  0  0  0  0  0  0  0
    7.1470   -8.1333    0.0000 C   0  0  0  0  0  0  0  0  0  0  0  0
    6.4392   -8.5419    0.0000 C   0  0  0  0  0  0  0  0  0  0  0  0
    5.7315   -8.1333    0.0000 C   0  0  0  0  0  0  0  0  0  0  0  0
    5.7315   -7.3161    0.0000 C   0  0  0  0  0  0  0  0  0  0  0  0
    6.4393   -6.9075    0.0000 C   0  0  0  0  0  0  0  0  0  0  0  0
    7.1470   -7.3161    0.0000 C   0  0  0  0  0  0  0  0  0  0  0  0
    5.0238   -6.0903    0.0000 C   0  0  0  0  0  0  0  0  0  0  0  0
    5.0238   -6.9075    0.0000 C   0  0  0  0  0  0  0  0  0  0  0  0
    4.3161   -7.3161    0.0000 C   0  0  0  0  0  0  0  0  0  0  0  0
    3.6084   -6.9075    0.0000 C   0  0  0  0  0  0  0  0  0  0  0  0
    3.6084   -6.0903    0.0000 C   0  0  0  0  0  0  0  0  0  0  0  0
    4.3161   -5.6817    0.0000 N   0  0  0  0  0  0  0  0  0  0  0  0
    6.4392   -9.3591    0.0000 F   0  0  0  0  0  0  0  0  0  0  0  0
  1  2  1  0
  2  3  2  0
  3  4  1  0
  4  5  2  0
  5  6  1  0
  6  7  2  0
  2  7  1  0
  1  8  2  0
  1  9  1  0
 10 11  1  0
  5 10  1  0
 12 13  2  0
 13 14  1  0
 14 15  2  0
 15 16  1  0
 16 17  2  0
 12 17  1  0
 18 19  2  0
 19 20  1  0
 20 21  2  0
 21 22  1  0
 22 23  2  0
 18 23  1  0
 15 19  1  0
 13 24  1  0
  9 12  1  0
M  END
>  <Classification>  (286) 
1

>  <pchembl>  (286) 
5.28

>  <InChI_steorem>  (286) 
InChI=1S/C19H15FN2O2/c1-24-16-7-4-13(5-8-16)19(23)22-18-9-6-14(11-17(18)20)15-3-2-10-21-12-15/h2-12H,1H3,(H,22,23)

>  <source>  (286) 
ChEMBL25

>  <source_id>  (286) 
25

>  <optional_reference>  (286) 
10.1021/jm500697c

>  <optional_origin>  (286) 
None

>  <target>  (286) 
MDR1

$$$$

     RDKit          2D

 26 28  0  0  0  0  0  0  0  0999 V2000
    8.9708   -7.5116    0.0000 C   0  0  0  0  0  0  0  0  0  0  0  0
    8.9708   -8.3329    0.0000 C   0  0  0  0  0  0  0  0  0  0  0  0
    8.2631   -8.7415    0.0000 C   0  0  0  0  0  0  0  0  0  0  0  0
    8.2631   -9.5628    0.0000 C   0  0  0  0  0  0  0  0  0  0  0  0
    8.9708   -9.9755    0.0000 C   0  0  0  0  0  0  0  0  0  0  0  0
    9.6827   -9.5628    0.0000 C   0  0  0  0  0  0  0  0  0  0  0  0
    9.6827   -8.7415    0.0000 C   0  0  0  0  0  0  0  0  0  0  0  0
    9.6827   -7.0988    0.0000 O   0  0  0  0  0  0  0  0  0  0  0  0
    8.2631   -7.0988    0.0000 N   0  0  0  0  0  0  0  0  0  0  0  0
   10.3945   -9.9755    0.0000 O   0  0  0  0  0  0  0  0  0  0  0  0
   11.1063   -9.5628    0.0000 C   0  0  0  0  0  0  0  0  0  0  0  0
    7.5513   -9.9755    0.0000 O   0  0  0  0  0  0  0  0  0  0  0  0
    7.5513  -10.7968    0.0000 C   0  0  0  0  0  0  0  0  0  0  0  0
    7.5513   -7.5116    0.0000 C   0  0  0  0  0  0  0  0  0  0  0  0
    6.8394   -7.0988    0.0000 C   0  0  0  0  0  0  0  0  0  0  0  0
    6.1276   -7.5116    0.0000 C   0  0  0  0  0  0  0  0  0  0  0  0
    6.1276   -8.3329    0.0000 C   0  0  0  0  0  0  0  0  0  0  0  0
    6.8394   -8.7415    0.0000 C   0  0  0  0  0  0  0  0  0  0  0  0
    7.5513   -8.3329    0.0000 C   0  0  0  0  0  0  0  0  0  0  0  0
    5.4158   -9.5628    0.0000 C   0  0  0  0  0  0  0  0  0  0  0  0
    5.4158   -8.7415    0.0000 C   0  0  0  0  0  0  0  0  0  0  0  0
    4.7039   -8.3329    0.0000 C   0  0  0  0  0  0  0  0  0  0  0  0
    3.9921   -8.7415    0.0000 C   0  0  0  0  0  0  0  0  0  0  0  0
    3.9921   -9.5628    0.0000 C   0  0  0  0  0  0  0  0  0  0  0  0
    4.7039   -9.9755    0.0000 N   0  0  0  0  0  0  0  0  0  0  0  0
    6.8394   -6.2775    0.0000 F   0  0  0  0  0  0  0  0  0  0  0  0
  1  2  1  0
  2  3  2  0
  3  4  1  0
  4  5  2  0
  5  6  1  0
  6  7  2  0
  2  7  1  0
  1  8  2  0
  1  9  1  0
 10 11  1  0
  6 10  1  0
 12 13  1  0
  4 12  1  0
 14 15  2  0
 15 16  1  0
 16 17  2  0
 17 18  1  0
 18 19  2  0
 14 19  1  0
 20 21  2  0
 21 22  1  0
 22 23  2  0
 23 24  1  0
 24 25  2  0
 20 25  1  0
 17 21  1  0
 15 26  1  0
  9 14  1  0
M  END
>  <Classification>  (287) 
1

>  <pchembl>  (287) 
5.48

>  <InChI_steorem>  (287) 
InChI=1S/C20H17FN2O3/c1-25-16-8-15(9-17(11-16)26-2)20(24)23-19-6-5-13(10-18(19)21)14-4-3-7-22-12-14/h3-12H,1-2H3,(H,23,24)

>  <source>  (287) 
ChEMBL25

>  <source_id>  (287) 
25

>  <optional_reference>  (287) 
10.1021/jm500697c

>  <optional_origin>  (287) 
None

>  <target>  (287) 
MDR1

$$$$

     RDKit          2D

 26 28  0  0  0  0  0  0  0  0999 V2000
    9.4043   -9.3983    0.0000 C   0  0  0  0  0  0  0  0  0  0  0  0
    9.4043   -8.5811    0.0000 C   0  0  0  0  0  0  0  0  0  0  0  0
    8.6966   -8.1725    0.0000 C   0  0  0  0  0  0  0  0  0  0  0  0
    8.6966   -7.3553    0.0000 C   0  0  0  0  0  0  0  0  0  0  0  0
    9.4043   -6.9467    0.0000 C   0  0  0  0  0  0  0  0  0  0  0  0
   10.1120   -7.3553    0.0000 C   0  0  0  0  0  0  0  0  0  0  0  0
   10.1120   -8.1725    0.0000 C   0  0  0  0  0  0  0  0  0  0  0  0
   10.1120   -9.8069    0.0000 O   0  0  0  0  0  0  0  0  0  0  0  0
    8.6966   -9.8069    0.0000 N   0  0  0  0  0  0  0  0  0  0  0  0
    9.4043   -6.1295    0.0000 O   0  0  0  0  0  0  0  0  0  0  0  0
   10.1120   -5.7209    0.0000 C   0  0  0  0  0  0  0  0  0  0  0  0
    7.9889   -6.9467    0.0000 O   0  0  0  0  0  0  0  0  0  0  0  0
    7.9889   -6.1295    0.0000 C   0  0  0  0  0  0  0  0  0  0  0  0
    7.9889   -9.3983    0.0000 C   0  0  0  0  0  0  0  0  0  0  0  0
    7.2812   -9.8069    0.0000 C   0  0  0  0  0  0  0  0  0  0  0  0
    6.5735   -9.3983    0.0000 C   0  0  0  0  0  0  0  0  0  0  0  0
    6.5735   -8.5811    0.0000 C   0  0  0  0  0  0  0  0  0  0  0  0
    7.2812   -8.1725    0.0000 C   0  0  0  0  0  0  0  0  0  0  0  0
    7.9889   -8.5811    0.0000 C   0  0  0  0  0  0  0  0  0  0  0  0
    5.8658   -7.3553    0.0000 C   0  0  0  0  0  0  0  0  0  0  0  0
    5.8658   -8.1725    0.0000 C   0  0  0  0  0  0  0  0  0  0  0  0
    5.1581   -8.5811    0.0000 C   0  0  0  0  0  0  0  0  0  0  0  0
    4.4504   -8.1725    0.0000 C   0  0  0  0  0  0  0  0  0  0  0  0
    4.4504   -7.3553    0.0000 C   0  0  0  0  0  0  0  0  0  0  0  0
    5.1581   -6.9467    0.0000 N   0  0  0  0  0  0  0  0  0  0  0  0
    7.2812  -10.6241    0.0000 F   0  0  0  0  0  0  0  0  0  0  0  0
  1  2  1  0
  2  3  2  0
  3  4  1  0
  4  5  2  0
  5  6  1  0
  6  7  2  0
  2  7  1  0
  1  8  2  0
  1  9  1  0
 10 11  1  0
  5 10  1  0
 12 13  1  0
  4 12  1  0
 14 15  2  0
 15 16  1  0
 16 17  2  0
 17 18  1  0
 18 19  2  0
 14 19  1  0
 20 21  2  0
 21 22  1  0
 22 23  2  0
 23 24  1  0
 24 25  2  0
 20 25  1  0
 17 21  1  0
 15 26  1  0
  9 14  1  0
M  END
>  <Classification>  (288) 
1

>  <pchembl>  (288) 
5.05

>  <InChI_steorem>  (288) 
InChI=1S/C20H17FN2O3/c1-25-18-8-6-14(11-19(18)26-2)20(24)23-17-7-5-13(10-16(17)21)15-4-3-9-22-12-15/h3-12H,1-2H3,(H,23,24)

>  <source>  (288) 
ChEMBL25

>  <source_id>  (288) 
25

>  <optional_reference>  (288) 
10.1021/jm500697c

>  <optional_origin>  (288) 
None

>  <target>  (288) 
MDR1

$$$$

     RDKit          2D

 27 29  0  0  0  0  0  0  0  0999 V2000
    6.2404   -7.2887    0.0000 O   0  0  0  0  0  0  0  0  0  0  0  0
    6.6531   -7.9986    0.0000 S   0  0  0  0  0  0  0  0  0  0  0  0
    7.0615   -7.2862    0.0000 O   0  0  0  0  0  0  0  0  0  0  0  0
    5.9479   -8.4119    0.0000 N   0  0  0  0  0  0  0  0  0  0  0  0
    5.2360   -8.0033    0.0000 C   0  0  0  0  0  0  0  0  0  0  0  0
    4.5242   -8.4119    0.0000 C   0  0  0  0  0  0  0  0  0  0  0  0
    3.8124   -8.0033    0.0000 C   0  0  0  0  0  0  0  0  0  0  0  0
    3.8124   -7.1820    0.0000 C   0  0  0  0  0  0  0  0  0  0  0  0
    4.5242   -6.7692    0.0000 C   0  0  0  0  0  0  0  0  0  0  0  0
    5.2360   -7.1820    0.0000 C   0  0  0  0  0  0  0  0  0  0  0  0
    3.1005   -5.9479    0.0000 C   0  0  0  0  0  0  0  0  0  0  0  0
    3.1005   -6.7692    0.0000 C   0  0  0  0  0  0  0  0  0  0  0  0
    2.3887   -7.1820    0.0000 C   0  0  0  0  0  0  0  0  0  0  0  0
    1.6768   -6.7692    0.0000 C   0  0  0  0  0  0  0  0  0  0  0  0
    1.6768   -5.9479    0.0000 C   0  0  0  0  0  0  0  0  0  0  0  0
    2.3887   -5.5393    0.0000 N   0  0  0  0  0  0  0  0  0  0  0  0
    4.5242   -9.2332    0.0000 F   0  0  0  0  0  0  0  0  0  0  0  0
    7.3633   -8.4083    0.0000 C   0  0  0  0  0  0  0  0  0  0  0  0
    7.3623   -9.2254    0.0000 C   0  0  0  0  0  0  0  0  0  0  0  0
    8.0702   -9.6322    0.0000 C   0  0  0  0  0  0  0  0  0  0  0  0
    8.7778   -9.2217    0.0000 C   0  0  0  0  0  0  0  0  0  0  0  0
    8.7731   -8.4003    0.0000 C   0  0  0  0  0  0  0  0  0  0  0  0
    8.0647   -7.9973    0.0000 C   0  0  0  0  0  0  0  0  0  0  0  0
    9.4871   -9.6276    0.0000 O   0  0  0  0  0  0  0  0  0  0  0  0
    9.4903  -10.4448    0.0000 C   0  0  0  0  0  0  0  0  0  0  0  0
    9.4784   -7.9875    0.0000 O   0  0  0  0  0  0  0  0  0  0  0  0
   10.1885   -8.3918    0.0000 C   0  0  0  0  0  0  0  0  0  0  0  0
  2  1  2  0
  3  2  2  0
  5  6  2  0
  6  7  1  0
  7  8  2  0
  8  9  1  0
  9 10  2  0
  5 10  1  0
 11 12  2  0
 12 13  1  0
 13 14  2  0
 14 15  1  0
 15 16  2  0
 11 16  1  0
  8 12  1  0
  6 17  1  0
  4  5  1  0
  4  2  1  0
  2 18  1  0
 18 19  2  0
 19 20  1  0
 20 21  2  0
 21 22  1  0
 22 23  2  0
 23 18  1  0
 21 24  1  0
 24 25  1  0
 22 26  1  0
 26 27  1  0
M  END
>  <Classification>  (289) 
0

>  <pchembl>  (289) 
4.17

>  <InChI_steorem>  (289) 
InChI=1S/C19H17FN2O4S/c1-25-18-8-6-15(11-19(18)26-2)27(23,24)22-17-7-5-13(10-16(17)20)14-4-3-9-21-12-14/h3-12,22H,1-2H3

>  <source>  (289) 
ChEMBL25

>  <source_id>  (289) 
25

>  <optional_reference>  (289) 
10.1021/jm500697c

>  <optional_origin>  (289) 
None

>  <target>  (289) 
MDR1

$$$$

     RDKit          2D

 27 29  0  0  0  0  0  0  0  0999 V2000
    6.9121   -7.3036    0.0000 C   0  0  0  0  0  0  0  0  0  0  0  0
    7.7293   -7.3036    0.0000 C   0  0  0  0  0  0  0  0  0  0  0  0
    8.1379   -8.0114    0.0000 C   0  0  0  0  0  0  0  0  0  0  0  0
    8.9551   -8.0114    0.0000 C   0  0  0  0  0  0  0  0  0  0  0  0
    9.3637   -7.3036    0.0000 C   0  0  0  0  0  0  0  0  0  0  0  0
    8.9551   -6.5959    0.0000 C   0  0  0  0  0  0  0  0  0  0  0  0
    8.1379   -6.5959    0.0000 C   0  0  0  0  0  0  0  0  0  0  0  0
    6.5035   -6.5959    0.0000 O   0  0  0  0  0  0  0  0  0  0  0  0
    6.5035   -8.0114    0.0000 N   0  0  0  0  0  0  0  0  0  0  0  0
    9.3637   -5.8882    0.0000 O   0  0  0  0  0  0  0  0  0  0  0  0
   10.1809   -5.8882    0.0000 C   0  0  0  0  0  0  0  0  0  0  0  0
   10.1809   -7.3036    0.0000 O   0  0  0  0  0  0  0  0  0  0  0  0
   10.5894   -6.5959    0.0000 C   0  0  0  0  0  0  0  0  0  0  0  0
    9.3637   -8.7191    0.0000 O   0  0  0  0  0  0  0  0  0  0  0  0
   10.1809   -8.7191    0.0000 C   0  0  0  0  0  0  0  0  0  0  0  0
    4.4605   -7.3036    0.0000 C   0  0  0  0  0  0  0  0  0  0  0  0
    4.0519   -8.0114    0.0000 C   0  0  0  0  0  0  0  0  0  0  0  0
    4.4605   -8.7191    0.0000 C   0  0  0  0  0  0  0  0  0  0  0  0
    5.2777   -8.7191    0.0000 C   0  0  0  0  0  0  0  0  0  0  0  0
    5.6863   -8.0114    0.0000 C   0  0  0  0  0  0  0  0  0  0  0  0
    5.2777   -7.3036    0.0000 N   0  0  0  0  0  0  0  0  0  0  0  0
    2.8261   -8.7191    0.0000 C   0  0  0  0  0  0  0  0  0  0  0  0
    3.2347   -8.0114    0.0000 C   0  0  0  0  0  0  0  0  0  0  0  0
    2.8261   -7.3036    0.0000 C   0  0  0  0  0  0  0  0  0  0  0  0
    2.0090   -7.3036    0.0000 C   0  0  0  0  0  0  0  0  0  0  0  0
    1.6004   -8.0114    0.0000 C   0  0  0  0  0  0  0  0  0  0  0  0
    2.0090   -8.7191    0.0000 N   0  0  0  0  0  0  0  0  0  0  0  0
  1  2  1  0
  2  3  2  0
  3  4  1  0
  4  5  2  0
  5  6  1  0
  6  7  2  0
  2  7  1  0
  1  8  2  0
  1  9  1  0
 10 11  1  0
  6 10  1  0
 12 13  1  0
  5 12  1  0
 14 15  1  0
  4 14  1  0
 16 17  2  0
 17 18  1  0
 18 19  2  0
 19 20  1  0
 20 21  2  0
 16 21  1  0
 22 23  2  0
 23 24  1  0
 24 25  2  0
 25 26  1  0
 26 27  2  0
 22 27  1  0
 17 23  1  0
  9 20  1  0
M  END
>  <Classification>  (290) 
1

>  <pchembl>  (290) 
5.09

>  <InChI_steorem>  (290) 
InChI=1S/C20H19N3O4/c1-25-16-9-15(10-17(26-2)19(16)27-3)20(24)23-18-7-6-14(12-22-18)13-5-4-8-21-11-13/h4-12H,1-3H3,(H,22,23,24)

>  <source>  (290) 
ChEMBL25

>  <source_id>  (290) 
25

>  <optional_reference>  (290) 
10.1021/jm500697c

>  <optional_origin>  (290) 
None

>  <target>  (290) 
MDR1

$$$$

     RDKit          2D

 27 29  0  0  0  0  0  0  0  0999 V2000
    8.2287   -7.8742    0.0000 C   0  0  0  0  0  0  0  0  0  0  0  0
    9.0500   -7.8742    0.0000 C   0  0  0  0  0  0  0  0  0  0  0  0
    9.4586   -7.1623    0.0000 C   0  0  0  0  0  0  0  0  0  0  0  0
   10.2799   -7.1623    0.0000 C   0  0  0  0  0  0  0  0  0  0  0  0
   10.6926   -7.8742    0.0000 C   0  0  0  0  0  0  0  0  0  0  0  0
   10.2799   -8.5860    0.0000 C   0  0  0  0  0  0  0  0  0  0  0  0
    9.4586   -8.5860    0.0000 C   0  0  0  0  0  0  0  0  0  0  0  0
    7.8160   -8.5860    0.0000 O   0  0  0  0  0  0  0  0  0  0  0  0
    7.8160   -7.1623    0.0000 N   0  0  0  0  0  0  0  0  0  0  0  0
   10.6926   -9.2978    0.0000 O   0  0  0  0  0  0  0  0  0  0  0  0
   11.5139   -9.2978    0.0000 C   0  0  0  0  0  0  0  0  0  0  0  0
   11.5139   -7.8742    0.0000 O   0  0  0  0  0  0  0  0  0  0  0  0
   11.9225   -8.5860    0.0000 C   0  0  0  0  0  0  0  0  0  0  0  0
    9.0500   -6.4546    0.0000 O   0  0  0  0  0  0  0  0  0  0  0  0
    9.4586   -5.7428    0.0000 C   0  0  0  0  0  0  0  0  0  0  0  0
    5.7647   -7.8742    0.0000 C   0  0  0  0  0  0  0  0  0  0  0  0
    5.3520   -7.1623    0.0000 C   0  0  0  0  0  0  0  0  0  0  0  0
    5.7647   -6.4546    0.0000 C   0  0  0  0  0  0  0  0  0  0  0  0
    6.5860   -6.4546    0.0000 C   0  0  0  0  0  0  0  0  0  0  0  0
    6.9946   -7.1623    0.0000 C   0  0  0  0  0  0  0  0  0  0  0  0
    6.5860   -7.8742    0.0000 N   0  0  0  0  0  0  0  0  0  0  0  0
    4.1221   -6.4546    0.0000 C   0  0  0  0  0  0  0  0  0  0  0  0
    4.5307   -7.1623    0.0000 C   0  0  0  0  0  0  0  0  0  0  0  0
    4.1221   -7.8742    0.0000 C   0  0  0  0  0  0  0  0  0  0  0  0
    3.3008   -7.8742    0.0000 C   0  0  0  0  0  0  0  0  0  0  0  0
    2.8881   -7.1623    0.0000 C   0  0  0  0  0  0  0  0  0  0  0  0
    3.3008   -6.4546    0.0000 N   0  0  0  0  0  0  0  0  0  0  0  0
  1  2  1  0
  2  3  2  0
  3  4  1  0
  4  5  2  0
  5  6  1  0
  6  7  2  0
  2  7  1  0
  1  8  2  0
  1  9  1  0
 10 11  1  0
  6 10  1  0
 12 13  1  0
  5 12  1  0
 14 15  1  0
  3 14  1  0
 16 17  2  0
 17 18  1  0
 18 19  2  0
 19 20  1  0
 20 21  2  0
 16 21  1  0
 22 23  2  0
 23 24  1  0
 24 25  2  0
 25 26  1  0
 26 27  2  0
 22 27  1  0
 17 23  1  0
  9 20  1  0
M  END
>  <Classification>  (291) 
1

>  <pchembl>  (291) 
6.27

>  <InChI_steorem>  (291) 
InChI=1S/C20H19N3O4/c1-25-16-10-18(27-3)17(26-2)9-15(16)20(24)23-19-7-6-14(12-22-19)13-5-4-8-21-11-13/h4-12H,1-3H3,(H,22,23,24)

>  <source>  (291) 
ChEMBL25

>  <source_id>  (291) 
25

>  <optional_reference>  (291) 
10.1021/jm500697c

>  <optional_origin>  (291) 
None

>  <target>  (291) 
MDR1

$$$$

     RDKit          2D

 28 30  0  0  0  0  0  0  0  0999 V2000
    6.8040   -7.1758    0.0000 C   0  0  0  0  0  0  0  0  0  0  0  0
    6.8040   -6.3586    0.0000 C   0  0  0  0  0  0  0  0  0  0  0  0
    6.0963   -5.9500    0.0000 C   0  0  0  0  0  0  0  0  0  0  0  0
    6.0963   -5.1328    0.0000 C   0  0  0  0  0  0  0  0  0  0  0  0
    6.8040   -4.7242    0.0000 C   0  0  0  0  0  0  0  0  0  0  0  0
    7.5117   -5.1328    0.0000 C   0  0  0  0  0  0  0  0  0  0  0  0
    7.5117   -5.9500    0.0000 C   0  0  0  0  0  0  0  0  0  0  0  0
    7.5117   -7.5844    0.0000 O   0  0  0  0  0  0  0  0  0  0  0  0
    6.0963   -7.5844    0.0000 N   0  0  0  0  0  0  0  0  0  0  0  0
    8.2194   -4.7242    0.0000 O   0  0  0  0  0  0  0  0  0  0  0  0
    8.9271   -5.1328    0.0000 C   0  0  0  0  0  0  0  0  0  0  0  0
    6.8040   -3.9070    0.0000 O   0  0  0  0  0  0  0  0  0  0  0  0
    7.5117   -3.4984    0.0000 C   0  0  0  0  0  0  0  0  0  0  0  0
    5.3886   -4.7242    0.0000 O   0  0  0  0  0  0  0  0  0  0  0  0
    5.3886   -3.9070    0.0000 C   0  0  0  0  0  0  0  0  0  0  0  0
    5.3886   -7.1758    0.0000 C   0  0  0  0  0  0  0  0  0  0  0  0
    4.6809   -7.5844    0.0000 C   0  0  0  0  0  0  0  0  0  0  0  0
    3.9732   -7.1758    0.0000 C   0  0  0  0  0  0  0  0  0  0  0  0
    3.9732   -6.3586    0.0000 C   0  0  0  0  0  0  0  0  0  0  0  0
    4.6809   -5.9500    0.0000 C   0  0  0  0  0  0  0  0  0  0  0  0
    5.3886   -6.3586    0.0000 C   0  0  0  0  0  0  0  0  0  0  0  0
    3.2655   -5.1328    0.0000 C   0  0  0  0  0  0  0  0  0  0  0  0
    3.2655   -5.9500    0.0000 C   0  0  0  0  0  0  0  0  0  0  0  0
    2.5578   -6.3586    0.0000 C   0  0  0  0  0  0  0  0  0  0  0  0
    1.8501   -5.9500    0.0000 C   0  0  0  0  0  0  0  0  0  0  0  0
    1.8501   -5.1328    0.0000 C   0  0  0  0  0  0  0  0  0  0  0  0
    2.5578   -4.7242    0.0000 N   0  0  0  0  0  0  0  0  0  0  0  0
    4.6809   -8.4015    0.0000 F   0  0  0  0  0  0  0  0  0  0  0  0
  1  2  1  0
  2  3  2  0
  3  4  1  0
  4  5  2  0
  5  6  1  0
  6  7  2  0
  2  7  1  0
  1  8  2  0
  1  9  1  0
 10 11  1  0
  6 10  1  0
 12 13  1  0
  5 12  1  0
 14 15  1  0
  4 14  1  0
 16 17  2  0
 17 18  1  0
 18 19  2  0
 19 20  1  0
 20 21  2  0
 16 21  1  0
 22 23  2  0
 23 24  1  0
 24 25  2  0
 25 26  1  0
 26 27  2  0
 22 27  1  0
 19 23  1  0
 17 28  1  0
  9 16  1  0
M  END
>  <Classification>  (292) 
1

>  <pchembl>  (292) 
5.36

>  <InChI_steorem>  (292) 
InChI=1S/C21H19FN2O4/c1-26-18-10-15(11-19(27-2)20(18)28-3)21(25)24-17-7-6-13(9-16(17)22)14-5-4-8-23-12-14/h4-12H,1-3H3,(H,24,25)

>  <source>  (292) 
ChEMBL25

>  <source_id>  (292) 
25

>  <optional_reference>  (292) 
10.1021/jm500697c

>  <optional_origin>  (292) 
None

>  <target>  (292) 
MDR1

$$$$

     RDKit          2D

 28 30  0  0  0  0  0  0  0  0999 V2000
    7.4590   -6.7171    0.0000 C   0  0  0  0  0  0  0  0  0  0  0  0
    8.2803   -6.7171    0.0000 C   0  0  0  0  0  0  0  0  0  0  0  0
    8.6889   -7.4289    0.0000 C   0  0  0  0  0  0  0  0  0  0  0  0
    9.5102   -7.4289    0.0000 C   0  0  0  0  0  0  0  0  0  0  0  0
    9.9229   -6.7171    0.0000 C   0  0  0  0  0  0  0  0  0  0  0  0
    9.5102   -6.0052    0.0000 C   0  0  0  0  0  0  0  0  0  0  0  0
    8.6889   -6.0052    0.0000 C   0  0  0  0  0  0  0  0  0  0  0  0
    7.0462   -6.0052    0.0000 O   0  0  0  0  0  0  0  0  0  0  0  0
    7.0462   -7.4289    0.0000 N   0  0  0  0  0  0  0  0  0  0  0  0
    8.2803   -5.2934    0.0000 O   0  0  0  0  0  0  0  0  0  0  0  0
    8.6889   -4.5816    0.0000 C   0  0  0  0  0  0  0  0  0  0  0  0
   10.7442   -6.7171    0.0000 O   0  0  0  0  0  0  0  0  0  0  0  0
   11.1528   -6.0052    0.0000 C   0  0  0  0  0  0  0  0  0  0  0  0
    8.2803   -8.1407    0.0000 O   0  0  0  0  0  0  0  0  0  0  0  0
    8.6889   -8.8484    0.0000 C   0  0  0  0  0  0  0  0  0  0  0  0
    6.2249   -7.4289    0.0000 C   0  0  0  0  0  0  0  0  0  0  0  0
    5.8163   -8.1407    0.0000 C   0  0  0  0  0  0  0  0  0  0  0  0
    4.9950   -8.1407    0.0000 C   0  0  0  0  0  0  0  0  0  0  0  0
    4.5823   -7.4289    0.0000 C   0  0  0  0  0  0  0  0  0  0  0  0
    4.9950   -6.7171    0.0000 C   0  0  0  0  0  0  0  0  0  0  0  0
    5.8163   -6.7171    0.0000 C   0  0  0  0  0  0  0  0  0  0  0  0
    3.3524   -6.7171    0.0000 C   0  0  0  0  0  0  0  0  0  0  0  0
    3.7610   -7.4289    0.0000 C   0  0  0  0  0  0  0  0  0  0  0  0
    3.3524   -8.1407    0.0000 C   0  0  0  0  0  0  0  0  0  0  0  0
    2.5311   -8.1407    0.0000 C   0  0  0  0  0  0  0  0  0  0  0  0
    2.1183   -7.4289    0.0000 C   0  0  0  0  0  0  0  0  0  0  0  0
    2.5311   -6.7171    0.0000 N   0  0  0  0  0  0  0  0  0  0  0  0
    6.2249   -8.8484    0.0000 F   0  0  0  0  0  0  0  0  0  0  0  0
  1  2  1  0
  2  3  2  0
  3  4  1  0
  4  5  2  0
  5  6  1  0
  6  7  2  0
  2  7  1  0
  1  8  2  0
  1  9  1  0
 10 11  1  0
  7 10  1  0
 12 13  1  0
  5 12  1  0
 14 15  1  0
  3 14  1  0
 16 17  2  0
 17 18  1  0
 18 19  2  0
 19 20  1  0
 20 21  2  0
 16 21  1  0
 22 23  2  0
 23 24  1  0
 24 25  2  0
 25 26  1  0
 26 27  2  0
 22 27  1  0
 19 23  1  0
 17 28  1  0
  9 16  1  0
M  END
>  <Classification>  (293) 
1

>  <pchembl>  (293) 
5.53

>  <InChI_steorem>  (293) 
InChI=1S/C21H19FN2O4/c1-26-15-10-18(27-2)20(19(11-15)28-3)21(25)24-17-7-6-13(9-16(17)22)14-5-4-8-23-12-14/h4-12H,1-3H3,(H,24,25)

>  <source>  (293) 
ChEMBL25

>  <source_id>  (293) 
25

>  <optional_reference>  (293) 
10.1021/jm500697c

>  <optional_origin>  (293) 
None

>  <target>  (293) 
MDR1

$$$$

     RDKit          2D

 28 30  0  0  0  0  0  0  0  0999 V2000
    8.9613   -8.3603    0.0000 C   0  0  0  0  0  0  0  0  0  0  0  0
    9.7785   -8.3603    0.0000 C   0  0  0  0  0  0  0  0  0  0  0  0
   10.1870   -9.0680    0.0000 C   0  0  0  0  0  0  0  0  0  0  0  0
   11.0042   -9.0680    0.0000 C   0  0  0  0  0  0  0  0  0  0  0  0
   11.4128   -8.3603    0.0000 C   0  0  0  0  0  0  0  0  0  0  0  0
   11.0042   -7.6526    0.0000 C   0  0  0  0  0  0  0  0  0  0  0  0
   10.1870   -7.6526    0.0000 C   0  0  0  0  0  0  0  0  0  0  0  0
    8.5527   -7.6526    0.0000 O   0  0  0  0  0  0  0  0  0  0  0  0
    8.5527   -9.0680    0.0000 N   0  0  0  0  0  0  0  0  0  0  0  0
   12.2300   -8.3603    0.0000 O   0  0  0  0  0  0  0  0  0  0  0  0
   12.6386   -7.6526    0.0000 C   0  0  0  0  0  0  0  0  0  0  0  0
   11.4128   -9.7757    0.0000 O   0  0  0  0  0  0  0  0  0  0  0  0
   12.2300   -9.7757    0.0000 C   0  0  0  0  0  0  0  0  0  0  0  0
    9.7785   -9.7757    0.0000 O   0  0  0  0  0  0  0  0  0  0  0  0
   10.1870  -10.4835    0.0000 C   0  0  0  0  0  0  0  0  0  0  0  0
    7.7355   -9.0680    0.0000 C   0  0  0  0  0  0  0  0  0  0  0  0
    7.3269   -9.7757    0.0000 C   0  0  0  0  0  0  0  0  0  0  0  0
    6.5097   -9.7757    0.0000 C   0  0  0  0  0  0  0  0  0  0  0  0
    6.1011   -9.0680    0.0000 C   0  0  0  0  0  0  0  0  0  0  0  0
    6.5097   -8.3603    0.0000 C   0  0  0  0  0  0  0  0  0  0  0  0
    7.3269   -8.3603    0.0000 C   0  0  0  0  0  0  0  0  0  0  0  0
    4.8753   -8.3603    0.0000 C   0  0  0  0  0  0  0  0  0  0  0  0
    5.2839   -9.0680    0.0000 C   0  0  0  0  0  0  0  0  0  0  0  0
    4.8753   -9.7757    0.0000 C   0  0  0  0  0  0  0  0  0  0  0  0
    4.0581   -9.7757    0.0000 C   0  0  0  0  0  0  0  0  0  0  0  0
    3.6495   -9.0680    0.0000 C   0  0  0  0  0  0  0  0  0  0  0  0
    4.0581   -8.3603    0.0000 N   0  0  0  0  0  0  0  0  0  0  0  0
    7.7355  -10.4835    0.0000 F   0  0  0  0  0  0  0  0  0  0  0  0
  1  2  1  0
  2  3  2  0
  3  4  1  0
  4  5  2  0
  5  6  1  0
  6  7  2  0
  2  7  1  0
  1  8  2  0
  1  9  1  0
 10 11  1  0
  5 10  1  0
 12 13  1  0
  4 12  1  0
 14 15  1  0
  3 14  1  0
 16 17  2  0
 17 18  1  0
 18 19  2  0
 19 20  1  0
 20 21  2  0
 16 21  1  0
 22 23  2  0
 23 24  1  0
 24 25  2  0
 25 26  1  0
 26 27  2  0
 22 27  1  0
 19 23  1  0
 17 28  1  0
  9 16  1  0
M  END
>  <Classification>  (294) 
1

>  <pchembl>  (294) 
6.17

>  <InChI_steorem>  (294) 
InChI=1S/C21H19FN2O4/c1-26-18-9-7-15(19(27-2)20(18)28-3)21(25)24-17-8-6-13(11-16(17)22)14-5-4-10-23-12-14/h4-12H,1-3H3,(H,24,25)

>  <source>  (294) 
ChEMBL25

>  <source_id>  (294) 
25

>  <optional_reference>  (294) 
10.1021/jm500697c

>  <optional_origin>  (294) 
None

>  <target>  (294) 
MDR1

$$$$

     RDKit          2D

 28 30  0  0  0  0  0  0  0  0999 V2000
    8.9716   -8.7101    0.0000 C   0  0  0  0  0  0  0  0  0  0  0  0
    9.7929   -8.7101    0.0000 C   0  0  0  0  0  0  0  0  0  0  0  0
   10.2015   -9.4219    0.0000 C   0  0  0  0  0  0  0  0  0  0  0  0
   11.0228   -9.4219    0.0000 C   0  0  0  0  0  0  0  0  0  0  0  0
   11.4355   -8.7101    0.0000 C   0  0  0  0  0  0  0  0  0  0  0  0
   11.0228   -8.0023    0.0000 C   0  0  0  0  0  0  0  0  0  0  0  0
   10.2015   -8.0023    0.0000 C   0  0  0  0  0  0  0  0  0  0  0  0
    8.5589   -8.0023    0.0000 O   0  0  0  0  0  0  0  0  0  0  0  0
    8.5589   -9.4219    0.0000 N   0  0  0  0  0  0  0  0  0  0  0  0
   11.4355   -7.2905    0.0000 O   0  0  0  0  0  0  0  0  0  0  0  0
   12.2568   -7.2905    0.0000 C   0  0  0  0  0  0  0  0  0  0  0  0
   12.2568   -8.7101    0.0000 O   0  0  0  0  0  0  0  0  0  0  0  0
   12.6654   -8.0023    0.0000 C   0  0  0  0  0  0  0  0  0  0  0  0
    9.7929  -10.1337    0.0000 O   0  0  0  0  0  0  0  0  0  0  0  0
   10.2015  -10.8456    0.0000 C   0  0  0  0  0  0  0  0  0  0  0  0
    7.7375   -9.4219    0.0000 C   0  0  0  0  0  0  0  0  0  0  0  0
    7.3289  -10.1337    0.0000 C   0  0  0  0  0  0  0  0  0  0  0  0
    6.5076  -10.1337    0.0000 C   0  0  0  0  0  0  0  0  0  0  0  0
    6.0949   -9.4219    0.0000 C   0  0  0  0  0  0  0  0  0  0  0  0
    6.5076   -8.7101    0.0000 C   0  0  0  0  0  0  0  0  0  0  0  0
    7.3289   -8.7101    0.0000 C   0  0  0  0  0  0  0  0  0  0  0  0
    4.8650   -8.7101    0.0000 C   0  0  0  0  0  0  0  0  0  0  0  0
    5.2736   -9.4219    0.0000 C   0  0  0  0  0  0  0  0  0  0  0  0
    4.8650  -10.1337    0.0000 C   0  0  0  0  0  0  0  0  0  0  0  0
    4.0437  -10.1337    0.0000 C   0  0  0  0  0  0  0  0  0  0  0  0
    3.6310   -9.4219    0.0000 C   0  0  0  0  0  0  0  0  0  0  0  0
    4.0437   -8.7101    0.0000 N   0  0  0  0  0  0  0  0  0  0  0  0
    7.7375  -10.8456    0.0000 F   0  0  0  0  0  0  0  0  0  0  0  0
  1  2  1  0
  2  3  2  0
  3  4  1  0
  4  5  2  0
  5  6  1  0
  6  7  2  0
  2  7  1  0
  1  8  2  0
  1  9  1  0
 10 11  1  0
  6 10  1  0
 12 13  1  0
  5 12  1  0
 14 15  1  0
  3 14  1  0
 16 17  2  0
 17 18  1  0
 18 19  2  0
 19 20  1  0
 20 21  2  0
 16 21  1  0
 22 23  2  0
 23 24  1  0
 24 25  2  0
 25 26  1  0
 26 27  2  0
 22 27  1  0
 19 23  1  0
 17 28  1  0
  9 16  1  0
M  END
>  <Classification>  (295) 
1

>  <pchembl>  (295) 
6.7

>  <InChI_steorem>  (295) 
InChI=1S/C21H19FN2O4/c1-26-18-11-20(28-3)19(27-2)10-15(18)21(25)24-17-7-6-13(9-16(17)22)14-5-4-8-23-12-14/h4-12H,1-3H3,(H,24,25)

>  <source>  (295) 
ChEMBL25

>  <source_id>  (295) 
25

>  <optional_reference>  (295) 
10.1021/jm500697c

>  <optional_origin>  (295) 
None

>  <target>  (295) 
MDR1

$$$$

     RDKit          2D

 28 30  0  0  0  0  0  0  0  0999 V2000
    8.9738   -8.7101    0.0000 C   0  0  0  0  0  0  0  0  0  0  0  0
    9.7951   -8.7101    0.0000 C   0  0  0  0  0  0  0  0  0  0  0  0
   10.2037   -9.4219    0.0000 C   0  0  0  0  0  0  0  0  0  0  0  0
   11.0250   -9.4219    0.0000 C   0  0  0  0  0  0  0  0  0  0  0  0
   11.4378   -8.7101    0.0000 C   0  0  0  0  0  0  0  0  0  0  0  0
   11.0250   -8.0023    0.0000 C   0  0  0  0  0  0  0  0  0  0  0  0
   10.2037   -8.0023    0.0000 C   0  0  0  0  0  0  0  0  0  0  0  0
    8.5611   -8.0023    0.0000 O   0  0  0  0  0  0  0  0  0  0  0  0
    8.5611   -9.4219    0.0000 N   0  0  0  0  0  0  0  0  0  0  0  0
   11.4378   -7.2905    0.0000 O   0  0  0  0  0  0  0  0  0  0  0  0
   12.2591   -7.2905    0.0000 C   0  0  0  0  0  0  0  0  0  0  0  0
   12.2591   -8.7101    0.0000 O   0  0  0  0  0  0  0  0  0  0  0  0
   12.6677   -8.0023    0.0000 C   0  0  0  0  0  0  0  0  0  0  0  0
    9.7951  -10.1337    0.0000 O   0  0  0  0  0  0  0  0  0  0  0  0
   10.2037  -10.8456    0.0000 C   0  0  0  0  0  0  0  0  0  0  0  0
    7.7398   -9.4219    0.0000 C   0  0  0  0  0  0  0  0  0  0  0  0
    7.3312  -10.1337    0.0000 C   0  0  0  0  0  0  0  0  0  0  0  0
    6.5099  -10.1337    0.0000 C   0  0  0  0  0  0  0  0  0  0  0  0
    6.0971   -9.4219    0.0000 C   0  0  0  0  0  0  0  0  0  0  0  0
    6.5099   -8.7101    0.0000 C   0  0  0  0  0  0  0  0  0  0  0  0
    7.3312   -8.7101    0.0000 C   0  0  0  0  0  0  0  0  0  0  0  0
    4.0459   -8.7101    0.0000 C   0  0  0  0  0  0  0  0  0  0  0  0
    4.8672   -8.7101    0.0000 C   0  0  0  0  0  0  0  0  0  0  0  0
    5.2758   -9.4219    0.0000 C   0  0  0  0  0  0  0  0  0  0  0  0
    4.8672  -10.1337    0.0000 C   0  0  0  0  0  0  0  0  0  0  0  0
    4.0459  -10.1337    0.0000 C   0  0  0  0  0  0  0  0  0  0  0  0
    3.6332   -9.4219    0.0000 N   0  0  0  0  0  0  0  0  0  0  0  0
    7.7398  -10.8456    0.0000 F   0  0  0  0  0  0  0  0  0  0  0  0
  1  2  1  0
  2  3  2  0
  3  4  1  0
  4  5  2  0
  5  6  1  0
  6  7  2  0
  2  7  1  0
  1  8  2  0
  1  9  1  0
 10 11  1  0
  6 10  1  0
 12 13  1  0
  5 12  1  0
 14 15  1  0
  3 14  1  0
 16 17  2  0
 17 18  1  0
 18 19  2  0
 19 20  1  0
 20 21  2  0
 16 21  1  0
 22 23  2  0
 23 24  1  0
 24 25  2  0
 25 26  1  0
 26 27  2  0
 22 27  1  0
 19 24  1  0
 17 28  1  0
  9 16  1  0
M  END
>  <Classification>  (296) 
1

>  <pchembl>  (296) 
6.51

>  <InChI_steorem>  (296) 
InChI=1S/C21H19FN2O4/c1-26-18-12-20(28-3)19(27-2)11-15(18)21(25)24-17-5-4-14(10-16(17)22)13-6-8-23-9-7-13/h4-12H,1-3H3,(H,24,25)

>  <source>  (296) 
ChEMBL25

>  <source_id>  (296) 
25

>  <optional_reference>  (296) 
10.1021/jm500697c

>  <optional_origin>  (296) 
None

>  <target>  (296) 
MDR1

$$$$

     RDKit          2D

 28 30  0  0  0  0  0  0  0  0999 V2000
    9.5685  -10.3599    0.0000 C   0  0  0  0  0  0  0  0  0  0  0  0
    9.5685   -9.5427    0.0000 C   0  0  0  0  0  0  0  0  0  0  0  0
    8.8608   -9.1341    0.0000 C   0  0  0  0  0  0  0  0  0  0  0  0
    8.8608   -8.3169    0.0000 C   0  0  0  0  0  0  0  0  0  0  0  0
    9.5685   -7.9084    0.0000 C   0  0  0  0  0  0  0  0  0  0  0  0
   10.2762   -8.3169    0.0000 C   0  0  0  0  0  0  0  0  0  0  0  0
   10.2762   -9.1341    0.0000 C   0  0  0  0  0  0  0  0  0  0  0  0
   10.2762  -10.7685    0.0000 O   0  0  0  0  0  0  0  0  0  0  0  0
    8.8608  -10.7685    0.0000 N   0  0  0  0  0  0  0  0  0  0  0  0
   10.9839   -7.9084    0.0000 O   0  0  0  0  0  0  0  0  0  0  0  0
   11.6916   -8.3169    0.0000 C   0  0  0  0  0  0  0  0  0  0  0  0
    9.5685   -7.0912    0.0000 O   0  0  0  0  0  0  0  0  0  0  0  0
   10.2762   -6.6826    0.0000 C   0  0  0  0  0  0  0  0  0  0  0  0
    8.1531   -7.9084    0.0000 O   0  0  0  0  0  0  0  0  0  0  0  0
    8.1531   -7.0912    0.0000 C   0  0  0  0  0  0  0  0  0  0  0  0
    8.1531  -10.3599    0.0000 C   0  0  0  0  0  0  0  0  0  0  0  0
    7.4454  -10.7685    0.0000 C   0  0  0  0  0  0  0  0  0  0  0  0
    6.7377  -10.3599    0.0000 C   0  0  0  0  0  0  0  0  0  0  0  0
    6.7377   -9.5427    0.0000 C   0  0  0  0  0  0  0  0  0  0  0  0
    7.4454   -9.1341    0.0000 C   0  0  0  0  0  0  0  0  0  0  0  0
    8.1531   -9.5427    0.0000 C   0  0  0  0  0  0  0  0  0  0  0  0
    5.3223   -7.9084    0.0000 C   0  0  0  0  0  0  0  0  0  0  0  0
    6.0300   -8.3169    0.0000 C   0  0  0  0  0  0  0  0  0  0  0  0
    6.0300   -9.1341    0.0000 C   0  0  0  0  0  0  0  0  0  0  0  0
    5.3223   -9.5427    0.0000 C   0  0  0  0  0  0  0  0  0  0  0  0
    4.6145   -9.1341    0.0000 C   0  0  0  0  0  0  0  0  0  0  0  0
    4.6145   -8.3169    0.0000 N   0  0  0  0  0  0  0  0  0  0  0  0
    7.4454  -11.5857    0.0000 F   0  0  0  0  0  0  0  0  0  0  0  0
  1  2  1  0
  2  3  2  0
  3  4  1  0
  4  5  2  0
  5  6  1  0
  6  7  2  0
  2  7  1  0
  1  8  2  0
  1  9  1  0
 10 11  1  0
  6 10  1  0
 12 13  1  0
  5 12  1  0
 14 15  1  0
  4 14  1  0
 16 17  2  0
 17 18  1  0
 18 19  2  0
 19 20  1  0
 20 21  2  0
 16 21  1  0
 22 23  2  0
 23 24  1  0
 24 25  2  0
 25 26  1  0
 26 27  2  0
 22 27  1  0
 19 24  1  0
 17 28  1  0
  9 16  1  0
M  END
>  <Classification>  (297) 
1

>  <pchembl>  (297) 
5.5

>  <InChI_steorem>  (297) 
InChI=1S/C21H19FN2O4/c1-26-18-11-15(12-19(27-2)20(18)28-3)21(25)24-17-5-4-14(10-16(17)22)13-6-8-23-9-7-13/h4-12H,1-3H3,(H,24,25)

>  <source>  (297) 
ChEMBL25

>  <source_id>  (297) 
25

>  <optional_reference>  (297) 
10.1021/jm500697c

>  <optional_origin>  (297) 
None

>  <target>  (297) 
MDR1

$$$$

     RDKit          2D

 29 31  0  0  0  0  0  0  0  0999 V2000
    5.6161   -6.4256    0.0000 C   0  0  0  0  0  0  0  0  0  0  0  0
    6.4375   -6.4256    0.0000 C   0  0  0  0  0  0  0  0  0  0  0  0
    6.8461   -7.1375    0.0000 C   0  0  0  0  0  0  0  0  0  0  0  0
    7.6674   -7.1375    0.0000 C   0  0  0  0  0  0  0  0  0  0  0  0
    8.0801   -6.4256    0.0000 C   0  0  0  0  0  0  0  0  0  0  0  0
    7.6674   -5.7179    0.0000 C   0  0  0  0  0  0  0  0  0  0  0  0
    6.8461   -5.7179    0.0000 C   0  0  0  0  0  0  0  0  0  0  0  0
    5.2034   -5.7179    0.0000 O   0  0  0  0  0  0  0  0  0  0  0  0
    5.2034   -7.1375    0.0000 N   0  0  0  0  0  0  0  0  0  0  0  0
    5.6161   -7.8493    0.0000 C   0  0  0  0  0  0  0  0  0  0  0  0
    8.0801   -5.0061    0.0000 O   0  0  0  0  0  0  0  0  0  0  0  0
    8.9014   -5.0061    0.0000 C   0  0  0  0  0  0  0  0  0  0  0  0
    8.9014   -6.4256    0.0000 O   0  0  0  0  0  0  0  0  0  0  0  0
    9.3100   -5.7179    0.0000 C   0  0  0  0  0  0  0  0  0  0  0  0
    6.4375   -7.8493    0.0000 O   0  0  0  0  0  0  0  0  0  0  0  0
    6.8461   -8.5611    0.0000 C   0  0  0  0  0  0  0  0  0  0  0  0
    4.3821   -7.1375    0.0000 C   0  0  0  0  0  0  0  0  0  0  0  0
    3.9735   -7.8493    0.0000 C   0  0  0  0  0  0  0  0  0  0  0  0
    3.1522   -7.8493    0.0000 C   0  0  0  0  0  0  0  0  0  0  0  0
    2.7395   -7.1375    0.0000 C   0  0  0  0  0  0  0  0  0  0  0  0
    3.1522   -6.4256    0.0000 C   0  0  0  0  0  0  0  0  0  0  0  0
    3.9735   -6.4256    0.0000 C   0  0  0  0  0  0  0  0  0  0  0  0
    1.5096   -6.4256    0.0000 C   0  0  0  0  0  0  0  0  0  0  0  0
    1.9182   -7.1375    0.0000 C   0  0  0  0  0  0  0  0  0  0  0  0
    1.5096   -7.8493    0.0000 C   0  0  0  0  0  0  0  0  0  0  0  0
    0.6882   -7.8493    0.0000 C   0  0  0  0  0  0  0  0  0  0  0  0
    0.2755   -7.1375    0.0000 C   0  0  0  0  0  0  0  0  0  0  0  0
    0.6882   -6.4256    0.0000 N   0  0  0  0  0  0  0  0  0  0  0  0
    4.3821   -8.5611    0.0000 F   0  0  0  0  0  0  0  0  0  0  0  0
  1  2  1  0
  2  3  2  0
  3  4  1  0
  4  5  2  0
  5  6  1  0
  6  7  2  0
  2  7  1  0
  1  8  2  0
  1  9  1  0
  9 10  1  0
 11 12  1  0
  6 11  1  0
 13 14  1  0
  5 13  1  0
 15 16  1  0
  3 15  1  0
 17 18  2  0
 18 19  1  0
 19 20  2  0
 20 21  1  0
 21 22  2  0
 17 22  1  0
 23 24  2  0
 24 25  1  0
 25 26  2  0
 26 27  1  0
 27 28  2  0
 23 28  1  0
 20 24  1  0
 18 29  1  0
  9 17  1  0
M  END
>  <Classification>  (298) 
0

>  <pchembl>  (298) 
4.67

>  <InChI_steorem>  (298) 
InChI=1S/C22H21FN2O4/c1-25(18-8-7-14(10-17(18)23)15-6-5-9-24-13-15)22(26)16-11-20(28-3)21(29-4)12-19(16)27-2/h5-13H,1-4H3

>  <source>  (298) 
ChEMBL25

>  <source_id>  (298) 
25

>  <optional_reference>  (298) 
10.1021/jm500697c

>  <optional_origin>  (298) 
None

>  <target>  (298) 
MDR1

$$$$

     RDKit          2D

 29 31  0  0  0  0  0  0  0  0999 V2000
    5.8486   -6.1192    0.0000 C   0  0  0  0  0  0  0  0  0  0  0  0
    5.8486   -5.3020    0.0000 C   0  0  0  0  0  0  0  0  0  0  0  0
    5.1409   -4.8934    0.0000 C   0  0  0  0  0  0  0  0  0  0  0  0
    5.1409   -4.0762    0.0000 C   0  0  0  0  0  0  0  0  0  0  0  0
    5.8486   -3.6676    0.0000 C   0  0  0  0  0  0  0  0  0  0  0  0
    6.5563   -4.0762    0.0000 C   0  0  0  0  0  0  0  0  0  0  0  0
    6.5563   -4.8934    0.0000 C   0  0  0  0  0  0  0  0  0  0  0  0
    6.5563   -6.5278    0.0000 O   0  0  0  0  0  0  0  0  0  0  0  0
    5.1409   -6.5278    0.0000 N   0  0  0  0  0  0  0  0  0  0  0  0
    5.1409   -7.3450    0.0000 C   0  0  0  0  0  0  0  0  0  0  0  0
    7.2640   -3.6676    0.0000 O   0  0  0  0  0  0  0  0  0  0  0  0
    7.9717   -4.0762    0.0000 C   0  0  0  0  0  0  0  0  0  0  0  0
    5.8486   -2.8504    0.0000 O   0  0  0  0  0  0  0  0  0  0  0  0
    6.5563   -2.4418    0.0000 C   0  0  0  0  0  0  0  0  0  0  0  0
    4.4332   -3.6676    0.0000 O   0  0  0  0  0  0  0  0  0  0  0  0
    4.4332   -2.8504    0.0000 C   0  0  0  0  0  0  0  0  0  0  0  0
    4.4332   -6.1192    0.0000 C   0  0  0  0  0  0  0  0  0  0  0  0
    3.7255   -6.5278    0.0000 C   0  0  0  0  0  0  0  0  0  0  0  0
    3.0177   -6.1192    0.0000 C   0  0  0  0  0  0  0  0  0  0  0  0
    3.0177   -5.3020    0.0000 C   0  0  0  0  0  0  0  0  0  0  0  0
    3.7255   -4.8934    0.0000 C   0  0  0  0  0  0  0  0  0  0  0  0
    4.4332   -5.3020    0.0000 C   0  0  0  0  0  0  0  0  0  0  0  0
    2.3100   -4.0762    0.0000 C   0  0  0  0  0  0  0  0  0  0  0  0
    2.3100   -4.8934    0.0000 C   0  0  0  0  0  0  0  0  0  0  0  0
    1.6023   -5.3020    0.0000 C   0  0  0  0  0  0  0  0  0  0  0  0
    0.8946   -4.8934    0.0000 C   0  0  0  0  0  0  0  0  0  0  0  0
    0.8946   -4.0762    0.0000 C   0  0  0  0  0  0  0  0  0  0  0  0
    1.6023   -3.6676    0.0000 N   0  0  0  0  0  0  0  0  0  0  0  0
    3.7255   -7.3450    0.0000 F   0  0  0  0  0  0  0  0  0  0  0  0
  1  2  1  0
  2  3  2  0
  3  4  1  0
  4  5  2  0
  5  6  1  0
  6  7  2  0
  2  7  1  0
  1  8  2  0
  1  9  1  0
  9 10  1  0
 11 12  1  0
  6 11  1  0
 13 14  1  0
  5 13  1  0
 15 16  1  0
  4 15  1  0
 17 18  2  0
 18 19  1  0
 19 20  2  0
 20 21  1  0
 21 22  2  0
 17 22  1  0
 23 24  2  0
 24 25  1  0
 25 26  2  0
 26 27  1  0
 27 28  2  0
 23 28  1  0
 20 24  1  0
 18 29  1  0
  9 17  1  0
M  END
>  <Classification>  (299) 
1

>  <pchembl>  (299) 
5.18

>  <InChI_steorem>  (299) 
InChI=1S/C22H21FN2O4/c1-25(18-8-7-14(10-17(18)23)15-6-5-9-24-13-15)22(26)16-11-19(27-2)21(29-4)20(12-16)28-3/h5-13H,1-4H3

>  <source>  (299) 
ChEMBL25

>  <source_id>  (299) 
25

>  <optional_reference>  (299) 
10.1021/jm500697c

>  <optional_origin>  (299) 
None

>  <target>  (299) 
MDR1

$$$$

     RDKit          2D

 29 31  0  0  0  0  0  0  0  0999 V2000
    6.9150  -14.9199    0.0000 C   0  0  0  0  0  0  0  0  0  0  0  0
    7.7363  -14.9199    0.0000 C   0  0  0  0  0  0  0  0  0  0  0  0
    8.1449  -14.2080    0.0000 C   0  0  0  0  0  0  0  0  0  0  0  0
    8.9662  -14.2080    0.0000 C   0  0  0  0  0  0  0  0  0  0  0  0
    9.3789  -14.9199    0.0000 C   0  0  0  0  0  0  0  0  0  0  0  0
    8.9662  -15.6317    0.0000 C   0  0  0  0  0  0  0  0  0  0  0  0
    8.1449  -15.6317    0.0000 C   0  0  0  0  0  0  0  0  0  0  0  0
    6.5023  -15.6317    0.0000 O   0  0  0  0  0  0  0  0  0  0  0  0
    6.5023  -14.2080    0.0000 N   0  0  0  0  0  0  0  0  0  0  0  0
    9.3789  -16.3435    0.0000 O   0  0  0  0  0  0  0  0  0  0  0  0
   10.2002  -16.3435    0.0000 C   0  0  0  0  0  0  0  0  0  0  0  0
   10.2002  -14.9199    0.0000 O   0  0  0  0  0  0  0  0  0  0  0  0
   10.6088  -15.6317    0.0000 C   0  0  0  0  0  0  0  0  0  0  0  0
    9.3789  -13.5003    0.0000 O   0  0  0  0  0  0  0  0  0  0  0  0
   10.2002  -13.5003    0.0000 C   0  0  0  0  0  0  0  0  0  0  0  0
    5.6809  -14.2080    0.0000 C   0  0  0  0  0  0  0  0  0  0  0  0
    5.2723  -14.9199    0.0000 C   0  0  0  0  0  0  0  0  0  0  0  0
    4.4510  -14.9199    0.0000 C   0  0  0  0  0  0  0  0  0  0  0  0
    4.0383  -14.2080    0.0000 C   0  0  0  0  0  0  0  0  0  0  0  0
    4.4510  -13.5003    0.0000 C   0  0  0  0  0  0  0  0  0  0  0  0
    5.2723  -13.5003    0.0000 N   0  0  0  0  0  0  0  0  0  0  0  0
    3.2170  -14.2080    0.0000 C   0  0  0  0  0  0  0  0  0  0  0  0
    2.8084  -14.9199    0.0000 C   0  0  0  0  0  0  0  0  0  0  0  0
    1.9871  -14.9199    0.0000 C   0  0  0  0  0  0  0  0  0  0  0  0
    1.5744  -14.2080    0.0000 C   0  0  0  0  0  0  0  0  0  0  0  0
    1.9871  -13.5003    0.0000 C   0  0  0  0  0  0  0  0  0  0  0  0
    2.8084  -13.5003    0.0000 C   0  0  0  0  0  0  0  0  0  0  0  0
    1.5744  -12.7885    0.0000 F   0  0  0  0  0  0  0  0  0  0  0  0
    1.5744  -15.6317    0.0000 F   0  0  0  0  0  0  0  0  0  0  0  0
  1  2  1  0
  2  3  2  0
  3  4  1  0
  4  5  2  0
  5  6  1  0
  6  7  2  0
  2  7  1  0
  1  8  2  0
  1  9  1  0
 10 11  1  0
  6 10  1  0
 12 13  1  0
  5 12  1  0
 14 15  1  0
  4 14  1  0
 16 17  2  0
 17 18  1  0
 18 19  2  0
 19 20  1  0
 20 21  2  0
 16 21  1  0
 22 23  2  0
 23 24  1  0
 24 25  2  0
 25 26  1  0
 26 27  2  0
 22 27  1  0
 26 28  1  0
 24 29  1  0
 19 22  1  0
  9 16  1  0
M  END
>  <Classification>  (300) 
1

>  <pchembl>  (300) 
5.89

>  <InChI_steorem>  (300) 
InChI=1S/C21H18F2N2O4/c1-27-17-8-14(9-18(28-2)20(17)29-3)21(26)25-19-5-4-12(11-24-19)13-6-15(22)10-16(23)7-13/h4-11H,1-3H3,(H,24,25,26)

>  <source>  (300) 
ChEMBL25

>  <source_id>  (300) 
25

>  <optional_reference>  (300) 
10.1021/jm500697c

>  <optional_origin>  (300) 
None

>  <target>  (300) 
MDR1

$$$$

     RDKit          2D

 29 31  0  0  0  0  0  0  0  0999 V2000
    8.2233   -8.5206    0.0000 C   0  0  0  0  0  0  0  0  0  0  0  0
    9.0446   -8.5206    0.0000 C   0  0  0  0  0  0  0  0  0  0  0  0
    9.4532   -7.8088    0.0000 C   0  0  0  0  0  0  0  0  0  0  0  0
   10.2745   -7.8088    0.0000 C   0  0  0  0  0  0  0  0  0  0  0  0
   10.6873   -8.5206    0.0000 C   0  0  0  0  0  0  0  0  0  0  0  0
   10.2745   -9.2324    0.0000 C   0  0  0  0  0  0  0  0  0  0  0  0
    9.4532   -9.2324    0.0000 C   0  0  0  0  0  0  0  0  0  0  0  0
    7.8106   -9.2324    0.0000 O   0  0  0  0  0  0  0  0  0  0  0  0
    7.8106   -7.8088    0.0000 N   0  0  0  0  0  0  0  0  0  0  0  0
   10.6873   -9.9443    0.0000 O   0  0  0  0  0  0  0  0  0  0  0  0
   11.5086   -9.9443    0.0000 C   0  0  0  0  0  0  0  0  0  0  0  0
   11.5086   -8.5206    0.0000 O   0  0  0  0  0  0  0  0  0  0  0  0
   11.9172   -9.2324    0.0000 C   0  0  0  0  0  0  0  0  0  0  0  0
    9.0446   -7.1011    0.0000 O   0  0  0  0  0  0  0  0  0  0  0  0
    9.4532   -6.3892    0.0000 C   0  0  0  0  0  0  0  0  0  0  0  0
    6.9893   -7.8088    0.0000 C   0  0  0  0  0  0  0  0  0  0  0  0
    6.5807   -8.5206    0.0000 C   0  0  0  0  0  0  0  0  0  0  0  0
    5.7594   -8.5206    0.0000 C   0  0  0  0  0  0  0  0  0  0  0  0
    5.3466   -7.8088    0.0000 C   0  0  0  0  0  0  0  0  0  0  0  0
    5.7594   -7.1011    0.0000 C   0  0  0  0  0  0  0  0  0  0  0  0
    6.5807   -7.1011    0.0000 N   0  0  0  0  0  0  0  0  0  0  0  0
    4.5253   -7.8088    0.0000 C   0  0  0  0  0  0  0  0  0  0  0  0
    4.1167   -8.5206    0.0000 C   0  0  0  0  0  0  0  0  0  0  0  0
    3.2954   -8.5206    0.0000 C   0  0  0  0  0  0  0  0  0  0  0  0
    2.8827   -7.8088    0.0000 C   0  0  0  0  0  0  0  0  0  0  0  0
    3.2954   -7.1011    0.0000 C   0  0  0  0  0  0  0  0  0  0  0  0
    4.1167   -7.1011    0.0000 C   0  0  0  0  0  0  0  0  0  0  0  0
    2.8827   -6.3892    0.0000 F   0  0  0  0  0  0  0  0  0  0  0  0
    2.8827   -9.2324    0.0000 F   0  0  0  0  0  0  0  0  0  0  0  0
  1  2  1  0
  2  3  2  0
  3  4  1  0
  4  5  2  0
  5  6  1  0
  6  7  2  0
  2  7  1  0
  1  8  2  0
  1  9  1  0
 10 11  1  0
  6 10  1  0
 12 13  1  0
  5 12  1  0
 14 15  1  0
  3 14  1  0
 16 17  2  0
 17 18  1  0
 18 19  2  0
 19 20  1  0
 20 21  2  0
 16 21  1  0
 22 23  2  0
 23 24  1  0
 24 25  2  0
 25 26  1  0
 26 27  2  0
 22 27  1  0
 26 28  1  0
 24 29  1  0
 19 22  1  0
  9 16  1  0
M  END
>  <Classification>  (301) 
1

>  <pchembl>  (301) 
6.01

>  <InChI_steorem>  (301) 
InChI=1S/C21H18F2N2O4/c1-27-17-10-19(29-3)18(28-2)9-16(17)21(26)25-20-5-4-12(11-24-20)13-6-14(22)8-15(23)7-13/h4-11H,1-3H3,(H,24,25,26)

>  <source>  (301) 
ChEMBL25

>  <source_id>  (301) 
25

>  <optional_reference>  (301) 
10.1021/jm500697c

>  <optional_origin>  (301) 
None

>  <target>  (301) 
MDR1

$$$$

     RDKit          2D

 30 32  0  0  0  0  0  0  0  0999 V2000
    7.7549   -8.0749    0.0000 C   0  0  0  0  0  0  0  0  0  0  0  0
    8.5762   -8.0749    0.0000 C   0  0  0  0  0  0  0  0  0  0  0  0
    8.9848   -7.3630    0.0000 C   0  0  0  0  0  0  0  0  0  0  0  0
    9.8061   -7.3630    0.0000 C   0  0  0  0  0  0  0  0  0  0  0  0
   10.2188   -8.0749    0.0000 C   0  0  0  0  0  0  0  0  0  0  0  0
    9.8061   -8.7867    0.0000 C   0  0  0  0  0  0  0  0  0  0  0  0
    8.9848   -8.7867    0.0000 C   0  0  0  0  0  0  0  0  0  0  0  0
    7.3421   -8.7867    0.0000 O   0  0  0  0  0  0  0  0  0  0  0  0
    7.3421   -7.3630    0.0000 N   0  0  0  0  0  0  0  0  0  0  0  0
   10.2188   -9.4985    0.0000 O   0  0  0  0  0  0  0  0  0  0  0  0
   11.0401   -9.4985    0.0000 C   0  0  0  0  0  0  0  0  0  0  0  0
   11.0401   -8.0749    0.0000 O   0  0  0  0  0  0  0  0  0  0  0  0
   11.4487   -8.7867    0.0000 C   0  0  0  0  0  0  0  0  0  0  0  0
   10.2188   -6.6553    0.0000 O   0  0  0  0  0  0  0  0  0  0  0  0
   11.0401   -6.6553    0.0000 C   0  0  0  0  0  0  0  0  0  0  0  0
    4.8782   -7.3630    0.0000 C   0  0  0  0  0  0  0  0  0  0  0  0
    5.2909   -6.6553    0.0000 C   0  0  0  0  0  0  0  0  0  0  0  0
    6.1122   -6.6553    0.0000 C   0  0  0  0  0  0  0  0  0  0  0  0
    6.5208   -7.3630    0.0000 C   0  0  0  0  0  0  0  0  0  0  0  0
    6.1122   -8.0749    0.0000 C   0  0  0  0  0  0  0  0  0  0  0  0
    5.2909   -8.0749    0.0000 C   0  0  0  0  0  0  0  0  0  0  0  0
    4.0569   -7.3630    0.0000 C   0  0  0  0  0  0  0  0  0  0  0  0
    3.6483   -8.0749    0.0000 C   0  0  0  0  0  0  0  0  0  0  0  0
    2.8270   -8.0749    0.0000 C   0  0  0  0  0  0  0  0  0  0  0  0
    2.4142   -7.3630    0.0000 C   0  0  0  0  0  0  0  0  0  0  0  0
    2.8270   -6.6553    0.0000 C   0  0  0  0  0  0  0  0  0  0  0  0
    3.6483   -6.6553    0.0000 C   0  0  0  0  0  0  0  0  0  0  0  0
    2.4142   -5.9435    0.0000 F   0  0  0  0  0  0  0  0  0  0  0  0
    2.4142   -8.7867    0.0000 F   0  0  0  0  0  0  0  0  0  0  0  0
    6.5208   -5.9435    0.0000 N   0  0  0  0  0  0  0  0  0  0  0  0
  1  2  1  0
  2  3  2  0
  3  4  1  0
  4  5  2  0
  5  6  1  0
  6  7  2  0
  2  7  1  0
  1  8  2  0
  1  9  1  0
 10 11  1  0
  6 10  1  0
 12 13  1  0
  5 12  1  0
 14 15  1  0
  4 14  1  0
 16 17  2  0
 17 18  1  0
 18 19  2  0
 19 20  1  0
 20 21  2  0
 16 21  1  0
 22 23  2  0
 23 24  1  0
 24 25  2  0
 25 26  1  0
 26 27  2  0
 22 27  1  0
 16 22  1  0
 26 28  1  0
 24 29  1  0
 18 30  1  0
  9 19  1  0
M  END
>  <Classification>  (302) 
1

>  <pchembl>  (302) 
5.56

>  <InChI_steorem>  (302) 
InChI=1S/C22H20F2N2O4/c1-28-19-9-14(10-20(29-2)21(19)30-3)22(27)26-18-5-4-12(8-17(18)25)13-6-15(23)11-16(24)7-13/h4-11H,25H2,1-3H3,(H,26,27)

>  <source>  (302) 
ChEMBL25

>  <source_id>  (302) 
25

>  <optional_reference>  (302) 
10.1021/jm500697c

>  <optional_origin>  (302) 
None

>  <target>  (302) 
MDR1

$$$$

     RDKit          2D

 30 32  0  0  0  0  0  0  0  0999 V2000
    9.1924   -9.6634    0.0000 C   0  0  0  0  0  0  0  0  0  0  0  0
   10.0137   -9.6634    0.0000 C   0  0  0  0  0  0  0  0  0  0  0  0
   10.4223  -10.3753    0.0000 C   0  0  0  0  0  0  0  0  0  0  0  0
   11.2436  -10.3753    0.0000 C   0  0  0  0  0  0  0  0  0  0  0  0
   11.6563   -9.6634    0.0000 C   0  0  0  0  0  0  0  0  0  0  0  0
   11.2436   -8.9557    0.0000 C   0  0  0  0  0  0  0  0  0  0  0  0
   10.4223   -8.9557    0.0000 C   0  0  0  0  0  0  0  0  0  0  0  0
    8.7796   -8.9557    0.0000 O   0  0  0  0  0  0  0  0  0  0  0  0
    8.7796  -10.3753    0.0000 N   0  0  0  0  0  0  0  0  0  0  0  0
   11.6563   -8.2439    0.0000 O   0  0  0  0  0  0  0  0  0  0  0  0
   12.4776   -8.2439    0.0000 C   0  0  0  0  0  0  0  0  0  0  0  0
   12.4776   -9.6634    0.0000 O   0  0  0  0  0  0  0  0  0  0  0  0
   12.8862   -8.9557    0.0000 C   0  0  0  0  0  0  0  0  0  0  0  0
   10.0137  -11.0871    0.0000 O   0  0  0  0  0  0  0  0  0  0  0  0
   10.4223  -11.7989    0.0000 C   0  0  0  0  0  0  0  0  0  0  0  0
    6.3157  -10.3753    0.0000 C   0  0  0  0  0  0  0  0  0  0  0  0
    6.7284  -11.0871    0.0000 C   0  0  0  0  0  0  0  0  0  0  0  0
    7.5497  -11.0871    0.0000 C   0  0  0  0  0  0  0  0  0  0  0  0
    7.9583  -10.3753    0.0000 C   0  0  0  0  0  0  0  0  0  0  0  0
    7.5497   -9.6634    0.0000 C   0  0  0  0  0  0  0  0  0  0  0  0
    6.7284   -9.6634    0.0000 C   0  0  0  0  0  0  0  0  0  0  0  0
    5.4944  -10.3753    0.0000 C   0  0  0  0  0  0  0  0  0  0  0  0
    5.0858   -9.6634    0.0000 C   0  0  0  0  0  0  0  0  0  0  0  0
    4.2645   -9.6634    0.0000 C   0  0  0  0  0  0  0  0  0  0  0  0
    3.8517  -10.3753    0.0000 C   0  0  0  0  0  0  0  0  0  0  0  0
    4.2645  -11.0871    0.0000 C   0  0  0  0  0  0  0  0  0  0  0  0
    5.0858  -11.0871    0.0000 C   0  0  0  0  0  0  0  0  0  0  0  0
    3.0304  -10.3753    0.0000 O   0  0  0  0  0  0  0  0  0  0  0  0
    2.6218  -11.0871    0.0000 C   0  0  0  0  0  0  0  0  0  0  0  0
    7.9583  -11.7989    0.0000 F   0  0  0  0  0  0  0  0  0  0  0  0
  1  2  1  0
  2  3  2  0
  3  4  1  0
  4  5  2  0
  5  6  1  0
  6  7  2  0
  2  7  1  0
  1  8  2  0
  1  9  1  0
 10 11  1  0
  6 10  1  0
 12 13  1  0
  5 12  1  0
 14 15  1  0
  3 14  1  0
 16 17  2  0
 17 18  1  0
 18 19  2  0
 19 20  1  0
 20 21  2  0
 16 21  1  0
 22 23  2  0
 23 24  1  0
 24 25  2  0
 25 26  1  0
 26 27  2  0
 22 27  1  0
 16 22  1  0
 28 29  1  0
 25 28  1  0
 18 30  1  0
  9 19  1  0
M  END
>  <Classification>  (303) 
1

>  <pchembl>  (303) 
5.91

>  <InChI_steorem>  (303) 
InChI=1S/C23H22FNO5/c1-27-16-8-5-14(6-9-16)15-7-10-19(18(24)11-15)25-23(26)17-12-21(29-3)22(30-4)13-20(17)28-2/h5-13H,1-4H3,(H,25,26)

>  <source>  (303) 
ChEMBL25

>  <source_id>  (303) 
25

>  <optional_reference>  (303) 
10.1021/jm500697c

>  <optional_origin>  (303) 
None

>  <target>  (303) 
MDR1

$$$$

     RDKit          2D

 38 40  0  0  0  0  0  0  0  0999 V2000
    4.4239   -5.8158    0.0000 C   0  0  0  0  0  0  0  0  0  0  0  0
    5.1316   -5.4073    0.0000 C   0  0  0  0  0  0  0  0  0  0  0  0
    5.8393   -5.8158    0.0000 C   0  0  0  0  0  0  0  0  0  0  0  0
    6.5470   -5.4073    0.0000 C   0  0  0  0  0  0  0  0  0  0  0  0
    6.5470   -4.5901    0.0000 C   0  0  0  0  0  0  0  0  0  0  0  0
    5.8393   -4.1815    0.0000 C   0  0  0  0  0  0  0  0  0  0  0  0
    5.1316   -4.5901    0.0000 C   0  0  0  0  0  0  0  0  0  0  0  0
    3.7162   -5.4073    0.0000 O   0  0  0  0  0  0  0  0  0  0  0  0
    4.4239   -6.6330    0.0000 N   0  0  0  0  0  0  0  0  0  0  0  0
    5.8393   -3.3643    0.0000 O   0  0  0  0  0  0  0  0  0  0  0  0
    6.5470   -2.9557    0.0000 C   0  0  0  0  0  0  0  0  0  0  0  0
    7.2547   -4.1815    0.0000 O   0  0  0  0  0  0  0  0  0  0  0  0
    7.2547   -3.3643    0.0000 C   0  0  0  0  0  0  0  0  0  0  0  0
    7.2547   -5.8158    0.0000 O   0  0  0  0  0  0  0  0  0  0  0  0
    7.9624   -5.4073    0.0000 C   0  0  0  0  0  0  0  0  0  0  0  0
    2.3008   -7.8588    0.0000 C   0  0  0  0  0  0  0  0  0  0  0  0
    3.0085   -8.2674    0.0000 C   0  0  0  0  0  0  0  0  0  0  0  0
    3.7162   -7.8588    0.0000 C   0  0  0  0  0  0  0  0  0  0  0  0
    3.7162   -7.0416    0.0000 C   0  0  0  0  0  0  0  0  0  0  0  0
    3.0085   -6.6330    0.0000 C   0  0  0  0  0  0  0  0  0  0  0  0
    2.3008   -7.0416    0.0000 C   0  0  0  0  0  0  0  0  0  0  0  0
    1.5931   -8.2674    0.0000 C   0  0  0  0  0  0  0  0  0  0  0  0
    0.8854   -7.8588    0.0000 C   0  0  0  0  0  0  0  0  0  0  0  0
    0.1776   -8.2674    0.0000 C   0  0  0  0  0  0  0  0  0  0  0  0
    0.1776   -9.0846    0.0000 C   0  0  0  0  0  0  0  0  0  0  0  0
    0.8854   -9.4932    0.0000 C   0  0  0  0  0  0  0  0  0  0  0  0
    1.5931   -9.0846    0.0000 C   0  0  0  0  0  0  0  0  0  0  0  0
    0.8854  -10.3104    0.0000 F   0  0  0  0  0  0  0  0  0  0  0  0
   -0.5348   -7.8588    0.0000 F   0  0  0  0  0  0  0  0  0  0  0  0
    4.4239   -8.2674    0.0000 N   0  0  0  0  0  0  0  0  0  0  0  0
    4.4239   -9.0846    0.0000 C   0  0  0  0  0  0  0  0  0  0  0  0
    5.1316   -9.4932    0.0000 C   0  0  0  0  0  0  0  0  0  0  0  0
    3.7162   -9.4932    0.0000 O   0  0  0  0  0  0  0  0  0  0  0  0
    5.1316  -10.3104    0.0000 C   0  0  0  0  0  0  0  0  0  0  0  0
    5.8393   -9.0846    0.0000 N   0  0  0  0  0  0  0  0  0  0  0  0
    6.5470   -9.4932    0.0000 C   0  0  0  0  0  0  0  0  0  0  0  0
    7.2547   -9.0846    0.0000 C   0  0  0  0  0  0  0  0  0  0  0  0
    6.5470  -10.3104    0.0000 O   0  0  0  0  0  0  0  0  0  0  0  0
  1  2  1  0
  2  3  2  0
  3  4  1  0
  4  5  2  0
  5  6  1  0
  6  7  2  0
  2  7  1  0
  1  8  2  0
  1  9  1  0
 10 11  1  0
  6 10  1  0
 12 13  1  0
  5 12  1  0
 14 15  1  0
  4 14  1  0
 16 17  2  0
 17 18  1  0
 18 19  2  0
 19 20  1  0
 20 21  2  0
 16 21  1  0
 22 23  2  0
 23 24  1  0
 24 25  2  0
 25 26  1  0
 26 27  2  0
 22 27  1  0
 16 22  1  0
 26 28  1  0
 24 29  1  0
 18 30  1  0
  9 19  1  0
 30 31  1  0
 31 32  1  0
 31 33  2  0
 32 34  1  0
 32 35  1  0
 35 36  1  0
 36 37  1  0
 36 38  2  0
M  END
>  <Classification>  (304) 
0

>  <pchembl>  (304) 
4.73

>  <InChI_steorem>  (304) 
InChI=1S/C27H27F2N3O6/c1-14(30-15(2)33)26(34)32-22-10-16(17-8-19(28)13-20(29)9-17)6-7-21(22)31-27(35)18-11-23(36-3)25(38-5)24(12-18)37-4/h6-14H,1-5H3,(H,30,33)(H,31,35)(H,32,34)

>  <source>  (304) 
ChEMBL25

>  <source_id>  (304) 
25

>  <optional_reference>  (304) 
10.1021/jm500697c

>  <optional_origin>  (304) 
None

>  <target>  (304) 
MDR1

$$$$

     RDKit          2D

 44 47  0  0  0  0  0  0  0  0999 V2000
   17.5608  -27.6204    0.0000 C   0  0  0  0  0  0  0  0  0  0  0  0
   18.2726  -27.2076    0.0000 C   0  0  0  0  0  0  0  0  0  0  0  0
   18.9845  -27.6202    0.0000 C   0  0  0  0  0  0  0  0  0  0  0  0
   18.9846  -28.4415    0.0000 C   0  0  0  0  0  0  0  0  0  0  0  0
   18.2728  -28.8502    0.0000 C   0  0  0  0  0  0  0  0  0  0  0  0
   18.2729  -29.6715    0.0000 C   0  0  0  0  0  0  0  0  0  0  0  0
   17.5611  -30.0843    0.0000 C   0  0  0  0  0  0  0  0  0  0  0  0
   17.5612  -30.9056    0.0000 C   0  0  0  0  0  0  0  0  0  0  0  0
   16.8535  -31.3143    0.0000 C   0  0  0  0  0  0  0  0  0  0  0  0
   16.1416  -30.9058    0.0000 C   0  0  0  0  0  0  0  0  0  0  0  0
   16.1415  -30.0845    0.0000 C   0  0  0  0  0  0  0  0  0  0  0  0
   16.8533  -29.6717    0.0000 C   0  0  0  0  0  0  0  0  0  0  0  0
   16.8532  -28.8503    0.0000 C   0  0  0  0  0  0  0  0  0  0  0  0
   17.5609  -28.4417    0.0000 C   0  0  0  0  0  0  0  0  0  0  0  0
   16.1413  -28.4418    0.0000 C   0  0  0  0  0  0  0  0  0  0  0  0
   16.1413  -27.6205    0.0000 O   0  0  0  0  0  0  0  0  0  0  0  0
   15.4296  -28.8505    0.0000 O   0  0  0  0  0  0  0  0  0  0  0  0
   14.7177  -28.4420    0.0000 C   0  0  0  0  0  0  0  0  0  0  0  0
   14.7176  -27.6207    0.0000 C   0  0  0  0  0  0  0  0  0  0  0  0
   14.0057  -27.2080    0.0000 C   0  0  0  0  0  0  0  0  0  0  0  0
   14.0056  -26.3867    0.0000 C   0  0  0  0  0  0  0  0  0  0  0  0
   13.2937  -25.9782    0.0000 C   0  0  0  0  0  0  0  0  0  0  0  0
   13.2936  -25.1569    0.0000 N   0  0  0  0  0  0  0  0  0  0  0  0
   12.5818  -24.7442    0.0000 C   0  0  0  0  0  0  0  0  0  0  0  0
   12.5817  -23.9229    0.0000 C   0  0  0  0  0  0  0  0  0  0  0  0
   11.8698  -23.5103    0.0000 C   0  0  0  0  0  0  0  0  0  0  0  0
   11.8697  -22.6890    0.0000 O   0  0  0  0  0  0  0  0  0  0  0  0
   11.1619  -22.2804    0.0000 C   0  0  0  0  0  0  0  0  0  0  0  0
   10.4502  -22.6891    0.0000 C   0  0  0  0  0  0  0  0  0  0  0  0
    9.7383  -22.2806    0.0000 C   0  0  0  0  0  0  0  0  0  0  0  0
   11.1619  -21.4591    0.0000 O   0  0  0  0  0  0  0  0  0  0  0  0
    9.0265  -22.6893    0.0000 C   0  0  0  0  0  0  0  0  0  0  0  0
    9.0266  -23.5106    0.0000 C   0  0  0  0  0  0  0  0  0  0  0  0
    8.3148  -23.9234    0.0000 C   0  0  0  0  0  0  0  0  0  0  0  0
    7.6029  -23.5108    0.0000 C   0  0  0  0  0  0  0  0  0  0  0  0
    7.6028  -22.6894    0.0000 C   0  0  0  0  0  0  0  0  0  0  0  0
    8.3146  -22.2808    0.0000 C   0  0  0  0  0  0  0  0  0  0  0  0
    6.8909  -22.2809    0.0000 O   0  0  0  0  0  0  0  0  0  0  0  0
    6.1833  -22.6896    0.0000 C   0  0  0  0  0  0  0  0  0  0  0  0
    6.8911  -23.9236    0.0000 O   0  0  0  0  0  0  0  0  0  0  0  0
    6.1834  -23.5109    0.0000 C   0  0  0  0  0  0  0  0  0  0  0  0
    8.3149  -24.7447    0.0000 O   0  0  0  0  0  0  0  0  0  0  0  0
    7.6031  -25.1575    0.0000 C   0  0  0  0  0  0  0  0  0  0  0  0
   14.0054  -24.7441    0.0000 C   0  0  0  0  0  0  0  0  0  0  0  0
  1  2  2  0
  2  3  1  0
  3  4  2  0
  4  5  1  0
  5  6  2  0
  6  7  1  0
  7  8  2  0
  8  9  1  0
  9 10  2  0
 10 11  1  0
 11 12  2  0
  7 12  1  0
 12 13  1  0
 13 14  2  0
  5 14  1  0
  1 14  1  0
 15 16  2  0
 15 17  1  0
 13 15  1  0
 18 19  1  0
 19 20  1  0
 20 21  1  0
 21 22  1  0
 24 25  1  0
 25 26  1  0
 28 29  1  0
 29 30  2  3
 28 31  2  0
 32 33  2  0
 33 34  1  0
 34 35  2  0
 35 36  1  0
 36 37  2  0
 32 37  1  0
 38 39  1  0
 36 38  1  0
 40 41  1  0
 35 40  1  0
 42 43  1  0
 34 42  1  0
 30 32  1  0
 27 28  1  0
 26 27  1  0
 23 24  1  0
 23 44  1  0
 22 23  1  0
 17 18  1  0
M  END
>  <Classification>  (305) 
1

>  <pchembl>  (305) 
7.96

>  <InChI_steorem>  (305) 
InChI=1S/C36H41NO7/c1-37(20-12-22-43-33(38)18-17-26-23-31(40-2)35(42-4)32(24-26)41-3)19-10-5-11-21-44-36(39)34-29-15-8-6-13-27(29)25-28-14-7-9-16-30(28)34/h6-9,13-18,23-25H,5,10-12,19-22H2,1-4H3

>  <source>  (305) 
ChEMBL25

>  <source_id>  (305) 
25

>  <optional_reference>  (305) 
10.1016/j.ejmech.2014.09.084

>  <optional_origin>  (305) 
None

>  <target>  (305) 
MDR1

$$$$

     RDKit          2D

 44 47  0  0  0  0  0  0  0  0999 V2000
    5.3339  -24.4187    0.0000 C   0  0  0  0  0  0  0  0  0  0  0  0
    4.6221  -24.8273    0.0000 C   0  0  0  0  0  0  0  0  0  0  0  0
    3.9102  -24.4187    0.0000 C   0  0  0  0  0  0  0  0  0  0  0  0
    3.9102  -23.5974    0.0000 C   0  0  0  0  0  0  0  0  0  0  0  0
    4.6221  -23.1847    0.0000 C   0  0  0  0  0  0  0  0  0  0  0  0
    4.6221  -22.3634    0.0000 C   0  0  0  0  0  0  0  0  0  0  0  0
    5.3339  -21.9548    0.0000 C   0  0  0  0  0  0  0  0  0  0  0  0
    5.3339  -21.1335    0.0000 C   0  0  0  0  0  0  0  0  0  0  0  0
    6.0457  -20.7207    0.0000 C   0  0  0  0  0  0  0  0  0  0  0  0
    6.7576  -21.1335    0.0000 C   0  0  0  0  0  0  0  0  0  0  0  0
    6.7576  -21.9548    0.0000 C   0  0  0  0  0  0  0  0  0  0  0  0
    6.0457  -22.3634    0.0000 C   0  0  0  0  0  0  0  0  0  0  0  0
    6.0457  -23.1847    0.0000 C   0  0  0  0  0  0  0  0  0  0  0  0
    5.3339  -23.5974    0.0000 C   0  0  0  0  0  0  0  0  0  0  0  0
    6.7576  -23.5974    0.0000 C   0  0  0  0  0  0  0  0  0  0  0  0
    6.7576  -24.4187    0.0000 O   0  0  0  0  0  0  0  0  0  0  0  0
    7.4653  -23.1847    0.0000 O   0  0  0  0  0  0  0  0  0  0  0  0
    8.1771  -23.5974    0.0000 C   0  0  0  0  0  0  0  0  0  0  0  0
    8.8890  -23.1847    0.0000 C   0  0  0  0  0  0  0  0  0  0  0  0
    9.6008  -23.5974    0.0000 C   0  0  0  0  0  0  0  0  0  0  0  0
   10.3126  -23.1847    0.0000 N   0  0  0  0  0  0  0  0  0  0  0  0
   10.3126  -22.3634    0.0000 C   0  0  0  0  0  0  0  0  0  0  0  0
   11.0245  -21.9548    0.0000 C   0  0  0  0  0  0  0  0  0  0  0  0
   11.7363  -22.3634    0.0000 C   0  0  0  0  0  0  0  0  0  0  0  0
   12.4481  -21.9548    0.0000 C   0  0  0  0  0  0  0  0  0  0  0  0
   13.1558  -22.3634    0.0000 C   0  0  0  0  0  0  0  0  0  0  0  0
   13.8677  -21.9548    0.0000 O   0  0  0  0  0  0  0  0  0  0  0  0
   14.5795  -22.3634    0.0000 C   0  0  0  0  0  0  0  0  0  0  0  0
   15.2913  -21.9548    0.0000 C   0  0  0  0  0  0  0  0  0  0  0  0
   16.0032  -22.3634    0.0000 C   0  0  0  0  0  0  0  0  0  0  0  0
   14.5795  -23.1847    0.0000 O   0  0  0  0  0  0  0  0  0  0  0  0
   16.7150  -21.9548    0.0000 C   0  0  0  0  0  0  0  0  0  0  0  0
   16.7150  -21.1335    0.0000 C   0  0  0  0  0  0  0  0  0  0  0  0
   17.4268  -20.7207    0.0000 C   0  0  0  0  0  0  0  0  0  0  0  0
   18.1346  -21.1335    0.0000 C   0  0  0  0  0  0  0  0  0  0  0  0
   18.1346  -21.9548    0.0000 C   0  0  0  0  0  0  0  0  0  0  0  0
   17.4268  -22.3634    0.0000 C   0  0  0  0  0  0  0  0  0  0  0  0
   18.8464  -22.3634    0.0000 O   0  0  0  0  0  0  0  0  0  0  0  0
   19.5582  -21.9548    0.0000 C   0  0  0  0  0  0  0  0  0  0  0  0
   18.8464  -20.7207    0.0000 O   0  0  0  0  0  0  0  0  0  0  0  0
   19.5582  -21.1335    0.0000 C   0  0  0  0  0  0  0  0  0  0  0  0
   17.4268  -19.8994    0.0000 O   0  0  0  0  0  0  0  0  0  0  0  0
   18.1346  -19.4908    0.0000 C   0  0  0  0  0  0  0  0  0  0  0  0
   11.0245  -23.5974    0.0000 C   0  0  0  0  0  0  0  0  0  0  0  0
  1  2  2  0
  2  3  1  0
  3  4  2  0
  4  5  1  0
  5  6  2  0
  6  7  1  0
  7  8  2  0
  8  9  1  0
  9 10  2  0
 10 11  1  0
 11 12  2  0
  7 12  1  0
 12 13  1  0
 13 14  2  0
  5 14  1  0
  1 14  1  0
 15 16  2  0
 15 17  1  0
 13 15  1  0
 18 19  1  0
 19 20  1  0
 22 23  1  0
 23 24  1  0
 24 25  1  0
 25 26  1  0
 28 29  1  0
 29 30  2  3
 28 31  2  0
 32 33  2  0
 33 34  1  0
 34 35  2  0
 35 36  1  0
 36 37  2  0
 32 37  1  0
 38 39  1  0
 36 38  1  0
 40 41  1  0
 35 40  1  0
 42 43  1  0
 34 42  1  0
 30 32  1  0
 27 28  1  0
 26 27  1  0
 21 22  1  0
 21 44  1  0
 20 21  1  0
 17 18  1  0
M  END
>  <Classification>  (306) 
1

>  <pchembl>  (306) 
7.52

>  <InChI_steorem>  (306) 
InChI=1S/C36H41NO7/c1-37(19-10-5-11-21-43-33(38)18-17-26-23-31(40-2)35(42-4)32(24-26)41-3)20-12-22-44-36(39)34-29-15-8-6-13-27(29)25-28-14-7-9-16-30(28)34/h6-9,13-18,23-25H,5,10-12,19-22H2,1-4H3

>  <source>  (306) 
ChEMBL25

>  <source_id>  (306) 
25

>  <optional_reference>  (306) 
10.1016/j.ejmech.2014.09.084

>  <optional_origin>  (306) 
None

>  <target>  (306) 
MDR1

$$$$

     RDKit          2D

 44 47  0  0  0  0  0  0  0  0999 V2000
    6.3343  -23.8422    0.0000 C   0  0  0  0  0  0  0  0  0  0  0  0
    5.9257  -24.5540    0.0000 C   0  0  0  0  0  0  0  0  0  0  0  0
    5.1044  -24.5540    0.0000 C   0  0  0  0  0  0  0  0  0  0  0  0
    4.6917  -23.8422    0.0000 C   0  0  0  0  0  0  0  0  0  0  0  0
    5.1044  -23.1304    0.0000 C   0  0  0  0  0  0  0  0  0  0  0  0
    4.6917  -22.4185    0.0000 C   0  0  0  0  0  0  0  0  0  0  0  0
    5.1044  -21.7067    0.0000 C   0  0  0  0  0  0  0  0  0  0  0  0
    4.6917  -20.9990    0.0000 C   0  0  0  0  0  0  0  0  0  0  0  0
    5.1044  -20.2872    0.0000 C   0  0  0  0  0  0  0  0  0  0  0  0
    5.9257  -20.2872    0.0000 C   0  0  0  0  0  0  0  0  0  0  0  0
    6.3343  -20.9990    0.0000 C   0  0  0  0  0  0  0  0  0  0  0  0
    5.9257  -21.7067    0.0000 C   0  0  0  0  0  0  0  0  0  0  0  0
    6.3343  -22.4185    0.0000 C   0  0  0  0  0  0  0  0  0  0  0  0
    5.9257  -23.1304    0.0000 C   0  0  0  0  0  0  0  0  0  0  0  0
    7.1556  -22.4185    0.0000 C   0  0  0  0  0  0  0  0  0  0  0  0
    7.5683  -23.1304    0.0000 O   0  0  0  0  0  0  0  0  0  0  0  0
    7.5683  -21.7067    0.0000 O   0  0  0  0  0  0  0  0  0  0  0  0
    8.3896  -21.7067    0.0000 C   0  0  0  0  0  0  0  0  0  0  0  0
    8.7982  -22.4185    0.0000 C   0  0  0  0  0  0  0  0  0  0  0  0
    9.6196  -22.4185    0.0000 C   0  0  0  0  0  0  0  0  0  0  0  0
   10.0323  -23.1304    0.0000 C   0  0  0  0  0  0  0  0  0  0  0  0
   10.8536  -23.1304    0.0000 N   0  0  0  0  0  0  0  0  0  0  0  0
   11.2622  -22.4185    0.0000 C   0  0  0  0  0  0  0  0  0  0  0  0
   12.0835  -22.4185    0.0000 C   0  0  0  0  0  0  0  0  0  0  0  0
   12.4962  -23.1304    0.0000 C   0  0  0  0  0  0  0  0  0  0  0  0
   13.3176  -23.1304    0.0000 C   0  0  0  0  0  0  0  0  0  0  0  0
   13.7262  -23.8422    0.0000 O   0  0  0  0  0  0  0  0  0  0  0  0
   14.5475  -23.8422    0.0000 C   0  0  0  0  0  0  0  0  0  0  0  0
   14.9602  -23.1304    0.0000 C   0  0  0  0  0  0  0  0  0  0  0  0
   15.7815  -23.1304    0.0000 C   0  0  0  0  0  0  0  0  0  0  0  0
   14.9602  -24.5540    0.0000 O   0  0  0  0  0  0  0  0  0  0  0  0
   16.1901  -22.4185    0.0000 C   0  0  0  0  0  0  0  0  0  0  0  0
   15.7815  -21.7067    0.0000 C   0  0  0  0  0  0  0  0  0  0  0  0
   16.1901  -20.9990    0.0000 C   0  0  0  0  0  0  0  0  0  0  0  0
   17.0114  -20.9990    0.0000 C   0  0  0  0  0  0  0  0  0  0  0  0
   17.4241  -21.7067    0.0000 C   0  0  0  0  0  0  0  0  0  0  0  0
   17.0114  -22.4185    0.0000 C   0  0  0  0  0  0  0  0  0  0  0  0
   18.2455  -21.7067    0.0000 O   0  0  0  0  0  0  0  0  0  0  0  0
   18.6541  -20.9990    0.0000 C   0  0  0  0  0  0  0  0  0  0  0  0
   17.4241  -20.2872    0.0000 O   0  0  0  0  0  0  0  0  0  0  0  0
   18.2455  -20.2872    0.0000 C   0  0  0  0  0  0  0  0  0  0  0  0
   15.7815  -20.2872    0.0000 O   0  0  0  0  0  0  0  0  0  0  0  0
   16.1901  -19.5753    0.0000 C   0  0  0  0  0  0  0  0  0  0  0  0
   11.2622  -23.8422    0.0000 C   0  0  0  0  0  0  0  0  0  0  0  0
  1  2  2  0
  2  3  1  0
  3  4  2  0
  4  5  1  0
  5  6  2  0
  6  7  1  0
  7  8  2  0
  8  9  1  0
  9 10  2  0
 10 11  1  0
 11 12  2  0
  7 12  1  0
 12 13  1  0
 13 14  2  0
  5 14  1  0
  1 14  1  0
 15 16  2  0
 15 17  1  0
 13 15  1  0
 18 19  1  0
 19 20  1  0
 20 21  1  0
 23 24  1  0
 24 25  1  0
 25 26  1  0
 28 29  1  0
 29 30  2  3
 28 31  2  0
 32 33  2  0
 33 34  1  0
 34 35  2  0
 35 36  1  0
 36 37  2  0
 32 37  1  0
 38 39  1  0
 36 38  1  0
 40 41  1  0
 35 40  1  0
 42 43  1  0
 34 42  1  0
 30 32  1  0
 27 28  1  0
 26 27  1  0
 22 23  1  0
 22 44  1  0
 21 22  1  0
 17 18  1  0
M  END
>  <Classification>  (307) 
1

>  <pchembl>  (307) 
7.66

>  <InChI_steorem>  (307) 
InChI=1S/C36H41NO7/c1-37(19-9-11-21-43-33(38)18-17-26-23-31(40-2)35(42-4)32(24-26)41-3)20-10-12-22-44-36(39)34-29-15-7-5-13-27(29)25-28-14-6-8-16-30(28)34/h5-8,13-18,23-25H,9-12,19-22H2,1-4H3

>  <source>  (307) 
ChEMBL25

>  <source_id>  (307) 
25

>  <optional_reference>  (307) 
10.1016/j.ejmech.2014.09.084

>  <optional_origin>  (307) 
None

>  <target>  (307) 
MDR1

$$$$

     RDKit          2D

 95 96  0  1  0  0  0  0  0  0999 V2000
    2.7713   -0.4717    0.0000 O   0  0  0  0  0  0  0  0  0  0  0  0
    2.8677   -2.8787    0.0000 C   0  0  0  0  0  0  0  0  0  0  0  0
    2.1554   -0.8269    0.0000 O   0  0  0  0  0  0  0  0  0  0  0  0
    2.1554   -3.2959    0.0000 C   0  0  0  0  0  0  0  0  0  0  0  0
    0.7251   -3.2959    0.0000 C   0  0  0  0  0  0  0  0  0  0  0  0
    1.4412   -2.8787    0.0000 C   0  0  0  0  0  0  0  0  0  0  0  0
    0.7251   -0.8269    0.0000 C   0  0  0  0  0  0  0  0  0  0  0  0
    0.0172   -2.8787    0.0000 O   0  0  0  0  0  0  0  0  0  0  0  0
   -2.1293   -0.8269    0.0000 C   0  0  0  0  0  0  0  0  0  0  0  0
   -1.4216    0.4179    0.0000 C   0  0  0  0  0  0  0  0  0  0  0  0
   -1.4216   -0.4173    0.0000 C   0  0  0  0  0  0  0  0  0  0  0  0
   -0.7081   -0.8269    0.0000 C   0  0  0  0  0  0  0  0  0  0  0  0
   -2.1293   -1.6453    0.0000 C   0  0  0  0  0  0  0  0  0  0  0  0
   -0.7070   -4.4762    0.0000 O   0  0  0  0  0  0  0  0  0  0  0  0
   -2.0924   -3.6075    0.0000 C   0  0  0  0  0  0  0  0  0  0  0  0
   -3.5075   -3.5718    0.0000 C   0  0  0  0  0  0  0  0  0  0  0  0
   -2.8164   -3.9999    0.0000 C   0  0  0  0  0  0  0  0  0  0  0  0
   -2.8303   -4.8220    0.0000 C   0  0  0  0  0  0  0  0  0  0  0  0
   -2.8415   -6.4881    0.0000 C   0  0  0  0  0  0  0  0  0  0  0  0
   -1.4216   -7.3069    0.0000 O   0  0  0  0  0  0  0  0  0  0  0  0
   -0.7081   -5.2508    0.0000 C   0  0  0  0  0  0  0  0  0  0  0  0
    0.7251   -5.2508    0.0000 O   0  0  0  0  0  0  0  0  0  0  0  0
    1.4412   -7.3069    0.0000 C   0  0  0  0  0  0  0  0  0  0  0  0
    2.8677   -7.3069    0.0000 O   0  0  0  0  0  0  0  0  0  0  0  0
    2.1554   -5.2508    0.0000 C   0  0  0  0  0  0  0  0  0  0  0  0
    2.8677   -4.0145    0.0000 C   0  0  0  0  0  0  0  0  0  0  0  0
    2.8677   -4.8412    0.0000 C   0  0  0  0  0  0  0  0  0  0  0  0
    3.5842   -5.2508    0.0000 C   0  0  0  0  0  0  0  0  0  0  0  0
    4.2932   -7.3069    0.0000 C   0  0  0  0  0  0  0  0  0  0  0  0
    5.0057   -5.2508    0.0000 O   0  0  0  0  0  0  0  0  0  0  0  0
    6.4344   -7.7287    0.0000 C   0  0  0  0  0  0  0  0  0  0  0  0
    5.0057   -7.7287    0.0000 C   0  0  0  0  0  0  0  0  0  0  0  0
    5.7225   -7.3069    0.0000 C   0  0  0  0  0  0  0  0  0  0  0  0
    7.1518   -7.3069    0.0000 O   0  0  0  0  0  0  0  0  0  0  0  0
    8.6912   -4.5873    0.0000 C   0  0  0  0  0  0  0  0  0  0  0  0
    8.5772   -2.8787    0.0000 O   0  0  0  0  0  0  0  0  0  0  0  0
    7.8922   -2.4420    0.0000 C   0  0  0  0  0  0  0  0  0  0  0  0
    7.8602   -1.6453    0.0000 C   0  0  0  0  0  0  0  0  0  0  0  0
    6.4344   -0.8269    0.0000 O   0  0  0  0  0  0  0  0  0  0  0  0
    4.2932   -2.8787    0.0000 O   0  0  0  0  0  0  0  0  0  0  0  0
    4.2932   -2.0594    0.0000 C   0  0  0  0  0  0  0  0  0  0  0  0
    6.4344   -3.2959    0.0000 C   0  0  0  0  0  0  0  0  0  0  0  0
    5.7225   -2.8787    0.0000 C   0  0  0  0  0  0  0  0  0  0  0  0
    5.7225   -2.0594    0.0000 C   0  0  0  0  0  0  0  0  0  0  0  0
    6.4344   -1.6453    0.0000 C   0  0  0  0  0  0  0  0  0  0  0  0
    7.1518   -2.0594    0.0000 N   0  0  0  0  0  0  0  0  0  0  0  0
    7.1518   -2.8787    0.0000 C   0  0  0  0  0  0  0  0  0  0  0  0
    7.8602   -3.2959    0.0000 C   0  0  0  0  0  0  0  0  0  0  0  0
    7.8602   -4.5873    0.0000 N   0  0  0  0  0  0  0  0  0  0  0  0
    8.5762   -7.3445    0.0000 C   0  0  0  0  0  0  0  0  0  0  0  0
    8.5772   -6.4881    0.0000 C   0  0  0  0  0  0  0  0  0  0  0  0
    7.8602   -6.0785    0.0000 C   0  0  0  0  0  0  0  0  0  0  0  0
    7.1518   -6.4881    0.0000 C   0  0  0  0  0  0  0  0  0  0  0  0
    6.4344   -6.0785    0.0000 N   0  0  0  0  0  0  0  0  0  0  0  0
    5.7225   -6.4881    0.0000 C   0  0  0  0  0  0  0  0  0  0  0  0
    5.0057   -6.0785    0.0000 C   0  0  0  0  0  0  0  0  0  0  0  0
    4.2932   -6.4881    0.0000 N   0  0  0  0  0  0  0  0  0  0  0  0
    3.5842   -6.0785    0.0000 C   0  0  0  0  0  0  0  0  0  0  0  0
    2.8677   -6.4881    0.0000 C   0  0  0  0  0  0  0  0  0  0  0  0
    2.1554   -6.0785    0.0000 N   0  0  0  0  0  0  0  0  0  0  0  0
    1.4412   -6.4881    0.0000 C   0  0  0  0  0  0  0  0  0  0  0  0
    0.7251   -6.0785    0.0000 C   0  0  0  0  0  0  0  0  0  0  0  0
    0.0172   -6.4881    0.0000 N   0  0  0  0  0  0  0  0  0  0  0  0
   -0.7081   -6.0785    0.0000 C   0  0  0  0  0  0  0  0  0  0  0  0
   -1.4216   -6.4881    0.0000 C   0  0  0  0  0  0  0  0  0  0  0  0
   -2.1293   -6.0785    0.0000 N   0  0  0  0  0  0  0  0  0  0  0  0
   -2.1293   -5.2508    0.0000 C   0  0  0  0  0  0  0  0  0  0  0  0
   -1.4216   -4.8901    0.0000 C   0  0  0  0  0  0  0  0  0  0  0  0
   -1.4216   -2.0594    0.0000 N   0  0  0  0  0  0  0  0  0  0  0  0
   -0.7081   -1.6453    0.0000 C   0  0  0  0  0  0  0  0  0  0  0  0
    0.0172   -2.0594    0.0000 C   0  0  0  0  0  0  0  0  0  0  0  0
    0.7251   -1.6453    0.0000 N   0  0  0  0  0  0  0  0  0  0  0  0
    1.4412   -2.0594    0.0000 C   0  0  0  0  0  0  0  0  0  0  0  0
    2.1554   -1.6453    0.0000 C   0  0  0  0  0  0  0  0  0  0  0  0
    2.8677   -2.0594    0.0000 N   0  0  0  0  0  0  0  0  0  0  0  0
    3.5842   -1.6453    0.0000 C   0  0  0  0  0  0  0  0  0  0  0  0
    5.0057   -0.8269    0.0000 C   0  0  0  0  0  0  0  0  0  0  0  0
    2.8677    2.0694    0.0000 C   0  0  0  0  0  0  0  0  0  0  0  0
    3.5842    1.6556    0.0000 C   0  0  0  0  0  0  0  0  0  0  0  0
    3.5842    0.8400    0.0000 C   0  0  0  0  0  0  0  0  0  0  0  0
    4.2932    0.4178    0.0000 C   0  0  0  0  0  0  0  0  0  0  0  0
    4.2932   -0.4173    0.0000 C   0  0  0  0  0  0  0  0  0  0  0  0
    3.5842   -0.8269    0.0000 C   0  0  0  0  0  0  0  0  0  0  0  0
    5.0057   -1.6458    0.0000 N   0  0  0  0  0  0  0  0  0  0  0  0
    9.2890   -6.0867    0.0000 C   0  0  0  0  0  0  0  0  0  0  0  0
   10.7730   -6.0798    0.0000 C   0  0  0  0  0  0  0  0  0  0  0  0
   10.0281   -6.5111    0.0000 N   0  0  0  0  0  0  0  0  0  0  0  0
   10.0292   -7.3672    0.0000 C   0  0  0  0  0  0  0  0  0  0  0  0
   10.7735   -7.7984    0.0000 C   0  0  0  0  0  0  0  0  0  0  0  0
   11.5185   -7.3670    0.0000 N   0  0  0  0  0  0  0  0  0  0  0  0
   11.5191   -6.5045    0.0000 C   0  0  0  0  0  0  0  0  0  0  0  0
   12.2616   -7.7959    0.0000 C   0  0  0  0  0  0  0  0  0  0  0  0
   12.2618   -8.6539    0.0000 C   0  0  0  0  0  0  0  0  0  0  0  0
   13.0050   -9.0827    0.0000 O   0  0  0  0  0  0  0  0  0  0  0  0
   13.0052   -9.9407    0.0000 C   0  0  0  0  0  0  0  0  0  0  0  0
 83 82  1  0
 76 83  1  0
 83  1  1  0
 82 81  1  0
 82 77  1  0
 81 80  1  0
 80 79  2  3
 79 78  1  0
 76 75  1  0
 76 41  1  0
 74 75  1  0
 75  2  1  0
 73 74  1  0
 74  3  2  0
 72 73  1  0
 73  6  1  0
 71 72  1  0
 72  7  1  0
 70 71  1  0
 71  8  2  0
 69 70  1  0
 70 12  1  0
 69 68  1  0
 69 13  1  0
 67 68  1  0
 68 14  2  0
 66 67  1  0
 67 18  1  0
 65 66  1  0
 66 19  1  0
 64 65  1  0
 65 20  2  0
 63 64  1  0
 64 21  1  0
 62 63  1  0
 61 62  1  0
 62 22  2  0
 60 61  1  0
 61 23  1  0
 59 60  1  0
 58 59  1  0
 59 24  2  0
 57 58  1  0
 58 28  1  0
 56 57  1  0
 57 29  1  0
 55 56  1  0
 56 30  2  0
 54 55  1  0
 55 33  1  0
 53 54  1  0
 53 52  1  0
 53 34  2  0
 52 51  1  0
 52 49  1  0
 51 85  1  0
 51 50  1  0
 48 49  1  0
 49 35  1  0
 47 48  1  0
 48 36  2  0
 46 47  1  0
 47 37  1  0
 45 46  1  0
 46 38  1  0
 44 45  1  0
 45 39  2  0
 44 43  1  0
 84 44  1  0
 43 42  1  0
 41 40  2  0
 41 84  1  0
 33 32  1  0
 33 31  1  0
 28 27  1  0
 27 26  1  0
 27 25  1  0
 18 17  1  0
 17 16  1  0
 17 15  1  0
 12 11  1  0
 11 10  1  0
 11  9  1  0
  6  5  1  0
  6  4  1  0
 87 85  1  0
 86 87  1  0
 86 91  1  0
 87 88  1  0
 88 89  1  0
 89 90  1  0
 90 91  1  0
 90 92  1  0
 92 93  1  0
 93 94  1  0
 94 95  1  0
M  STY  1   1 SUP
M  SLB  1   1   1
M  SAL   1  1  84
M  SBL   1  2  69  72
M  SMT   1 N
M  END
>  <Classification>  (308) 
1

>  <pchembl>  (308) 
5.2

>  <InChI_steorem>  (308) 
InChI=1S/C69H125N13O13/c1-26-28-29-45(13)58(83)57-62(87)72-50(27-2)65(90)74(18)49(17)64(89)79(23)56(46(14)39-82-32-30-81(31-33-82)34-35-95-25)61(86)73-54(43(9)10)68(93)75(19)51(36-40(3)4)60(85)70-47(15)59(84)71-48(16)63(88)76(20)52(37-41(5)6)66(91)77(21)53(38-42(7)8)67(92)78(22)55(44(11)12)69(94)80(57)24/h26,28,40-58,83H,27,29-39H2,1-25H3,(H,70,85)(H,71,84)(H,72,87)(H,73,86)

>  <source>  (308) 
ChEMBL25

>  <source_id>  (308) 
25

>  <optional_reference>  (308) 
10.1021/jm500862r

>  <optional_origin>  (308) 
None

>  <target>  (308) 
MDR1

$$$$

     RDKit          2D

 46 49  0  0  0  0  0  0  0  0999 V2000
    4.1470   -8.1099    0.0000 O   0  0  0  0  0  0  0  0  0  0  0  0
    1.2941   -4.0516    0.0000 O   0  0  0  0  0  0  0  0  0  0  0  0
   -2.6158   -7.1901    0.0000 O   0  0  0  0  0  0  0  0  0  0  0  0
    9.0826   -9.4710    0.0000 O   0  0  0  0  0  0  0  0  0  0  0  0
   11.6854   -8.2771    0.0000 O   0  0  0  0  0  0  0  0  0  0  0  0
   -1.3088   -5.2455    0.0000 N   0  0  0  0  0  0  0  0  0  0  0  0
    2.5894   -6.0047    0.0000 N   0  0  0  0  0  0  0  0  0  0  0  0
    7.7872   -7.5179    0.0000 N   0  0  0  0  0  0  0  0  0  0  0  0
   -3.9068   -5.2348    0.0000 N   0  0  0  0  0  0  0  0  0  0  0  0
    5.1873   -7.5117    0.0000 C   0  0  0  0  0  0  0  0  0  0  0  0
   -0.0105   -5.9986    0.0000 C   0  0  0  0  0  0  0  0  0  0  0  0
    6.4855   -8.2648    0.0000 C   0  0  0  0  0  0  0  0  0  0  0  0
    3.8912   -5.2578    0.0000 C   0  0  0  0  0  0  0  0  0  0  0  0
    1.2912   -5.2516    0.0000 C   0  0  0  0  0  0  0  0  0  0  0  0
    5.1894   -6.0109    0.0000 C   0  0  0  0  0  0  0  0  0  0  0  0
   -0.0172   -7.4994    0.0000 C   0  0  0  0  0  0  0  0  0  0  0  0
    6.4788   -9.7656    0.0000 C   0  0  0  0  0  0  0  0  0  0  0  0
    3.8978   -3.7570    0.0000 C   0  0  0  0  0  0  0  0  0  0  0  0
   -2.6109   -5.9901    0.0000 C   0  0  0  0  0  0  0  0  0  0  0  0
   -1.3026   -3.7455    0.0000 C   0  0  0  0  0  0  0  0  0  0  0  0
    5.1762  -10.5111    0.0000 C   0  0  0  0  0  0  0  0  0  0  0  0
    5.2004   -3.0115    0.0000 C   0  0  0  0  0  0  0  0  0  0  0  0
    9.0854   -8.2710    0.0000 C   0  0  0  0  0  0  0  0  0  0  0  0
   -2.5985   -2.9901    0.0000 C   0  0  0  0  0  0  0  0  0  0  0  0
   -1.0587   -8.0954    0.0000 C   0  0  0  0  0  0  0  0  0  0  0  0
    1.0196   -8.1036    0.0000 C   0  0  0  0  0  0  0  0  0  0  0  0
   -3.9006   -3.7348    0.0000 C   0  0  0  0  0  0  0  0  0  0  0  0
    5.1674  -12.0111    0.0000 C   0  0  0  0  0  0  0  0  0  0  0  0
    3.8815   -9.7536    0.0000 C   0  0  0  0  0  0  0  0  0  0  0  0
   10.3872   -7.5241    0.0000 C   0  0  0  0  0  0  0  0  0  0  0  0
    5.2093   -1.5115    0.0000 C   0  0  0  0  0  0  0  0  0  0  0  0
    6.4952   -3.7691    0.0000 C   0  0  0  0  0  0  0  0  0  0  0  0
   12.9872   -7.5302    0.0000 C   0  0  0  0  0  0  0  0  0  0  0  0
    3.8640  -12.7535    0.0000 C   0  0  0  0  0  0  0  0  0  0  0  0
    2.5781  -10.4960    0.0000 C   0  0  0  0  0  0  0  0  0  0  0  0
    6.5127   -0.7691    0.0000 C   0  0  0  0  0  0  0  0  0  0  0  0
    7.7986   -3.0266    0.0000 C   0  0  0  0  0  0  0  0  0  0  0  0
    2.5694  -11.9959    0.0000 C   0  0  0  0  0  0  0  0  0  0  0  0
   14.2858   -8.2810    0.0000 C   0  0  0  0  0  0  0  0  0  0  0  0
   12.9882   -6.0302    0.0000 C   0  0  0  0  0  0  0  0  0  0  0  0
    7.8073   -1.5267    0.0000 C   0  0  0  0  0  0  0  0  0  0  0  0
   15.5853   -7.5319    0.0000 C   0  0  0  0  0  0  0  0  0  0  0  0
   14.2878   -5.2810    0.0000 C   0  0  0  0  0  0  0  0  0  0  0  0
   15.5863   -6.0319    0.0000 C   0  0  0  0  0  0  0  0  0  0  0  0
   14.2851   -9.4810    0.0000 C   0  0  0  0  0  0  0  0  0  0  0  0
   11.9494   -5.4295    0.0000 C   0  0  0  0  0  0  0  0  0  0  0  0
 10  1  1  0
 14  2  2  0
 19  3  2  0
 23  4  2  0
 30  5  1  0
  5 33  1  0
 11  6  1  0
 19  6  1  0
  6 20  1  0
 13  7  1  0
  7 14  1  0
 12  8  1  0
  8 23  1  0
  9 19  1  0
 27  9  1  0
 10 12  1  0
 10 15  1  0
 14 11  1  0
 11 16  1  0
 12 17  1  0
 15 13  1  0
 13 18  1  0
 16 25  1  0
 16 26  1  0
 17 21  1  0
 18 22  1  0
 20 24  1  0
 28 21  2  0
 21 29  1  0
 31 22  2  0
 22 32  1  0
 23 30  1  0
 24 27  1  0
 34 28  1  0
 29 35  2  0
 36 31  1  0
 32 37  2  0
 39 33  2  0
 33 40  1  0
 38 34  2  0
 35 38  1  0
 41 36  2  0
 37 41  1  0
 42 39  1  0
 39 45  1  0
 40 43  2  0
 40 46  1  0
 44 42  2  0
 43 44  1  0
M  END
>  <Classification>  (309) 
0

>  <pchembl>  (309) 
4.99

>  <InChI_steorem>  (309) 
InChI=1S/C37H48N4O5/c1-25(2)34(41-20-12-19-38-37(41)45)36(44)39-30(21-28-15-7-5-8-16-28)23-32(42)31(22-29-17-9-6-10-18-29)40-33(43)24-46-35-26(3)13-11-14-27(35)4/h5-11,13-18,25,30-32,34,42H,12,19-24H2,1-4H3,(H,38,45)(H,39,44)(H,40,43)

>  <source>  (309) 
ChEMBL25

>  <source_id>  (309) 
25

>  <optional_reference>  (309) 
10.1128/aac.00671-07

>  <optional_origin>  (309) 
None

>  <target>  (309) 
MDR1

$$$$

     RDKit          2D

 27 30  0  0  0  0  0  0  0  0999 V2000
   -3.0852   -2.9929    0.0000 O   0  0  0  0  0  0  0  0  0  0  0  0
   -1.6562   -2.9929    0.0000 O   0  0  0  0  0  0  0  0  0  0  0  0
   -1.6562    1.1321    0.0000 N   0  0  0  0  0  0  0  0  0  0  0  0
   -0.9418    2.3696    0.0000 N   0  0  0  0  0  0  0  0  0  0  0  0
   -0.9418   -0.1054    0.0000 N   0  0  0  0  0  0  0  0  0  0  0  0
   -3.7996    3.1946    0.0000 N   0  0  0  0  0  0  0  0  0  0  0  0
   -0.2273    1.1321    0.0000 C   0  0  0  0  0  0  0  0  0  0  0  0
   -0.9418    0.7196    0.0000 C   0  0  0  0  0  0  0  0  0  0  0  0
   -0.2273    1.9571    0.0000 C   0  0  0  0  0  0  0  0  0  0  0  0
   -1.6562    1.9571    0.0000 C   0  0  0  0  0  0  0  0  0  0  0  0
   -2.3707    2.3696    0.0000 C   0  0  0  0  0  0  0  0  0  0  0  0
   -1.6562   -0.5179    0.0000 C   0  0  0  0  0  0  0  0  0  0  0  0
    0.4872    0.7196    0.0000 C   0  0  0  0  0  0  0  0  0  0  0  0
    0.4872    2.3696    0.0000 C   0  0  0  0  0  0  0  0  0  0  0  0
   -1.6562   -1.3429    0.0000 C   0  0  0  0  0  0  0  0  0  0  0  0
   -2.3707   -1.7554    0.0000 C   0  0  0  0  0  0  0  0  0  0  0  0
    1.2016    1.1321    0.0000 C   0  0  0  0  0  0  0  0  0  0  0  0
    1.2016    1.9571    0.0000 C   0  0  0  0  0  0  0  0  0  0  0  0
   -2.3707    3.1946    0.0000 C   0  0  0  0  0  0  0  0  0  0  0  0
   -3.0852    1.9571    0.0000 C   0  0  0  0  0  0  0  0  0  0  0  0
   -2.3707   -0.1054    0.0000 C   0  0  0  0  0  0  0  0  0  0  0  0
   -2.3707   -2.5804    0.0000 C   0  0  0  0  0  0  0  0  0  0  0  0
   -3.0852   -1.3429    0.0000 C   0  0  0  0  0  0  0  0  0  0  0  0
   -3.0852   -0.5179    0.0000 C   0  0  0  0  0  0  0  0  0  0  0  0
   -3.0852    3.6071    0.0000 C   0  0  0  0  0  0  0  0  0  0  0  0
   -3.7996    2.3696    0.0000 C   0  0  0  0  0  0  0  0  0  0  0  0
   -3.0852   -3.8179    0.0000 C   0  0  0  0  0  0  0  0  0  0  0  0
  1 22  1  0
  1 27  1  0
  2 22  2  0
  3  8  2  0
  3 10  1  0
  4  9  1  0
  4 10  2  0
  5  8  1  0
  5 12  1  0
  6 25  2  0
  6 26  1  0
  7  8  1  0
  7  9  2  0
  7 13  1  0
  9 14  1  0
 10 11  1  0
 11 19  2  0
 11 20  1  0
 12 15  2  0
 12 21  1  0
 13 17  2  0
 14 18  2  0
 15 16  1  0
 16 22  1  0
 16 23  2  0
 17 18  1  0
 19 25  1  0
 20 26  2  0
 21 24  2  0
 23 24  1  0
M  END
>  <Classification>  (310) 
1

>  <pchembl>  (310) 
5.2

>  <InChI_steorem>  (310) 
InChI=1S/C21H16N4O2/c1-27-21(26)15-5-4-6-16(13-15)23-20-17-7-2-3-8-18(17)24-19(25-20)14-9-11-22-12-10-14/h2-13H,1H3,(H,23,24,25)

>  <source>  (310) 
ChEMBL25

>  <source_id>  (310) 
25

>  <optional_reference>  (310) 
10.1021/acs.jmedchem.7b00441

>  <optional_origin>  (310) 
None

>  <target>  (310) 
MDR1

$$$$

     RDKit          2D

 33 37  0  0  0  0  0  0  0  0999 V2000
    0.7315    0.3631    0.0000 O   0  0  0  0  0  0  0  0  0  0  0  0
   -4.3652    2.1769    0.0000 O   0  0  0  0  0  0  0  0  0  0  0  0
    1.2191   -2.1146    0.0000 N   0  0  0  0  0  0  0  0  0  0  0  0
    1.9335   -0.8771    0.0000 N   0  0  0  0  0  0  0  0  0  0  0  0
    0.4344   -2.3695    0.0000 N   0  0  0  0  0  0  0  0  0  0  0  0
   -0.6275   -0.0785    0.0000 N   0  0  0  0  0  0  0  0  0  0  0  0
   -2.7513    1.8338    0.0000 N   0  0  0  0  0  0  0  0  0  0  0  0
    1.2191   -1.2896    0.0000 C   0  0  0  0  0  0  0  0  0  0  0  0
    1.9335   -2.5271    0.0000 C   0  0  0  0  0  0  0  0  0  0  0  0
    0.4344   -1.0346    0.0000 C   0  0  0  0  0  0  0  0  0  0  0  0
    2.6480   -1.2896    0.0000 C   0  0  0  0  0  0  0  0  0  0  0  0
    2.6480   -2.1146    0.0000 C   0  0  0  0  0  0  0  0  0  0  0  0
    1.9335   -3.3521    0.0000 C   0  0  0  0  0  0  0  0  0  0  0  0
   -0.0505   -1.7021    0.0000 C   0  0  0  0  0  0  0  0  0  0  0  0
    0.1795   -0.2500    0.0000 C   0  0  0  0  0  0  0  0  0  0  0  0
    3.3625   -0.8771    0.0000 C   0  0  0  0  0  0  0  0  0  0  0  0
    2.6480   -3.7646    0.0000 C   0  0  0  0  0  0  0  0  0  0  0  0
    1.2191   -3.7646    0.0000 C   0  0  0  0  0  0  0  0  0  0  0  0
    3.3625   -0.0521    0.0000 C   0  0  0  0  0  0  0  0  0  0  0  0
    4.0769   -1.2896    0.0000 C   0  0  0  0  0  0  0  0  0  0  0  0
    2.6480   -4.5896    0.0000 C   0  0  0  0  0  0  0  0  0  0  0  0
    1.2191   -4.5896    0.0000 C   0  0  0  0  0  0  0  0  0  0  0  0
    4.0769    0.3604    0.0000 C   0  0  0  0  0  0  0  0  0  0  0  0
    4.7914   -0.8771    0.0000 C   0  0  0  0  0  0  0  0  0  0  0  0
    1.9335   -5.0021    0.0000 C   0  0  0  0  0  0  0  0  0  0  0  0
   -0.8824    0.7062    0.0000 C   0  0  0  0  0  0  0  0  0  0  0  0
    4.7914   -0.0521    0.0000 C   0  0  0  0  0  0  0  0  0  0  0  0
   -1.6894    0.8777    0.0000 C   0  0  0  0  0  0  0  0  0  0  0  0
   -1.9443    1.6623    0.0000 C   0  0  0  0  0  0  0  0  0  0  0  0
   -3.0062    2.6185    0.0000 C   0  0  0  0  0  0  0  0  0  0  0  0
   -3.3033    1.2207    0.0000 C   0  0  0  0  0  0  0  0  0  0  0  0
   -3.8132    2.7900    0.0000 C   0  0  0  0  0  0  0  0  0  0  0  0
   -4.1103    1.3923    0.0000 C   0  0  0  0  0  0  0  0  0  0  0  0
  1 15  2  0
  2 32  1  0
  2 33  1  0
  3  5  1  0
  3  8  1  0
  3  9  1  0
  4  8  1  0
  4 11  2  0
  5 14  2  0
  6 15  1  0
  6 26  1  0
  7 29  1  0
  7 30  1  0
  7 31  1  0
  8 10  2  0
  9 12  2  0
  9 13  1  0
 10 14  1  0
 10 15  1  0
 11 12  1  0
 11 16  1  0
 13 17  2  0
 13 18  1  0
 16 19  2  0
 16 20  1  0
 17 21  1  0
 18 22  2  0
 19 23  1  0
 20 24  2  0
 21 25  2  0
 22 25  1  0
 23 27  2  0
 24 27  1  0
 26 28  1  0
 28 29  1  0
 30 32  1  0
 31 33  1  0
M  END
>  <Classification>  (311) 
1

>  <pchembl>  (311) 
5.17

>  <InChI_steorem>  (311) 
InChI=1S/C26H27N5O2/c32-26(27-12-7-13-30-14-16-33-17-15-30)22-19-28-31-24(21-10-5-2-6-11-21)18-23(29-25(22)31)20-8-3-1-4-9-20/h1-6,8-11,18-19H,7,12-17H2,(H,27,32)

>  <source>  (311) 
ChEMBL25

>  <source_id>  (311) 
25

>  <optional_reference>  (311) 
10.1016/j.ejmech.2015.12.010

>  <optional_origin>  (311) 
None

>  <target>  (311) 
MDR1

$$$$

     RDKit          2D

 28 31  0  0  0  0  0  0  0  0999 V2000
   15.1451   -8.0290    0.0000 N   0  0  0  0  0  0  0  0  0  0  0  0
   15.8522   -7.6170    0.0000 C   0  0  0  0  0  0  0  0  0  0  0  0
   15.8503   -6.7986    0.0000 N   0  0  0  0  0  0  0  0  0  0  0  0
   15.1414   -6.3922    0.0000 C   0  0  0  0  0  0  0  0  0  0  0  0
   14.4342   -6.8042    0.0000 C   0  0  0  0  0  0  0  0  0  0  0  0
   13.7253   -6.3978    0.0000 C   0  0  0  0  0  0  0  0  0  0  0  0
   13.0181   -6.8098    0.0000 C   0  0  0  0  0  0  0  0  0  0  0  0
   13.0200   -7.6282    0.0000 C   0  0  0  0  0  0  0  0  0  0  0  0
   13.7290   -8.0346    0.0000 C   0  0  0  0  0  0  0  0  0  0  0  0
   14.4361   -7.6226    0.0000 C   0  0  0  0  0  0  0  0  0  0  0  0
   15.1374   -5.5774    0.0000 N   0  0  0  0  0  0  0  0  0  0  0  0
   16.5612   -8.0233    0.0000 C   0  0  0  0  0  0  0  0  0  0  0  0
   16.5631   -8.8417    0.0000 C   0  0  0  0  0  0  0  0  0  0  0  0
   17.2720   -9.2481    0.0000 C   0  0  0  0  0  0  0  0  0  0  0  0
   17.9791   -8.8361    0.0000 C   0  0  0  0  0  0  0  0  0  0  0  0
   17.9773   -8.0177    0.0000 C   0  0  0  0  0  0  0  0  0  0  0  0
   17.2683   -7.6113    0.0000 C   0  0  0  0  0  0  0  0  0  0  0  0
   18.6881   -9.2425    0.0000 O   0  0  0  0  0  0  0  0  0  0  0  0
   18.6900  -10.0609    0.0000 C   0  0  0  0  0  0  0  0  0  0  0  0
   17.2739  -10.0665    0.0000 O   0  0  0  0  0  0  0  0  0  0  0  0
   17.9829  -10.4729    0.0000 C   0  0  0  0  0  0  0  0  0  0  0  0
   15.8446   -5.1654    0.0000 C   0  0  0  0  0  0  0  0  0  0  0  0
   16.5535   -5.5718    0.0000 C   0  0  0  0  0  0  0  0  0  0  0  0
   17.2586   -5.1633    0.0000 C   0  0  0  0  0  0  0  0  0  0  0  0
   17.2567   -4.3450    0.0000 C   0  0  0  0  0  0  0  0  0  0  0  0
   16.5477   -3.9386    0.0000 C   0  0  0  0  0  0  0  0  0  0  0  0
   15.8406   -4.3506    0.0000 C   0  0  0  0  0  0  0  0  0  0  0  0
   17.9676   -5.5697    0.0000 Br  0  0  0  0  0  0  0  0  0  0  0  0
  1  2  2  0
  2  3  1  0
  3  4  2  0
  4  5  1  0
  5  6  2  0
  6  7  1  0
  7  8  2  0
  8  9  1  0
  9 10  2  0
  1 10  1  0
  5 10  1  0
  4 11  1  0
 12 13  2  0
 13 14  1  0
 14 15  2  0
 15 16  1  0
 16 17  2  0
 12 17  1  0
 18 19  1  0
 15 18  1  0
 20 21  1  0
 14 20  1  0
  2 12  1  0
 22 23  2  0
 23 24  1  0
 24 25  2  0
 25 26  1  0
 26 27  2  0
 22 27  1  0
 24 28  1  0
 11 22  1  0
M  END
>  <Classification>  (312) 
0

>  <pchembl>  (312) 
4.93

>  <InChI_steorem>  (312) 
InChI=1S/C22H18BrN3O2/c1-27-19-11-10-14(12-20(19)28-2)21-25-18-9-4-3-8-17(18)22(26-21)24-16-7-5-6-15(23)13-16/h3-13H,1-2H3,(H,24,25,26)

>  <source>  (312) 
ChEMBL25

>  <source_id>  (312) 
25

>  <optional_reference>  (312) 
10.1016/j.bmc.2013.10.007

>  <optional_origin>  (312) 
None

>  <target>  (312) 
MDR1

$$$$

     RDKit          2D

 28 31  0  0  0  0  0  0  0  0999 V2000
   18.3251   -3.0734    0.0000 C   0  0  0  0  0  0  0  0  0  0  0  0
   17.6318   -3.5015    0.0000 C   0  0  0  0  0  0  0  0  0  0  0  0
   17.6566   -4.3195    0.0000 C   0  0  0  0  0  0  0  0  0  0  0  0
   18.3767   -4.7058    0.0000 C   0  0  0  0  0  0  0  0  0  0  0  0
   19.0720   -4.2742    0.0000 C   0  0  0  0  0  0  0  0  0  0  0  0
   19.0452   -3.4598    0.0000 C   0  0  0  0  0  0  0  0  0  0  0  0
   18.3003   -2.2554    0.0000 O   0  0  0  0  0  0  0  0  0  0  0  0
   16.9613   -4.7512    0.0000 N   0  0  0  0  0  0  0  0  0  0  0  0
   17.0377   -7.2016    0.0000 N   0  0  0  0  0  0  0  0  0  0  0  0
   17.7330   -6.7699    0.0000 C   0  0  0  0  0  0  0  0  0  0  0  0
   17.7082   -5.9519    0.0000 N   0  0  0  0  0  0  0  0  0  0  0  0
   16.9881   -5.5655    0.0000 C   0  0  0  0  0  0  0  0  0  0  0  0
   16.2928   -5.9972    0.0000 C   0  0  0  0  0  0  0  0  0  0  0  0
   15.5727   -5.6108    0.0000 C   0  0  0  0  0  0  0  0  0  0  0  0
   14.8774   -6.0425    0.0000 C   0  0  0  0  0  0  0  0  0  0  0  0
   14.9022   -6.8605    0.0000 C   0  0  0  0  0  0  0  0  0  0  0  0
   15.6223   -7.2469    0.0000 C   0  0  0  0  0  0  0  0  0  0  0  0
   16.3176   -6.8152    0.0000 C   0  0  0  0  0  0  0  0  0  0  0  0
   18.4531   -7.1562    0.0000 C   0  0  0  0  0  0  0  0  0  0  0  0
   18.4779   -7.9742    0.0000 C   0  0  0  0  0  0  0  0  0  0  0  0
   19.1980   -8.3606    0.0000 C   0  0  0  0  0  0  0  0  0  0  0  0
   19.8933   -7.9289    0.0000 C   0  0  0  0  0  0  0  0  0  0  0  0
   19.8685   -7.1109    0.0000 C   0  0  0  0  0  0  0  0  0  0  0  0
   19.1484   -6.7246    0.0000 C   0  0  0  0  0  0  0  0  0  0  0  0
   20.6134   -8.3153    0.0000 O   0  0  0  0  0  0  0  0  0  0  0  0
   20.6382   -9.1333    0.0000 C   0  0  0  0  0  0  0  0  0  0  0  0
   19.2228   -9.1786    0.0000 O   0  0  0  0  0  0  0  0  0  0  0  0
   19.9429   -9.5650    0.0000 C   0  0  0  0  0  0  0  0  0  0  0  0
  1  2  2  0
  2  3  1  0
  3  4  2  0
  4  5  1  0
  5  6  2  0
  1  6  1  0
  1  7  1  0
  9 10  2  0
 10 11  1  0
 11 12  2  0
 12 13  1  0
 13 14  2  0
 14 15  1  0
 15 16  2  0
 16 17  1  0
 17 18  2  0
  9 18  1  0
 13 18  1  0
 19 20  2  0
 20 21  1  0
 21 22  2  0
 22 23  1  0
 23 24  2  0
 19 24  1  0
 25 26  1  0
 22 25  1  0
 27 28  1  0
 21 27  1  0
 10 19  1  0
  8 12  1  0
  3  8  1  0
M  END
>  <Classification>  (313) 
0

>  <pchembl>  (313) 
4.74

>  <InChI_steorem>  (313) 
InChI=1S/C22H19N3O3/c1-27-19-11-10-14(12-20(19)28-2)21-24-18-9-4-3-8-17(18)22(25-21)23-15-6-5-7-16(26)13-15/h3-13,26H,1-2H3,(H,23,24,25)

>  <source>  (313) 
ChEMBL25

>  <source_id>  (313) 
25

>  <optional_reference>  (313) 
10.1016/j.bmc.2013.10.007

>  <optional_origin>  (313) 
None

>  <target>  (313) 
MDR1

$$$$

     RDKit          2D

 30 33  0  0  0  0  0  0  0  0999 V2000
   17.8637   -8.2427    0.0000 N   0  0  0  0  0  0  0  0  0  0  0  0
   18.5537   -7.8094    0.0000 C   0  0  0  0  0  0  0  0  0  0  0  0
   18.5226   -6.9916    0.0000 N   0  0  0  0  0  0  0  0  0  0  0  0
   17.7996   -6.6107    0.0000 C   0  0  0  0  0  0  0  0  0  0  0  0
   17.1077   -7.0477    0.0000 C   0  0  0  0  0  0  0  0  0  0  0  0
   16.3846   -6.6669    0.0000 C   0  0  0  0  0  0  0  0  0  0  0  0
   15.6946   -7.1002    0.0000 C   0  0  0  0  0  0  0  0  0  0  0  0
   15.7256   -7.9180    0.0000 C   0  0  0  0  0  0  0  0  0  0  0  0
   16.4487   -8.2988    0.0000 C   0  0  0  0  0  0  0  0  0  0  0  0
   17.1406   -7.8619    0.0000 C   0  0  0  0  0  0  0  0  0  0  0  0
   17.7686   -5.7929    0.0000 N   0  0  0  0  0  0  0  0  0  0  0  0
   18.4605   -5.3560    0.0000 C   0  0  0  0  0  0  0  0  0  0  0  0
   19.1835   -5.7368    0.0000 C   0  0  0  0  0  0  0  0  0  0  0  0
   19.8736   -5.3035    0.0000 C   0  0  0  0  0  0  0  0  0  0  0  0
   19.8425   -4.4857    0.0000 C   0  0  0  0  0  0  0  0  0  0  0  0
   19.1195   -4.1049    0.0000 C   0  0  0  0  0  0  0  0  0  0  0  0
   18.4275   -4.5418    0.0000 C   0  0  0  0  0  0  0  0  0  0  0  0
   20.5966   -5.6843    0.0000 N   0  0  0  0  0  0  0  0  0  0  0  0
   20.6296   -6.4985    0.0000 O   0  0  0  0  0  0  0  0  0  0  0  0
   21.2886   -5.2473    0.0000 O   0  0  0  0  0  0  0  0  0  0  0  0
   19.2767   -8.1902    0.0000 C   0  0  0  0  0  0  0  0  0  0  0  0
   19.3097   -9.0043    0.0000 C   0  0  0  0  0  0  0  0  0  0  0  0
   20.0328   -9.3852    0.0000 C   0  0  0  0  0  0  0  0  0  0  0  0
   20.7228   -8.9518    0.0000 C   0  0  0  0  0  0  0  0  0  0  0  0
   20.6917   -8.1340    0.0000 C   0  0  0  0  0  0  0  0  0  0  0  0
   19.9687   -7.7532    0.0000 C   0  0  0  0  0  0  0  0  0  0  0  0
   21.4458   -9.3327    0.0000 O   0  0  0  0  0  0  0  0  0  0  0  0
   21.4788  -10.1468    0.0000 C   0  0  0  0  0  0  0  0  0  0  0  0
   20.0638  -10.2030    0.0000 O   0  0  0  0  0  0  0  0  0  0  0  0
   20.7869  -10.5838    0.0000 C   0  0  0  0  0  0  0  0  0  0  0  0
  1  2  2  0
  2  3  1  0
  3  4  2  0
  4  5  1  0
  5  6  2  0
  6  7  1  0
  7  8  2  0
  8  9  1  0
  9 10  2  0
  1 10  1  0
  5 10  1  0
  4 11  1  0
 12 13  2  0
 13 14  1  0
 14 15  2  0
 15 16  1  0
 16 17  2  0
 12 17  1  0
 18 19  2  0
 18 20  1  0
 14 18  1  0
 11 12  1  0
 21 22  2  0
 22 23  1  0
 23 24  2  0
 24 25  1  0
 25 26  2  0
 21 26  1  0
 27 28  1  0
 24 27  1  0
 29 30  1  0
 23 29  1  0
  2 21  1  0
M  CHG  2  18   1  20  -1
M  END
>  <Classification>  (314) 
1

>  <pchembl>  (314) 
5.02

>  <InChI_steorem>  (314) 
InChI=1S/C22H18N4O4/c1-29-19-11-10-14(12-20(19)30-2)21-24-18-9-4-3-8-17(18)22(25-21)23-15-6-5-7-16(13-15)26(27)28/h3-13H,1-2H3,(H,23,24,25)

>  <source>  (314) 
ChEMBL25

>  <source_id>  (314) 
25

>  <optional_reference>  (314) 
10.1016/j.bmc.2013.10.007

>  <optional_origin>  (314) 
None

>  <target>  (314) 
MDR1

$$$$

     RDKit          2D

 31 34  0  0  0  0  0  0  0  0999 V2000
   16.0222   -7.9065    0.0000 N   0  0  0  0  0  0  0  0  0  0  0  0
   16.7310   -7.4975    0.0000 C   0  0  0  0  0  0  0  0  0  0  0  0
   16.7306   -6.6827    0.0000 N   0  0  0  0  0  0  0  0  0  0  0  0
   16.0233   -6.2733    0.0000 C   0  0  0  0  0  0  0  0  0  0  0  0
   15.3165   -6.6787    0.0000 C   0  0  0  0  0  0  0  0  0  0  0  0
   14.6093   -6.2693    0.0000 C   0  0  0  0  0  0  0  0  0  0  0  0
   13.9004   -6.6783    0.0000 C   0  0  0  0  0  0  0  0  0  0  0  0
   13.8988   -7.4967    0.0000 C   0  0  0  0  0  0  0  0  0  0  0  0
   14.6061   -7.9061    0.0000 C   0  0  0  0  0  0  0  0  0  0  0  0
   15.3149   -7.4971    0.0000 C   0  0  0  0  0  0  0  0  0  0  0  0
   16.0250   -5.4549    0.0000 N   0  0  0  0  0  0  0  0  0  0  0  0
   17.4383   -7.9069    0.0000 C   0  0  0  0  0  0  0  0  0  0  0  0
   17.4367   -8.7253    0.0000 C   0  0  0  0  0  0  0  0  0  0  0  0
   18.1439   -9.1347    0.0000 C   0  0  0  0  0  0  0  0  0  0  0  0
   18.8528   -8.7257    0.0000 C   0  0  0  0  0  0  0  0  0  0  0  0
   18.8523   -7.9109    0.0000 C   0  0  0  0  0  0  0  0  0  0  0  0
   18.1451   -7.5015    0.0000 C   0  0  0  0  0  0  0  0  0  0  0  0
   19.5600   -9.1351    0.0000 O   0  0  0  0  0  0  0  0  0  0  0  0
   19.5584   -9.9535    0.0000 C   0  0  0  0  0  0  0  0  0  0  0  0
   18.1423   -9.9531    0.0000 O   0  0  0  0  0  0  0  0  0  0  0  0
   18.8496  -10.3625    0.0000 C   0  0  0  0  0  0  0  0  0  0  0  0
   16.7338   -5.0459    0.0000 C   0  0  0  0  0  0  0  0  0  0  0  0
   17.4411   -5.4553    0.0000 C   0  0  0  0  0  0  0  0  0  0  0  0
   18.1479   -5.0499    0.0000 C   0  0  0  0  0  0  0  0  0  0  0  0
   18.1495   -4.2315    0.0000 C   0  0  0  0  0  0  0  0  0  0  0  0
   17.4422   -3.8221    0.0000 C   0  0  0  0  0  0  0  0  0  0  0  0
   16.7334   -4.2311    0.0000 C   0  0  0  0  0  0  0  0  0  0  0  0
   18.8583   -3.8225    0.0000 O   0  0  0  0  0  0  0  0  0  0  0  0
   18.8579   -3.0077    0.0000 C   0  0  0  0  0  0  0  0  0  0  0  0
   18.8551   -5.4593    0.0000 O   0  0  0  0  0  0  0  0  0  0  0  0
   19.5640   -5.0503    0.0000 C   0  0  0  0  0  0  0  0  0  0  0  0
  1  2  2  0
  2  3  1  0
  3  4  2  0
  4  5  1  0
  5  6  2  0
  6  7  1  0
  7  8  2  0
  8  9  1  0
  9 10  2  0
  1 10  1  0
  5 10  1  0
  4 11  1  0
 12 13  2  0
 13 14  1  0
 14 15  2  0
 15 16  1  0
 16 17  2  0
 12 17  1  0
 18 19  1  0
 15 18  1  0
 20 21  1  0
 14 20  1  0
  2 12  1  0
 22 23  2  0
 23 24  1  0
 24 25  2  0
 25 26  1  0
 26 27  2  0
 22 27  1  0
 28 29  1  0
 25 28  1  0
 30 31  1  0
 24 30  1  0
 11 22  1  0
M  END
>  <Classification>  (315) 
1

>  <pchembl>  (315) 
5.46

>  <InChI_steorem>  (315) 
InChI=1S/C24H23N3O4/c1-28-19-11-9-15(13-21(19)30-3)23-26-18-8-6-5-7-17(18)24(27-23)25-16-10-12-20(29-2)22(14-16)31-4/h5-14H,1-4H3,(H,25,26,27)

>  <source>  (315) 
ChEMBL25

>  <source_id>  (315) 
25

>  <optional_reference>  (315) 
10.1016/j.bmc.2013.10.007

>  <optional_origin>  (315) 
None

>  <target>  (315) 
MDR1

$$$$

     RDKit          2D

 41 44  0  0  0  0  0  0  0  0999 V2000
   22.4777  -13.3250    0.0000 C   0  0  0  0  0  0  0  0  0  0  0  0
   22.4766  -14.1523    0.0000 C   0  0  0  0  0  0  0  0  0  0  0  0
   23.1914  -14.5652    0.0000 C   0  0  0  0  0  0  0  0  0  0  0  0
   23.1896  -12.9122    0.0000 C   0  0  0  0  0  0  0  0  0  0  0  0
   23.9050  -13.3213    0.0000 C   0  0  0  0  0  0  0  0  0  0  0  0
   23.9084  -14.1544    0.0000 C   0  0  0  0  0  0  0  0  0  0  0  0
   24.6276  -14.5657    0.0000 C   0  0  0  0  0  0  0  0  0  0  0  0
   25.3480  -14.1485    0.0000 C   0  0  0  0  0  0  0  0  0  0  0  0
   25.3445  -13.3154    0.0000 C   0  0  0  0  0  0  0  0  0  0  0  0
   24.6207  -12.8995    0.0000 O   0  0  0  0  0  0  0  0  0  0  0  0
   26.0577  -12.9007    0.0000 C   0  0  0  0  0  0  0  0  0  0  0  0
   26.0636  -14.5591    0.0000 O   0  0  0  0  0  0  0  0  0  0  0  0
   26.7727  -13.3131    0.0000 C   0  0  0  0  0  0  0  0  0  0  0  0
   27.4854  -12.8991    0.0000 C   0  0  0  0  0  0  0  0  0  0  0  0
   27.4833  -12.0732    0.0000 C   0  0  0  0  0  0  0  0  0  0  0  0
   26.7625  -11.6631    0.0000 C   0  0  0  0  0  0  0  0  0  0  0  0
   26.0528  -12.0794    0.0000 C   0  0  0  0  0  0  0  0  0  0  0  0
   26.7571  -10.8381    0.0000 O   0  0  0  0  0  0  0  0  0  0  0  0
   28.1959  -11.6575    0.0000 O   0  0  0  0  0  0  0  0  0  0  0  0
   28.2010  -13.3097    0.0000 O   0  0  0  0  0  0  0  0  0  0  0  0
   23.1899  -15.3902    0.0000 O   0  0  0  0  0  0  0  0  0  0  0  0
   21.7632  -12.9126    0.0000 O   0  0  0  0  0  0  0  0  0  0  0  0
   26.0658  -15.3840    0.0000 C   0  0  0  0  0  0  0  0  0  0  0  0
   26.7814  -15.7946    0.0000 C   0  0  0  0  0  0  0  0  0  0  0  0
   25.3525  -15.7985    0.0000 O   0  0  0  0  0  0  0  0  0  0  0  0
   26.7786  -16.6178    0.0000 C   0  0  0  0  0  0  0  0  0  0  0  0
   27.4934  -17.0282    0.0000 C   0  0  0  0  0  0  0  0  0  0  0  0
   28.2077  -16.6137    0.0000 C   0  0  0  0  0  0  0  0  0  0  0  0
   28.2028  -15.7845    0.0000 C   0  0  0  0  0  0  0  0  0  0  0  0
   27.4875  -15.3777    0.0000 C   0  0  0  0  0  0  0  0  0  0  0  0
   27.4952  -17.8532    0.0000 O   0  0  0  0  0  0  0  0  0  0  0  0
   28.9239  -17.0233    0.0000 O   0  0  0  0  0  0  0  0  0  0  0  0
   28.9147  -15.3675    0.0000 O   0  0  0  0  0  0  0  0  0  0  0  0
   27.4688  -10.4209    0.0000 C   0  0  0  0  0  0  0  0  0  0  0  0
   28.9122  -12.0668    0.0000 C   0  0  0  0  0  0  0  0  0  0  0  0
   28.2031  -14.1347    0.0000 C   0  0  0  0  0  0  0  0  0  0  0  0
   29.6317  -15.7755    0.0000 C   0  0  0  0  0  0  0  0  0  0  0  0
   28.9272  -17.8483    0.0000 C   0  0  0  0  0  0  0  0  0  0  0  0
   26.7817  -18.2673    0.0000 C   0  0  0  0  0  0  0  0  0  0  0  0
   22.4747  -15.8014    0.0000 C   0  0  0  0  0  0  0  0  0  0  0  0
   21.7630  -12.0876    0.0000 C   0  0  0  0  0  0  0  0  0  0  0  0
  7  8  1  0
 14 20  1  0
  8  9  1  0
  3 21  1  0
  9 10  1  0
  1 22  1  0
  5  6  1  0
 12 23  1  0
  9 11  1  0
 23 24  1  0
 23 25  2  0
  8 12  1  0
 24 26  2  0
  2  3  1  0
 26 27  1  0
 11 13  2  0
 27 28  2  0
  3  6  2  0
 28 29  1  0
 13 14  1  0
 29 30  2  0
 30 24  1  0
  1  2  2  0
 27 31  1  0
 14 15  2  0
 28 32  1  0
  5  4  2  0
 29 33  1  0
 15 16  1  0
 18 34  1  0
  4  1  1  0
 19 35  1  0
 16 17  2  0
 20 36  1  0
 17 11  1  0
 33 37  1  0
  5 10  1  0
 32 38  1  0
 16 18  1  0
 31 39  1  0
  6  7  1  0
 21 40  1  0
 15 19  1  0
 22 41  1  0
M  END
>  <Classification>  (316) 
1

>  <pchembl>  (316) 
7.68

>  <InChI_steorem>  (316) 
InChI=1S/C30H34O11/c1-32-18-13-20(33-2)19-15-26(41-30(31)17-11-24(36-5)29(39-8)25(12-17)37-6)27(40-21(19)14-18)16-9-22(34-3)28(38-7)23(10-16)35-4/h9-14,26-27H,15H2,1-8H3

>  <source>  (316) 
ChEMBL25

>  <source_id>  (316) 
25

>  <optional_reference>  (316) 
10.1021/acs.jmedchem.5b00085

>  <optional_origin>  (316) 
None

>  <target>  (316) 
MDR1

$$$$

     RDKit          2D

 46 49  0  0  0  0  0  0  0  0999 V2000
   -0.1147   -0.7838    0.0000 C   0  0  0  0  0  0  0  0  0  0  0  0
   -0.1165   -1.6139    0.0000 C   0  0  0  0  0  0  0  0  0  0  0  0
    0.6018   -2.0256    0.0000 C   0  0  0  0  0  0  0  0  0  0  0  0
    1.3142   -1.6132    0.0000 C   0  0  0  0  0  0  0  0  0  0  0  0
    1.3141   -0.7824    0.0000 C   0  0  0  0  0  0  0  0  0  0  0  0
    0.5990   -0.3722    0.0000 C   0  0  0  0  0  0  0  0  0  0  0  0
    0.5953    0.4543    0.0000 O   0  0  0  0  0  0  0  0  0  0  0  0
   -0.8284   -0.3728    0.0000 O   0  0  0  0  0  0  0  0  0  0  0  0
   -0.8305   -2.0243    0.0000 O   0  0  0  0  0  0  0  0  0  0  0  0
   -0.8287    0.4536    0.0000 C   0  0  0  0  0  0  0  0  0  0  0  0
    1.3071    0.8687    0.0000 C   0  0  0  0  0  0  0  0  0  0  0  0
   -1.5436   -1.6122    0.0000 C   0  0  0  0  0  0  0  0  0  0  0  0
    2.0330   -2.0227    0.0000 C   0  0  0  0  0  0  0  0  0  0  0  0
    2.0349   -2.8492    0.0000 O   0  0  0  0  0  0  0  0  0  0  0  0
    2.7456   -1.6098    0.0000 O   0  0  0  0  0  0  0  0  0  0  0  0
    3.4601   -2.0235    0.0000 C   0  0  0  0  0  0  0  0  0  0  0  0
    3.4601   -2.8498    0.0000 C   0  0  0  0  0  0  0  0  0  0  0  0
    4.1684   -3.2591    0.0000 C   0  0  0  0  0  0  0  0  0  0  0  0
    4.8848   -2.8515    0.0000 C   0  0  0  0  0  0  0  0  0  0  0  0
    4.8858   -2.0236    0.0000 C   0  0  0  0  0  0  0  0  0  0  0  0
    4.1705   -1.6073    0.0000 C   0  0  0  0  0  0  0  0  0  0  0  0
    5.6011   -3.2651    0.0000 N   0  0  0  0  0  0  0  0  0  0  0  0
    5.5984   -4.0917    0.0000 C   0  0  0  0  0  0  0  0  0  0  0  0
    6.3161   -2.8522    0.0000 C   0  0  0  0  0  0  0  0  0  0  0  0
    7.0312   -3.2732    0.0000 C   0  0  0  0  0  0  0  0  0  0  0  0
    7.7429   -2.8655    0.0000 C   0  0  0  0  0  0  0  0  0  0  0  0
    7.7479   -2.0384    0.0000 C   0  0  0  0  0  0  0  0  0  0  0  0
    7.0360   -1.6215    0.0000 C   0  0  0  0  0  0  0  0  0  0  0  0
    6.3190   -2.0317    0.0000 C   0  0  0  0  0  0  0  0  0  0  0  0
    8.4694   -1.6296    0.0000 O   0  0  0  0  0  0  0  0  0  0  0  0
    9.1793   -2.0473    0.0000 C   0  0  0  0  0  0  0  0  0  0  0  0
    9.1759   -2.8737    0.0000 O   0  0  0  0  0  0  0  0  0  0  0  0
    9.8966   -1.6384    0.0000 C   0  0  0  0  0  0  0  0  0  0  0  0
   10.6101   -1.2272    0.0000 C   0  0  0  0  0  0  0  0  0  0  0  0
   11.3279   -0.8160    0.0000 C   0  0  0  0  0  0  0  0  0  0  0  0
   12.0386   -1.2335    0.0000 C   0  0  0  0  0  0  0  0  0  0  0  0
   12.7511   -0.8286    0.0000 C   0  0  0  0  0  0  0  0  0  0  0  0
   12.7585   -0.0039    0.0000 C   0  0  0  0  0  0  0  0  0  0  0  0
   12.0389    0.4124    0.0000 C   0  0  0  0  0  0  0  0  0  0  0  0
   11.3254    0.0051    0.0000 C   0  0  0  0  0  0  0  0  0  0  0  0
   13.4720    0.4114    0.0000 O   0  0  0  0  0  0  0  0  0  0  0  0
   14.1846   -0.0034    0.0000 C   0  0  0  0  0  0  0  0  0  0  0  0
   12.0389    1.2388    0.0000 O   0  0  0  0  0  0  0  0  0  0  0  0
   12.7505    1.6489    0.0000 C   0  0  0  0  0  0  0  0  0  0  0  0
   13.4646   -1.2398    0.0000 O   0  0  0  0  0  0  0  0  0  0  0  0
   13.4646   -2.0661    0.0000 C   0  0  0  0  0  0  0  0  0  0  0  0
  1  2  2  0
  2  3  1  0
  3  4  2  0
  4  5  1  0
  5  6  2  0
  6  1  1  0
  6  7  1  0
  1  8  1  0
  2  9  1  0
  8 10  1  0
  7 11  1  0
  9 12  1  0
  4 13  1  0
 13 14  2  0
 13 15  1  0
 16 15  1  0
 16 17  1  0
 16 21  1  0
 17 18  1  0
 18 19  1  0
 19 20  1  0
 20 21  1  0
 19 22  1  0
 22 23  1  0
 22 24  1  0
 24 25  1  0
 24 29  1  0
 25 26  1  0
 26 27  1  0
 27 28  1  0
 28 29  1  0
 27 30  1  0
 30 31  1  0
 31 32  2  0
 31 33  1  0
 33 34  3  0
 34 35  1  0
 35 36  2  0
 36 37  1  0
 37 38  2  0
 38 39  1  0
 39 40  2  0
 40 35  1  0
 38 41  1  0
 41 42  1  0
 39 43  1  0
 43 44  1  0
 37 45  1  0
 45 46  1  0
M  END
>  <Classification>  (317) 
1

>  <pchembl>  (317) 
7.1

>  <InChI_steorem>  (317) 
InChI=1S/C35H45NO10/c1-36(25-11-15-27(16-12-25)46-35(38)23-20-30(41-4)34(44-7)31(21-23)42-5)24-9-13-26(14-10-24)45-32(37)17-8-22-18-28(39-2)33(43-6)29(19-22)40-3/h18-21,24-27H,9-16H2,1-7H3

>  <source>  (317) 
ChEMBL25

>  <source_id>  (317) 
25

>  <optional_reference>  (317) 
10.1016/j.bmc.2012.11.019

>  <optional_origin>  (317) 
None

>  <target>  (317) 
MDR1

$$$$

     RDKit          2D

 46 49  0  0  0  0  0  0  0  0999 V2000
   -1.7765    1.0959    0.0000 C   0  0  0  0  0  0  0  0  0  0  0  0
   -1.7776    0.2685    0.0000 C   0  0  0  0  0  0  0  0  0  0  0  0
   -1.0628   -0.1444    0.0000 C   0  0  0  0  0  0  0  0  0  0  0  0
   -0.3464    0.2690    0.0000 C   0  0  0  0  0  0  0  0  0  0  0  0
   -0.3492    1.0995    0.0000 C   0  0  0  0  0  0  0  0  0  0  0  0
   -1.0646    1.5086    0.0000 C   0  0  0  0  0  0  0  0  0  0  0  0
   -1.0671    2.3336    0.0000 O   0  0  0  0  0  0  0  0  0  0  0  0
   -2.4910    1.5082    0.0000 O   0  0  0  0  0  0  0  0  0  0  0  0
   -2.4924   -0.1434    0.0000 O   0  0  0  0  0  0  0  0  0  0  0  0
   -2.4912    2.3332    0.0000 C   0  0  0  0  0  0  0  0  0  0  0  0
   -0.3538    2.7483    0.0000 C   0  0  0  0  0  0  0  0  0  0  0  0
   -3.2066    0.2696    0.0000 C   0  0  0  0  0  0  0  0  0  0  0  0
    0.3688   -0.1424    0.0000 C   0  0  0  0  0  0  0  0  0  0  0  0
    0.3700   -0.9674    0.0000 O   0  0  0  0  0  0  0  0  0  0  0  0
    1.0826    0.2712    0.0000 O   0  0  0  0  0  0  0  0  0  0  0  0
    1.7977   -0.1402    0.0000 C   0  0  0  0  0  0  0  0  0  0  0  0
    1.7949   -0.9678    0.0000 C   0  0  0  0  0  0  0  0  0  0  0  0
    2.5059   -1.3791    0.0000 C   0  0  0  0  0  0  0  0  0  0  0  0
    3.2222   -0.9690    0.0000 C   0  0  0  0  0  0  0  0  0  0  0  0
    3.2229   -0.1430    0.0000 C   0  0  0  0  0  0  0  0  0  0  0  0
    2.5073    0.2729    0.0000 C   0  0  0  0  0  0  0  0  0  0  0  0
    3.9358   -1.3830    0.0000 N   0  0  0  0  0  0  0  0  0  0  0  0
    3.9339   -2.2080    0.0000 C   0  0  0  0  0  0  0  0  0  0  0  0
    4.6511   -0.9721    0.0000 C   0  0  0  0  0  0  0  0  0  0  0  0
    5.3666   -1.3911    0.0000 C   0  0  0  0  0  0  0  0  0  0  0  0
    6.0798   -0.9837    0.0000 C   0  0  0  0  0  0  0  0  0  0  0  0
    6.0859   -0.1583    0.0000 C   0  0  0  0  0  0  0  0  0  0  0  0
    5.3725    0.2579    0.0000 C   0  0  0  0  0  0  0  0  0  0  0  0
    4.6531   -0.1511    0.0000 C   0  0  0  0  0  0  0  0  0  0  0  0
    6.8029    0.2499    0.0000 O   0  0  0  0  0  0  0  0  0  0  0  0
    7.5149   -0.1669    0.0000 C   0  0  0  0  0  0  0  0  0  0  0  0
    7.5099   -0.9919    0.0000 O   0  0  0  0  0  0  0  0  0  0  0  0
    8.2318    0.2413    0.0000 C   0  0  0  0  0  0  0  0  0  0  0  0
    8.9438   -0.1755    0.0000 C   0  0  0  0  0  0  0  0  0  0  0  0
    9.6607    0.2327    0.0000 C   0  0  0  0  0  0  0  0  0  0  0  0
   10.3705   -0.1887    0.0000 C   0  0  0  0  0  0  0  0  0  0  0  0
   11.0869    0.2188    0.0000 C   0  0  0  0  0  0  0  0  0  0  0  0
   11.0923    1.0446    0.0000 C   0  0  0  0  0  0  0  0  0  0  0  0
   10.3753    1.4613    0.0000 C   0  0  0  0  0  0  0  0  0  0  0  0
    9.6618    1.0514    0.0000 C   0  0  0  0  0  0  0  0  0  0  0  0
   11.8087    1.4538    0.0000 O   0  0  0  0  0  0  0  0  0  0  0  0
   12.5212    1.0380    0.0000 C   0  0  0  0  0  0  0  0  0  0  0  0
   10.3773    2.2863    0.0000 O   0  0  0  0  0  0  0  0  0  0  0  0
   11.0928    2.6970    0.0000 C   0  0  0  0  0  0  0  0  0  0  0  0
   11.7987   -0.1983    0.0000 O   0  0  0  0  0  0  0  0  0  0  0  0
   11.7934   -1.0233    0.0000 C   0  0  0  0  0  0  0  0  0  0  0  0
 22 23  1  0
  5  6  1  0
 22 24  1  0
 24 25  1  0
  9 12  1  0
  6  1  2  0
  4 13  1  0
  1  2  1  0
 13 14  2  0
 24 29  1  0
 25 26  1  0
 26 27  1  0
 27 28  1  0
 28 29  1  0
  6  7  1  0
 27 30  1  0
 13 15  1  0
 30 31  1  0
  3  4  1  0
 31 32  2  0
 16 15  1  0
 31 33  1  0
 16 17  1  0
 33 34  1  0
  1  8  1  0
 34 35  1  0
 35 36  2  0
  2  9  1  0
 36 37  1  0
  4  5  2  0
 37 38  2  0
  8 10  1  0
 38 39  1  0
 16 21  1  0
 39 40  2  0
 40 35  1  0
 17 18  1  0
 38 41  1  0
 18 19  1  0
 41 42  1  0
 19 20  1  0
 39 43  1  0
 20 21  1  0
 43 44  1  0
  2  3  2  0
 37 45  1  0
 19 22  1  0
 45 46  1  0
  7 11  1  0
M  END
>  <Classification>  (318) 
1

>  <pchembl>  (318) 
6.2

>  <InChI_steorem>  (318) 
InChI=1S/C35H49NO10/c1-36(25-11-15-27(16-12-25)46-35(38)23-20-30(41-4)34(44-7)31(21-23)42-5)24-9-13-26(14-10-24)45-32(37)17-8-22-18-28(39-2)33(43-6)29(19-22)40-3/h18-21,24-27H,8-17H2,1-7H3

>  <source>  (318) 
ChEMBL25

>  <source_id>  (318) 
25

>  <optional_reference>  (318) 
10.1016/j.bmc.2012.11.019

>  <optional_origin>  (318) 
None

>  <target>  (318) 
MDR1

$$$$

     RDKit          2D

 46 49  0  0  0  0  0  0  0  0999 V2000
   -2.1139    0.3417    0.0000 C   0  0  0  0  0  0  0  0  0  0  0  0
   -2.1151   -0.4857    0.0000 C   0  0  0  0  0  0  0  0  0  0  0  0
   -1.4003   -0.8986    0.0000 C   0  0  0  0  0  0  0  0  0  0  0  0
   -0.6838   -0.4852    0.0000 C   0  0  0  0  0  0  0  0  0  0  0  0
   -0.6867    0.3453    0.0000 C   0  0  0  0  0  0  0  0  0  0  0  0
   -1.4021    0.7544    0.0000 C   0  0  0  0  0  0  0  0  0  0  0  0
   -1.4045    1.5794    0.0000 O   0  0  0  0  0  0  0  0  0  0  0  0
   -2.8285    0.7540    0.0000 O   0  0  0  0  0  0  0  0  0  0  0  0
   -2.8299   -0.8976    0.0000 O   0  0  0  0  0  0  0  0  0  0  0  0
   -2.8287    1.5790    0.0000 C   0  0  0  0  0  0  0  0  0  0  0  0
   -0.6913    1.9941    0.0000 C   0  0  0  0  0  0  0  0  0  0  0  0
   -3.5440   -0.4846    0.0000 C   0  0  0  0  0  0  0  0  0  0  0  0
    0.0313   -0.8966    0.0000 C   0  0  0  0  0  0  0  0  0  0  0  0
    0.0326   -1.7216    0.0000 O   0  0  0  0  0  0  0  0  0  0  0  0
    0.7451   -0.4830    0.0000 O   0  0  0  0  0  0  0  0  0  0  0  0
    1.4602   -0.8944    0.0000 C   0  0  0  0  0  0  0  0  0  0  0  0
    1.4575   -1.7220    0.0000 C   0  0  0  0  0  0  0  0  0  0  0  0
    2.1685   -2.1333    0.0000 C   0  0  0  0  0  0  0  0  0  0  0  0
    2.8847   -1.7232    0.0000 C   0  0  0  0  0  0  0  0  0  0  0  0
    2.8854   -0.8972    0.0000 C   0  0  0  0  0  0  0  0  0  0  0  0
    2.1698   -0.4813    0.0000 C   0  0  0  0  0  0  0  0  0  0  0  0
    3.5983   -2.1372    0.0000 N   0  0  0  0  0  0  0  0  0  0  0  0
    3.5965   -2.9622    0.0000 C   0  0  0  0  0  0  0  0  0  0  0  0
    4.3137   -1.7263    0.0000 C   0  0  0  0  0  0  0  0  0  0  0  0
    5.0291   -2.1453    0.0000 C   0  0  0  0  0  0  0  0  0  0  0  0
    5.7424   -1.7379    0.0000 C   0  0  0  0  0  0  0  0  0  0  0  0
    5.7485   -0.9125    0.0000 C   0  0  0  0  0  0  0  0  0  0  0  0
    5.0351   -0.4963    0.0000 C   0  0  0  0  0  0  0  0  0  0  0  0
    4.3156   -0.9053    0.0000 C   0  0  0  0  0  0  0  0  0  0  0  0
    6.4654   -0.5043    0.0000 O   0  0  0  0  0  0  0  0  0  0  0  0
    7.1774   -0.9211    0.0000 C   0  0  0  0  0  0  0  0  0  0  0  0
    7.1724   -1.7461    0.0000 O   0  0  0  0  0  0  0  0  0  0  0  0
    7.8943   -0.5129    0.0000 C   0  0  0  0  0  0  0  0  0  0  0  0
    8.6063   -0.9297    0.0000 C   0  0  0  0  0  0  0  0  0  0  0  0
    9.3232   -0.5215    0.0000 C   0  0  0  0  0  0  0  0  0  0  0  0
   10.0330   -0.9429    0.0000 C   0  0  0  0  0  0  0  0  0  0  0  0
   10.7495   -0.5354    0.0000 C   0  0  0  0  0  0  0  0  0  0  0  0
   10.7549    0.2904    0.0000 C   0  0  0  0  0  0  0  0  0  0  0  0
   10.0378    0.7071    0.0000 C   0  0  0  0  0  0  0  0  0  0  0  0
    9.3243    0.2972    0.0000 C   0  0  0  0  0  0  0  0  0  0  0  0
   11.4712    0.6996    0.0000 O   0  0  0  0  0  0  0  0  0  0  0  0
   12.1838    0.2838    0.0000 C   0  0  0  0  0  0  0  0  0  0  0  0
   10.0399    1.5321    0.0000 O   0  0  0  0  0  0  0  0  0  0  0  0
   10.7554    1.9428    0.0000 C   0  0  0  0  0  0  0  0  0  0  0  0
   11.4612   -0.9525    0.0000 O   0  0  0  0  0  0  0  0  0  0  0  0
   11.4559   -1.7775    0.0000 C   0  0  0  0  0  0  0  0  0  0  0  0
 22 23  1  0
  5  6  1  0
 22 24  1  0
 24 25  1  0
  9 12  1  0
  6  1  2  0
  4 13  1  0
  1  2  1  0
 13 14  2  0
 24 29  1  0
 25 26  1  0
 26 27  1  0
 27 28  1  0
 28 29  1  0
  6  7  1  0
 27 30  1  0
 13 15  1  0
 30 31  1  0
  3  4  1  0
 31 32  2  0
 16 15  1  0
 31 33  1  0
 16 17  1  0
 33 34  2  3
  1  8  1  0
 34 35  1  0
 35 36  2  0
  2  9  1  0
 36 37  1  0
  4  5  2  0
 37 38  2  0
  8 10  1  0
 38 39  1  0
 16 21  1  0
 39 40  2  0
 40 35  1  0
 17 18  1  0
 38 41  1  0
 18 19  1  0
 41 42  1  0
 19 20  1  0
 39 43  1  0
 20 21  1  0
 43 44  1  0
  2  3  2  0
 37 45  1  0
 19 22  1  0
 45 46  1  0
  7 11  1  0
M  END
>  <Classification>  (319) 
1

>  <pchembl>  (319) 
7.04

>  <InChI_steorem>  (319) 
InChI=1S/C35H47NO10/c1-36(25-11-15-27(16-12-25)46-35(38)23-20-30(41-4)34(44-7)31(21-23)42-5)24-9-13-26(14-10-24)45-32(37)17-8-22-18-28(39-2)33(43-6)29(19-22)40-3/h8,17-21,24-27H,9-16H2,1-7H3

>  <source>  (319) 
ChEMBL25

>  <source_id>  (319) 
25

>  <optional_reference>  (319) 
10.1016/j.bmc.2012.11.019

>  <optional_origin>  (319) 
None

>  <target>  (319) 
MDR1

$$$$

     RDKit          2D

 46 50  0  0  0  0  0  0  0  0999 V2000
   -2.5800    0.7500    0.0000 C   0  0  0  0  0  0  0  0  0  0  0  0
   -2.5800    2.2400    0.0000 C   0  0  0  0  0  0  0  0  0  0  0  0
   -1.2900    3.0200    0.0000 C   0  0  0  0  0  0  0  0  0  0  0  0
   -1.2900    0.0100    0.0000 C   0  0  0  0  0  0  0  0  0  0  0  0
    0.0000    0.7400    0.0000 C   0  0  0  0  0  0  0  0  0  0  0  0
    0.0000    2.2900    0.0000 C   0  0  0  0  0  0  0  0  0  0  0  0
    1.3200    1.5200    0.0000 C   0  0  0  0  0  0  0  0  0  0  0  0
    3.2600    1.5200    0.0000 C   0  0  0  0  0  0  0  0  0  0  0  0
    2.5900    0.1900    0.0000 C   0  0  0  0  0  0  0  0  0  0  0  0
    1.1200   -0.1300    0.0000 C   0  0  0  0  0  0  0  0  0  0  0  0
   -1.2961   -1.4911    0.0000 O   0  0  0  0  0  0  0  0  0  0  0  0
   -3.8799   -0.0003    0.0000 O   0  0  0  0  0  0  0  0  0  0  0  0
   -5.1801    0.7495    0.0000 C   0  0  0  0  0  0  0  0  0  0  0  0
   -6.2194    0.1497    0.0000 O   0  0  0  0  0  0  0  0  0  0  0  0
   -2.5984   -2.2371    0.0000 C   0  0  0  0  0  0  0  0  0  0  0  0
   -2.6025   -3.2371    0.0000 O   0  0  0  0  0  0  0  0  0  0  0  0
   -3.6354   -1.6332    0.0000 C   0  0  0  0  0  0  0  0  0  0  0  0
   -0.0872   -0.4568    0.0000 C   0  0  0  0  0  0  0  0  0  0  0  0
    0.7561   -1.5887    0.0000 O   0  0  0  0  0  0  0  0  0  0  0  0
    1.8352   -2.6317    0.0000 C   0  0  0  0  0  0  0  0  0  0  0  0
    1.4724   -4.0880    0.0000 C   0  0  0  0  0  0  0  0  0  0  0  0
    2.7965   -2.3562    0.0000 O   0  0  0  0  0  0  0  0  0  0  0  0
    2.5494   -5.1321    0.0000 C   0  0  0  0  0  0  0  0  0  0  0  0
    2.1839   -6.5869    0.0000 C   0  0  0  0  0  0  0  0  0  0  0  0
    0.7412   -6.9977    0.0000 C   0  0  0  0  0  0  0  0  0  0  0  0
   -0.3359   -5.9537    0.0000 C   0  0  0  0  0  0  0  0  0  0  0  0
    0.0297   -4.4989    0.0000 C   0  0  0  0  0  0  0  0  0  0  0  0
   -0.2456    3.6110    0.0000 O   0  0  0  0  0  0  0  0  0  0  0  0
   -2.3510    3.5807    0.0000 C   0  0  0  0  0  0  0  0  0  0  0  0
    1.1200    3.2400    0.0000 O   0  0  0  0  0  0  0  0  0  0  0  0
    2.5900    2.9100    0.0000 C   0  0  0  0  0  0  0  0  0  0  0  0
    3.7711    2.6979    0.0000 C   0  0  0  0  0  0  0  0  0  0  0  0
    2.1162    4.0125    0.0000 C   0  0  0  0  0  0  0  0  0  0  0  0
    1.0068    0.3616    0.0000 O   0  0  0  0  0  0  0  0  0  0  0  0
    3.5169   -0.9931    0.0000 O   0  0  0  0  0  0  0  0  0  0  0  0
    5.0029   -0.7830    0.0000 C   0  0  0  0  0  0  0  0  0  0  0  0
    5.9286   -1.9644    0.0000 C   0  0  0  0  0  0  0  0  0  0  0  0
    7.4147   -1.7544    0.0000 C   0  0  0  0  0  0  0  0  0  0  0  0
    8.3403   -2.9357    0.0000 C   0  0  0  0  0  0  0  0  0  0  0  0
    9.8259   -2.7280    0.0000 C   0  0  0  0  0  0  0  0  0  0  0  0
   10.7487   -3.9106    0.0000 C   0  0  0  0  0  0  0  0  0  0  0  0
   10.1859   -5.3010    0.0000 C   0  0  0  0  0  0  0  0  0  0  0  0
    8.7004   -5.5088    0.0000 C   0  0  0  0  0  0  0  0  0  0  0  0
    7.7776   -4.3262    0.0000 C   0  0  0  0  0  0  0  0  0  0  0  0
   -5.1803    1.9495    0.0000 C   0  0  0  0  0  0  0  0  0  0  0  0
    5.4512    0.3301    0.0000 O   0  0  0  0  0  0  0  0  0  0  0  0
  1  2  1  0
  1  4  1  0
  2  3  1  0
  3  6  1  0
  5  4  1  0
  5  6  1  0
  5 10  1  0
  6  7  1  0
  7  8  1  0
  8  9  1  0
  9 10  1  0
  4 11  1  0
  1 12  1  0
 12 13  1  0
 13 14  2  0
 11 15  1  0
 15 16  2  0
 15 17  1  0
  5 18  1  0
 10 19  1  0
 19 20  1  0
 20 21  1  0
 20 22  2  0
 21 23  2  0
 23 24  1  0
 24 25  2  0
 25 26  1  0
 26 27  2  0
 27 21  1  0
  3 28  1  0
  3 29  1  0
  6 30  1  0
  8 31  1  0
 30 31  1  0
 31 32  1  0
 31 33  1  0
  7 34  1  0
  9 35  1  0
 35 36  1  0
 36 37  1  0
 37 38  2  3
 38 39  1  0
 39 40  2  0
 40 41  1  0
 41 42  2  0
 42 43  1  0
 43 44  2  0
 44 39  1  0
 13 45  1  0
 36 46  2  0
M  END
>  <Classification>  (320) 
1

>  <pchembl>  (320) 
6.38

>  <InChI_steorem>  (320) 
InChI=1S/C35H40O11/c1-20(36)42-24-19-33(5,41)35-28(39)26(32(3,4)46-35)27(44-25(38)18-17-22-13-9-7-10-14-22)30(34(35,6)29(24)43-21(2)37)45-31(40)23-15-11-8-12-16-23/h7-18,24,26-30,39,41H,19H2,1-6H3

>  <source>  (320) 
ChEMBL25

>  <source_id>  (320) 
25

>  <optional_reference>  (320) 
10.1021/np500903a

>  <optional_origin>  (320) 
None

>  <target>  (320) 
MDR1

$$$$

     RDKit          2D

 46 51  0  0  0  0  0  0  0  0999 V2000
    2.2790   -0.4642    0.0000 C   0  0  0  0  0  0  0  0  0  0  0  0
    2.9799    0.8507    0.0000 C   0  0  0  0  0  0  0  0  0  0  0  0
    2.2085    2.1458    0.0000 C   0  0  0  0  0  0  0  0  0  0  0  0
    0.7926   -0.5104    0.0000 C   0  0  0  0  0  0  0  0  0  0  0  0
   -0.0024    0.7406    0.0000 C   0  0  0  0  0  0  0  0  0  0  0  0
    0.7267    2.1084    0.0000 C   0  0  0  0  0  0  0  0  0  0  0  0
   -0.8003    2.0498    0.0000 C   0  0  0  0  0  0  0  0  0  0  0  0
   -2.5123    2.9624    0.0000 C   0  0  0  0  0  0  0  0  0  0  0  0
   -2.5467    1.4736    0.0000 C   0  0  0  0  0  0  0  0  0  0  0  0
   -1.4000    0.4997    0.0000 C   0  0  0  0  0  0  0  0  0  0  0  0
    0.5882   -1.9975    0.0000 O   0  0  0  0  0  0  0  0  0  0  0  0
   -0.4884   -0.3566    0.0000 C   0  0  0  0  0  0  0  0  0  0  0  0
   -1.7650   -0.9587    0.0000 O   0  0  0  0  0  0  0  0  0  0  0  0
   -1.1086   -2.3084    0.0000 C   0  0  0  0  0  0  0  0  0  0  0  0
   -1.9485   -3.5522    0.0000 C   0  0  0  0  0  0  0  0  0  0  0  0
   -0.1111   -2.3790    0.0000 O   0  0  0  0  0  0  0  0  0  0  0  0
   -3.4451   -3.4499    0.0000 C   0  0  0  0  0  0  0  0  0  0  0  0
   -4.2820   -4.6947    0.0000 C   0  0  0  0  0  0  0  0  0  0  0  0
   -3.6224   -6.0419    0.0000 C   0  0  0  0  0  0  0  0  0  0  0  0
   -2.1259   -6.1443    0.0000 C   0  0  0  0  0  0  0  0  0  0  0  0
   -1.2890   -4.8995    0.0000 C   0  0  0  0  0  0  0  0  0  0  0  0
    0.1852    3.4736    0.0000 O   0  0  0  0  0  0  0  0  0  0  0  0
   -1.2672    3.8739    0.0000 C   0  0  0  0  0  0  0  0  0  0  0  0
   -2.4093    4.2423    0.0000 C   0  0  0  0  0  0  0  0  0  0  0  0
   -0.3305    4.6239    0.0000 C   0  0  0  0  0  0  0  0  0  0  0  0
   -1.4709    0.7010    0.0000 O   0  0  0  0  0  0  0  0  0  0  0  0
   -2.9689    0.6096    0.0000 N   0  0  0  0  0  0  0  0  0  0  0  0
    1.7730   -2.9187    0.0000 C   0  0  0  0  0  0  0  0  0  0  0  0
    1.6368   -3.9094    0.0000 O   0  0  0  0  0  0  0  0  0  0  0  0
    2.8844   -2.4662    0.0000 C   0  0  0  0  0  0  0  0  0  0  0  0
    3.0733   -1.7377    0.0000 O   0  0  0  0  0  0  0  0  0  0  0  0
    4.5733   -1.6877    0.0000 C   0  0  0  0  0  0  0  0  0  0  0  0
    5.3674   -2.9611    0.0000 C   0  0  0  0  0  0  0  0  0  0  0  0
    5.1379   -0.6288    0.0000 O   0  0  0  0  0  0  0  0  0  0  0  0
    6.8667   -2.9133    0.0000 C   0  0  0  0  0  0  0  0  0  0  0  0
    7.6578   -4.1877    0.0000 C   0  0  0  0  0  0  0  0  0  0  0  0
    6.9497   -5.5100    0.0000 C   0  0  0  0  0  0  0  0  0  0  0  0
    5.4505   -5.5580    0.0000 C   0  0  0  0  0  0  0  0  0  0  0  0
    4.6594   -4.2836    0.0000 C   0  0  0  0  0  0  0  0  0  0  0  0
    2.7882    3.1965    0.0000 C   0  0  0  0  0  0  0  0  0  0  0  0
   -3.7541   -0.6536    0.0000 C   0  0  0  0  0  0  0  0  0  0  0  0
   -5.2060   -0.2769    0.0000 C   0  0  0  0  0  0  0  0  0  0  0  0
   -5.2965    1.2204    0.0000 C   0  0  0  0  0  0  0  0  0  0  0  0
   -3.9004    1.7690    0.0000 C   0  0  0  0  0  0  0  0  0  0  0  0
   -3.5922    2.9288    0.0000 O   0  0  0  0  0  0  0  0  0  0  0  0
   -3.3085   -1.7678    0.0000 O   0  0  0  0  0  0  0  0  0  0  0  0
  1  2  1  0
  1  4  1  0
  2  3  1  0
  3  6  1  0
  5  4  1  0
  5  6  1  0
  5 10  1  0
  6  7  1  0
  7  8  1  0
  8  9  1  0
  9 10  1  0
  4 11  1  0
  5 12  1  0
 10 13  1  0
 13 14  1  0
 14 15  1  0
 14 16  2  0
 15 17  2  0
 17 18  1  0
 18 19  2  0
 19 20  1  0
 20 21  2  0
 21 15  1  0
  6 22  1  0
  8 23  1  0
 22 23  1  0
 23 24  1  0
 23 25  1  0
  7 26  1  0
 26 27  1  0
 11 28  1  0
 28 29  2  0
 28 30  1  0
  1 31  1  0
 31 32  1  0
 32 33  1  0
 32 34  2  0
 33 35  2  0
 35 36  1  0
 36 37  2  0
 37 38  1  0
 38 39  2  0
 39 33  1  0
  3 40  1  0
 27 41  1  0
 41 42  1  0
 42 43  1  0
 43 44  1  0
 44 27  1  0
 44 45  2  0
 41 46  2  0
M  END
>  <Classification>  (321) 
1

>  <pchembl>  (321) 
6.54

>  <InChI_steorem>  (321) 
InChI=1S/C35H39NO10/c1-20-18-25(43-31(40)22-12-8-6-9-13-22)30(42-21(2)37)34(5)26(44-32(41)23-14-10-7-11-15-23)19-24-29(35(20,34)46-33(24,3)4)45-36-27(38)16-17-28(36)39/h6-15,20,24-26,29-30H,16-19H2,1-5H3

>  <source>  (321) 
ChEMBL25

>  <source_id>  (321) 
25

>  <optional_reference>  (321) 
10.1021/np500903a

>  <optional_origin>  (321) 
None

>  <target>  (321) 
MDR1

$$$$

     RDKit          2D

 51 55  0  0  0  0  0  0  0  0999 V2000
   -0.7234    2.3216    0.0000 C   0  0  0  0  0  0  0  0  0  0  0  0
   -0.2138    3.7218    0.0000 C   0  0  0  0  0  0  0  0  0  0  0  0
    1.2652    4.0135    0.0000 C   0  0  0  0  0  0  0  0  0  0  0  0
    0.2357    1.1850    0.0000 C   0  0  0  0  0  0  0  0  0  0  0  0
    1.6976    1.4298    0.0000 C   0  0  0  0  0  0  0  0  0  0  0  0
    2.2277    2.8863    0.0000 C   0  0  0  0  0  0  0  0  0  0  0  0
    3.2047    1.7113    0.0000 C   0  0  0  0  0  0  0  0  0  0  0  0
    5.0277    1.0478    0.0000 C   0  0  0  0  0  0  0  0  0  0  0  0
    3.9433    0.0272    0.0000 C   0  0  0  0  0  0  0  0  0  0  0  0
    2.4525    0.2292    0.0000 C   0  0  0  0  0  0  0  0  0  0  0  0
   -1.2437    0.9304    0.0000 O   0  0  0  0  0  0  0  0  0  0  0  0
   -1.6884    1.1720    0.0000 O   0  0  0  0  0  0  0  0  0  0  0  0
   -3.1665    1.4319    0.0000 C   0  0  0  0  0  0  0  0  0  0  0  0
   -3.9371    0.5120    0.0000 C   0  0  0  0  0  0  0  0  0  0  0  0
   -3.5782    2.5591    0.0000 O   0  0  0  0  0  0  0  0  0  0  0  0
   -2.2138   -0.2147    0.0000 C   0  0  0  0  0  0  0  0  0  0  0  0
   -1.8768   -1.1562    0.0000 O   0  0  0  0  0  0  0  0  0  0  0  0
   -3.3945   -0.0004    0.0000 C   0  0  0  0  0  0  0  0  0  0  0  0
    0.7854    2.6231    0.0000 C   0  0  0  0  0  0  0  0  0  0  0  0
    2.0885   -1.2295    0.0000 O   0  0  0  0  0  0  0  0  0  0  0  0
    3.1677   -2.2725    0.0000 C   0  0  0  0  0  0  0  0  0  0  0  0
    2.8049   -3.7288    0.0000 C   0  0  0  0  0  0  0  0  0  0  0  0
    4.1290   -1.9970    0.0000 O   0  0  0  0  0  0  0  0  0  0  0  0
    4.1740   -4.3415    0.0000 C   0  0  0  0  0  0  0  0  0  0  0  0
    4.3281   -5.8336    0.0000 C   0  0  0  0  0  0  0  0  0  0  0  0
    3.1129   -6.7130    0.0000 C   0  0  0  0  0  0  0  0  0  0  0  0
    1.7437   -6.1004    0.0000 C   0  0  0  0  0  0  0  0  0  0  0  0
    1.5897   -4.6083    0.0000 C   0  0  0  0  0  0  0  0  0  0  0  0
    2.4487    4.2116    0.0000 O   0  0  0  0  0  0  0  0  0  0  0  0
    0.4600    4.9033    0.0000 C   0  0  0  0  0  0  0  0  0  0  0  0
    3.6051    3.3960    0.0000 O   0  0  0  0  0  0  0  0  0  0  0  0
    4.8736    2.5831    0.0000 C   0  0  0  0  0  0  0  0  0  0  0  0
    5.9109    1.9799    0.0000 C   0  0  0  0  0  0  0  0  0  0  0  0
    4.8054    3.7812    0.0000 C   0  0  0  0  0  0  0  0  0  0  0  0
    2.6496    0.3111    0.0000 O   0  0  0  0  0  0  0  0  0  0  0  0
   -0.7032    2.4321    0.0000 O   0  0  0  0  0  0  0  0  0  0  0  0
   -1.6137    3.6252    0.0000 C   0  0  0  0  0  0  0  0  0  0  0  0
   -2.6055    3.4980    0.0000 O   0  0  0  0  0  0  0  0  0  0  0  0
   -1.1511    4.7325    0.0000 C   0  0  0  0  0  0  0  0  0  0  0  0
    4.4096   -1.4016    0.0000 O   0  0  0  0  0  0  0  0  0  0  0  0
    5.8779   -1.7125    0.0000 C   0  0  0  0  0  0  0  0  0  0  0  0
    6.2503   -2.8532    0.0000 O   0  0  0  0  0  0  0  0  0  0  0  0
    6.6799   -0.8198    0.0000 C   0  0  0  0  0  0  0  0  0  0  0  0
    1.1645    0.0944    0.0000 C   0  0  0  0  0  0  0  0  0  0  0  0
    0.6087   -1.2997    0.0000 C   0  0  0  0  0  0  0  0  0  0  0  0
    0.4211    1.0363    0.0000 O   0  0  0  0  0  0  0  0  0  0  0  0
   -0.8753   -1.5185    0.0000 C   0  0  0  0  0  0  0  0  0  0  0  0
   -1.4279   -2.9129    0.0000 C   0  0  0  0  0  0  0  0  0  0  0  0
   -0.4966   -4.0888    0.0000 C   0  0  0  0  0  0  0  0  0  0  0  0
    0.9874   -3.8702    0.0000 C   0  0  0  0  0  0  0  0  0  0  0  0
    1.5400   -2.4757    0.0000 C   0  0  0  0  0  0  0  0  0  0  0  0
  1  2  1  0
  1  4  1  0
  2  3  1  0
  3  6  1  0
  5  4  1  0
  5  6  1  0
  5 10  1  0
  6  7  1  0
  7  8  1  0
  8  9  1  0
  9 10  1  0
  4 11  1  0
  1 12  1  0
 12 13  1  0
 13 14  1  0
 13 15  2  0
 11 16  1  0
 16 17  2  0
 16 18  1  0
  5 19  1  0
 10 20  1  0
 20 21  1  0
 21 22  1  0
 21 23  2  0
 22 24  2  0
 24 25  1  0
 25 26  2  0
 26 27  1  0
 27 28  2  0
 28 22  1  0
  3 29  1  0
  3 30  1  0
  6 31  1  0
  8 32  1  0
 31 32  1  0
 32 33  1  0
 32 34  1  0
  7 35  1  0
 19 36  1  0
 36 37  1  0
 37 38  2  0
 37 39  1  0
  9 40  1  0
 40 41  1  0
 41 42  2  0
 41 43  1  0
 35 44  1  0
 44 45  1  0
 44 46  2  0
 45 47  2  0
 47 48  1  0
 48 49  2  0
 49 50  1  0
 50 51  2  0
 51 45  1  0
M  END
>  <Classification>  (322) 
1

>  <pchembl>  (322) 
6.11

>  <InChI_steorem>  (322) 
InChI=1S/C37H42O14/c1-20(38)45-19-36-29(48-23(4)41)26(46-21(2)39)18-35(7,44)37(36)30(49-32(42)24-14-10-8-11-15-24)27(34(5,6)51-37)28(47-22(3)40)31(36)50-33(43)25-16-12-9-13-17-25/h8-17,26-31,44H,18-19H2,1-7H3

>  <source>  (322) 
ChEMBL25

>  <source_id>  (322) 
25

>  <optional_reference>  (322) 
10.1021/np500903a

>  <optional_origin>  (322) 
None

>  <target>  (322) 
MDR1

$$$$

     RDKit          2D

 27 29  0  0  0  0  0  0  0  0999 V2000
   -2.6111    0.7486    0.0000 C   0  0  0  0  0  0  0  0  0  0  0  0
   -2.6111   -0.7486    0.0000 C   0  0  0  0  0  0  0  0  0  0  0  0
   -1.2964   -1.4973    0.0000 C   0  0  0  0  0  0  0  0  0  0  0  0
   -1.2964    1.4973    0.0000 C   0  0  0  0  0  0  0  0  0  0  0  0
    0.0000    0.7486    0.0000 C   0  0  0  0  0  0  0  0  0  0  0  0
    0.0000   -0.7486    0.0000 C   0  0  0  0  0  0  0  0  0  0  0  0
    1.2964   -1.4973    0.0000 C   0  0  0  0  0  0  0  0  0  0  0  0
    2.5929   -0.7486    0.0000 C   0  0  0  0  0  0  0  0  0  0  0  0
    2.5929    0.7486    0.0000 C   0  0  0  0  0  0  0  0  0  0  0  0
    1.2964    1.4973    0.0000 O   0  0  0  0  0  0  0  0  0  0  0  0
   -1.2907   -2.9981    0.0000 O   0  0  0  0  0  0  0  0  0  0  0  0
   -3.9091    1.5019    0.0000 O   0  0  0  0  0  0  0  0  0  0  0  0
    3.8926    1.4990    0.0000 C   0  0  0  0  0  0  0  0  0  0  0  0
    3.8951    2.9990    0.0000 C   0  0  0  0  0  0  0  0  0  0  0  0
    5.1953    3.7469    0.0000 C   0  0  0  0  0  0  0  0  0  0  0  0
    6.4931    2.9949    0.0000 C   0  0  0  0  0  0  0  0  0  0  0  0
    6.4907    1.4949    0.0000 C   0  0  0  0  0  0  0  0  0  0  0  0
    5.1905    0.7469    0.0000 C   0  0  0  0  0  0  0  0  0  0  0  0
    7.7878    0.7397    0.0000 O   0  0  0  0  0  0  0  0  0  0  0  0
    7.7956    3.7405    0.0000 O   0  0  0  0  0  0  0  0  0  0  0  0
    5.1946    5.2478    0.0000 O   0  0  0  0  0  0  0  0  0  0  0  0
    3.6321   -1.3486    0.0000 O   0  0  0  0  0  0  0  0  0  0  0  0
   -3.9072    2.7019    0.0000 C   0  0  0  0  0  0  0  0  0  0  0  0
   -2.3272   -3.6028    0.0000 C   0  0  0  0  0  0  0  0  0  0  0  0
    4.1555    5.8480    0.0000 C   0  0  0  0  0  0  0  0  0  0  0  0
    8.8331    3.1374    0.0000 C   0  0  0  0  0  0  0  0  0  0  0  0
    7.7841   -0.4603    0.0000 C   0  0  0  0  0  0  0  0  0  0  0  0
  1  2  2  0
  2  3  1  0
  3  6  2  0
  5  4  2  0
  4  1  1  0
  5  6  1  0
  5 10  1  0
  6  7  1  0
  7  8  1  0
  8  9  1  0
  9 10  1  0
  3 11  1  0
  1 12  1  0
 13 14  2  0
 14 15  1  0
 15 16  2  0
 16 17  1  0
 17 18  2  0
 18 13  1  0
  9 13  1  0
 17 19  1  0
 16 20  1  0
 15 21  1  0
  8 22  1  0
 12 23  1  0
 11 24  1  0
 21 25  1  0
 20 26  1  0
 19 27  1  0
M  END
>  <Classification>  (323) 
1

>  <pchembl>  (323) 
6.87

>  <InChI_steorem>  (323) 
InChI=1S/C20H24O7/c1-22-12-8-15(23-2)13-10-14(21)19(27-16(13)9-12)11-6-17(24-3)20(26-5)18(7-11)25-4/h6-9,14,19,21H,10H2,1-5H3

>  <source>  (323) 
ChEMBL25

>  <source_id>  (323) 
25

>  <optional_reference>  (323) 
10.1021/acs.jmedchem.5b00085

>  <optional_origin>  (323) 
None

>  <target>  (323) 
MDR1

$$$$

     RDKit          2D

 31 33  0  0  0  0  0  0  0  0999 V2000
   -2.6111    0.7486    0.0000 C   0  0  0  0  0  0  0  0  0  0  0  0
   -2.6111   -0.7486    0.0000 C   0  0  0  0  0  0  0  0  0  0  0  0
   -1.2964   -1.4973    0.0000 C   0  0  0  0  0  0  0  0  0  0  0  0
   -1.2964    1.4973    0.0000 C   0  0  0  0  0  0  0  0  0  0  0  0
    0.0000    0.7486    0.0000 C   0  0  0  0  0  0  0  0  0  0  0  0
    0.0000   -0.7486    0.0000 C   0  0  0  0  0  0  0  0  0  0  0  0
    1.2964   -1.4973    0.0000 C   0  0  0  0  0  0  0  0  0  0  0  0
    2.5929   -0.7486    0.0000 C   0  0  0  0  0  0  0  0  0  0  0  0
    2.5929    0.7486    0.0000 C   0  0  0  0  0  0  0  0  0  0  0  0
    1.2964    1.4973    0.0000 O   0  0  0  0  0  0  0  0  0  0  0  0
   -1.2907   -2.9981    0.0000 O   0  0  0  0  0  0  0  0  0  0  0  0
   -3.9091    1.5019    0.0000 O   0  0  0  0  0  0  0  0  0  0  0  0
    3.8926    1.4990    0.0000 C   0  0  0  0  0  0  0  0  0  0  0  0
    3.8951    2.9990    0.0000 C   0  0  0  0  0  0  0  0  0  0  0  0
    5.1953    3.7469    0.0000 C   0  0  0  0  0  0  0  0  0  0  0  0
    6.4931    2.9949    0.0000 C   0  0  0  0  0  0  0  0  0  0  0  0
    6.4907    1.4949    0.0000 C   0  0  0  0  0  0  0  0  0  0  0  0
    5.1905    0.7469    0.0000 C   0  0  0  0  0  0  0  0  0  0  0  0
    7.7878    0.7397    0.0000 O   0  0  0  0  0  0  0  0  0  0  0  0
    7.7956    3.7405    0.0000 O   0  0  0  0  0  0  0  0  0  0  0  0
    3.8911   -1.5017    0.0000 O   0  0  0  0  0  0  0  0  0  0  0  0
   -3.9072    2.7019    0.0000 C   0  0  0  0  0  0  0  0  0  0  0  0
    8.8331    3.1374    0.0000 C   0  0  0  0  0  0  0  0  0  0  0  0
    7.7841   -0.4603    0.0000 C   0  0  0  0  0  0  0  0  0  0  0  0
    1.2964   -2.6973    0.0000 O   0  0  0  0  0  0  0  0  0  0  0  0
   -2.3272   -3.6028    0.0000 C   0  0  0  0  0  0  0  0  0  0  0  0
    5.1946    5.2478    0.0000 O   0  0  0  0  0  0  0  0  0  0  0  0
    4.1555    5.8480    0.0000 C   0  0  0  0  0  0  0  0  0  0  0  0
    3.8890   -3.0026    0.0000 C   0  0  0  0  0  0  0  0  0  0  0  0
    2.8487   -3.6008    0.0000 C   0  0  0  0  0  0  0  0  0  0  0  0
    4.9270   -3.6047    0.0000 O   0  0  0  0  0  0  0  0  0  0  0  0
  1  2  2  0
  2  3  1  0
  3  6  2  0
  5  4  2  0
  4  1  1  0
  5  6  1  0
  5 10  1  0
  6  7  1  0
  7  8  1  0
  8  9  1  0
  9 10  1  0
  3 11  1  0
  1 12  1  0
 13 14  2  0
 14 15  1  0
 15 16  2  0
 16 17  1  0
 17 18  2  0
 18 13  1  0
  9 13  1  0
 17 19  1  0
 16 20  1  0
  8 21  1  0
 12 22  1  0
 20 23  1  0
 19 24  1  0
  7 25  2  0
 11 26  1  0
 27 28  1  0
 15 27  1  0
 21 29  1  0
 29 30  1  0
 29 31  2  0
M  END
>  <Classification>  (324) 
1

>  <pchembl>  (324) 
6.97

>  <InChI_steorem>  (324) 
InChI=1S/C22H24O9/c1-11(23)30-22-19(24)18-14(26-3)9-13(25-2)10-15(18)31-20(22)12-7-16(27-4)21(29-6)17(8-12)28-5/h7-10,20,22H,1-6H3

>  <source>  (324) 
ChEMBL25

>  <source_id>  (324) 
25

>  <optional_reference>  (324) 
10.1021/acs.jmedchem.5b00085

>  <optional_origin>  (324) 
None

>  <target>  (324) 
MDR1

$$$$

     RDKit          2D

 36 39  0  0  0  0  0  0  0  0999 V2000
   -2.6111    0.7486    0.0000 C   0  0  0  0  0  0  0  0  0  0  0  0
   -2.6111   -0.7486    0.0000 C   0  0  0  0  0  0  0  0  0  0  0  0
   -1.2964   -1.4973    0.0000 C   0  0  0  0  0  0  0  0  0  0  0  0
   -1.2964    1.4973    0.0000 C   0  0  0  0  0  0  0  0  0  0  0  0
    0.0000    0.7486    0.0000 C   0  0  0  0  0  0  0  0  0  0  0  0
    0.0000   -0.7486    0.0000 C   0  0  0  0  0  0  0  0  0  0  0  0
    1.2964   -1.4973    0.0000 C   0  0  0  0  0  0  0  0  0  0  0  0
    2.5929   -0.7486    0.0000 C   0  0  0  0  0  0  0  0  0  0  0  0
    2.5929    0.7486    0.0000 C   0  0  0  0  0  0  0  0  0  0  0  0
    1.2964    1.4973    0.0000 O   0  0  0  0  0  0  0  0  0  0  0  0
   -1.2907   -2.9981    0.0000 O   0  0  0  0  0  0  0  0  0  0  0  0
   -3.9091    1.5019    0.0000 O   0  0  0  0  0  0  0  0  0  0  0  0
    3.8926    1.4990    0.0000 C   0  0  0  0  0  0  0  0  0  0  0  0
    3.8951    2.9990    0.0000 C   0  0  0  0  0  0  0  0  0  0  0  0
    5.1953    3.7469    0.0000 C   0  0  0  0  0  0  0  0  0  0  0  0
    6.4931    2.9949    0.0000 C   0  0  0  0  0  0  0  0  0  0  0  0
    6.4907    1.4949    0.0000 C   0  0  0  0  0  0  0  0  0  0  0  0
    5.1905    0.7469    0.0000 C   0  0  0  0  0  0  0  0  0  0  0  0
    7.7878    0.7397    0.0000 O   0  0  0  0  0  0  0  0  0  0  0  0
    7.7956    3.7405    0.0000 O   0  0  0  0  0  0  0  0  0  0  0  0
    5.1946    5.2478    0.0000 O   0  0  0  0  0  0  0  0  0  0  0  0
    3.8911   -1.5017    0.0000 O   0  0  0  0  0  0  0  0  0  0  0  0
   -3.9072    2.7019    0.0000 C   0  0  0  0  0  0  0  0  0  0  0  0
   -2.3272   -3.6028    0.0000 C   0  0  0  0  0  0  0  0  0  0  0  0
    4.1555    5.8480    0.0000 C   0  0  0  0  0  0  0  0  0  0  0  0
    8.8331    3.1374    0.0000 C   0  0  0  0  0  0  0  0  0  0  0  0
    7.7841   -0.4603    0.0000 C   0  0  0  0  0  0  0  0  0  0  0  0
    3.8890   -3.0026    0.0000 C   0  0  0  0  0  0  0  0  0  0  0  0
    2.8487   -3.6008    0.0000 O   0  0  0  0  0  0  0  0  0  0  0  0
    5.1872   -3.7556    0.0000 C   0  0  0  0  0  0  0  0  0  0  0  0
    5.1872   -5.2557    0.0000 C   0  0  0  0  0  0  0  0  0  0  0  0
    6.4863   -6.0057    0.0000 C   0  0  0  0  0  0  0  0  0  0  0  0
    7.7853   -5.2557    0.0000 C   0  0  0  0  0  0  0  0  0  0  0  0
    7.7853   -3.7557    0.0000 C   0  0  0  0  0  0  0  0  0  0  0  0
    6.4863   -3.0057    0.0000 C   0  0  0  0  0  0  0  0  0  0  0  0
    8.8245   -5.8558    0.0000 F   0  0  0  0  0  0  0  0  0  0  0  0
  1  2  2  0
  2  3  1  0
  3  6  2  0
  5  4  2  0
  4  1  1  0
  5  6  1  0
  5 10  1  0
  6  7  1  0
  7  8  1  0
  8  9  1  0
  9 10  1  0
  3 11  1  0
  1 12  1  0
 13 14  2  0
 14 15  1  0
 15 16  2  0
 16 17  1  0
 17 18  2  0
 18 13  1  0
  9 13  1  0
 17 19  1  0
 16 20  1  0
 15 21  1  0
  8 22  1  0
 12 23  1  0
 11 24  1  0
 21 25  1  0
 20 26  1  0
 19 27  1  0
 22 28  1  0
 28 29  2  0
 28 30  1  0
 30 31  2  0
 31 32  1  0
 32 33  2  0
 33 34  1  0
 34 35  2  0
 35 30  1  0
 33 36  1  0
M  END
>  <Classification>  (325) 
1

>  <pchembl>  (325) 
7.27

>  <InChI_steorem>  (325) 
InChI=1S/C27H27FO8/c1-30-18-12-20(31-2)19-14-24(36-27(29)15-6-8-17(28)9-7-15)25(35-21(19)13-18)16-10-22(32-3)26(34-5)23(11-16)33-4/h6-13,24-25H,14H2,1-5H3

>  <source>  (325) 
ChEMBL25

>  <source_id>  (325) 
25

>  <optional_reference>  (325) 
10.1021/acs.jmedchem.5b00085

>  <optional_origin>  (325) 
None

>  <target>  (325) 
MDR1

$$$$

     RDKit          2D

 36 39  0  0  0  0  0  0  0  0999 V2000
   -2.6111    0.7486    0.0000 C   0  0  0  0  0  0  0  0  0  0  0  0
   -2.6111   -0.7486    0.0000 C   0  0  0  0  0  0  0  0  0  0  0  0
   -1.2964   -1.4973    0.0000 C   0  0  0  0  0  0  0  0  0  0  0  0
   -1.2964    1.4973    0.0000 C   0  0  0  0  0  0  0  0  0  0  0  0
    0.0000    0.7486    0.0000 C   0  0  0  0  0  0  0  0  0  0  0  0
    0.0000   -0.7486    0.0000 C   0  0  0  0  0  0  0  0  0  0  0  0
    1.2964   -1.4973    0.0000 C   0  0  0  0  0  0  0  0  0  0  0  0
    2.5929   -0.7486    0.0000 C   0  0  0  0  0  0  0  0  0  0  0  0
    2.5929    0.7486    0.0000 C   0  0  0  0  0  0  0  0  0  0  0  0
    1.2964    1.4973    0.0000 O   0  0  0  0  0  0  0  0  0  0  0  0
   -1.2907   -2.9981    0.0000 O   0  0  0  0  0  0  0  0  0  0  0  0
   -3.9091    1.5019    0.0000 O   0  0  0  0  0  0  0  0  0  0  0  0
    3.8926    1.4990    0.0000 C   0  0  0  0  0  0  0  0  0  0  0  0
    3.8951    2.9990    0.0000 C   0  0  0  0  0  0  0  0  0  0  0  0
    5.1953    3.7469    0.0000 C   0  0  0  0  0  0  0  0  0  0  0  0
    6.4931    2.9949    0.0000 C   0  0  0  0  0  0  0  0  0  0  0  0
    6.4907    1.4949    0.0000 C   0  0  0  0  0  0  0  0  0  0  0  0
    5.1905    0.7469    0.0000 C   0  0  0  0  0  0  0  0  0  0  0  0
    7.7878    0.7397    0.0000 O   0  0  0  0  0  0  0  0  0  0  0  0
    7.7956    3.7405    0.0000 O   0  0  0  0  0  0  0  0  0  0  0  0
    5.1946    5.2478    0.0000 O   0  0  0  0  0  0  0  0  0  0  0  0
    3.8911   -1.5017    0.0000 O   0  0  0  0  0  0  0  0  0  0  0  0
   -3.9072    2.7019    0.0000 C   0  0  0  0  0  0  0  0  0  0  0  0
   -2.3272   -3.6028    0.0000 C   0  0  0  0  0  0  0  0  0  0  0  0
    4.1555    5.8480    0.0000 C   0  0  0  0  0  0  0  0  0  0  0  0
    8.8331    3.1374    0.0000 C   0  0  0  0  0  0  0  0  0  0  0  0
    7.7841   -0.4603    0.0000 C   0  0  0  0  0  0  0  0  0  0  0  0
    3.8890   -3.0026    0.0000 C   0  0  0  0  0  0  0  0  0  0  0  0
    2.8487   -3.6008    0.0000 O   0  0  0  0  0  0  0  0  0  0  0  0
    5.1872   -3.7556    0.0000 C   0  0  0  0  0  0  0  0  0  0  0  0
    5.1872   -5.2557    0.0000 C   0  0  0  0  0  0  0  0  0  0  0  0
    6.4863   -6.0057    0.0000 C   0  0  0  0  0  0  0  0  0  0  0  0
    7.7853   -5.2557    0.0000 C   0  0  0  0  0  0  0  0  0  0  0  0
    7.7853   -3.7557    0.0000 C   0  0  0  0  0  0  0  0  0  0  0  0
    6.4863   -3.0057    0.0000 C   0  0  0  0  0  0  0  0  0  0  0  0
    8.8246   -3.1558    0.0000 F   0  0  0  0  0  0  0  0  0  0  0  0
  1  2  2  0
  2  3  1  0
  3  6  2  0
  5  4  2  0
  4  1  1  0
  5  6  1  0
  5 10  1  0
  6  7  1  0
  7  8  1  0
  8  9  1  0
  9 10  1  0
  3 11  1  0
  1 12  1  0
 13 14  2  0
 14 15  1  0
 15 16  2  0
 16 17  1  0
 17 18  2  0
 18 13  1  0
  9 13  1  0
 17 19  1  0
 16 20  1  0
 15 21  1  0
  8 22  1  0
 12 23  1  0
 11 24  1  0
 21 25  1  0
 20 26  1  0
 19 27  1  0
 22 28  1  0
 28 29  2  0
 28 30  1  0
 30 31  2  0
 31 32  1  0
 32 33  2  0
 33 34  1  0
 34 35  2  0
 35 30  1  0
 34 36  1  0
M  END
>  <Classification>  (326) 
1

>  <pchembl>  (326) 
7.01

>  <InChI_steorem>  (326) 
InChI=1S/C27H27FO8/c1-30-18-12-20(31-2)19-14-24(36-27(29)15-7-6-8-17(28)9-15)25(35-21(19)13-18)16-10-22(32-3)26(34-5)23(11-16)33-4/h6-13,24-25H,14H2,1-5H3

>  <source>  (326) 
ChEMBL25

>  <source_id>  (326) 
25

>  <optional_reference>  (326) 
10.1021/acs.jmedchem.5b00085

>  <optional_origin>  (326) 
None

>  <target>  (326) 
MDR1

$$$$

     RDKit          2D

 37 40  0  0  0  0  0  0  0  0999 V2000
   -2.6111    0.7486    0.0000 C   0  0  0  0  0  0  0  0  0  0  0  0
   -2.6111   -0.7486    0.0000 C   0  0  0  0  0  0  0  0  0  0  0  0
   -1.2964   -1.4973    0.0000 C   0  0  0  0  0  0  0  0  0  0  0  0
   -1.2964    1.4973    0.0000 C   0  0  0  0  0  0  0  0  0  0  0  0
    0.0000    0.7486    0.0000 C   0  0  0  0  0  0  0  0  0  0  0  0
    0.0000   -0.7486    0.0000 C   0  0  0  0  0  0  0  0  0  0  0  0
    1.2964   -1.4973    0.0000 C   0  0  0  0  0  0  0  0  0  0  0  0
    2.5929   -0.7486    0.0000 C   0  0  0  0  0  0  0  0  0  0  0  0
    2.5929    0.7486    0.0000 C   0  0  0  0  0  0  0  0  0  0  0  0
    1.2964    1.4973    0.0000 O   0  0  0  0  0  0  0  0  0  0  0  0
   -1.2907   -2.9981    0.0000 O   0  0  0  0  0  0  0  0  0  0  0  0
   -3.9091    1.5019    0.0000 O   0  0  0  0  0  0  0  0  0  0  0  0
    3.8926    1.4990    0.0000 C   0  0  0  0  0  0  0  0  0  0  0  0
    3.8951    2.9990    0.0000 C   0  0  0  0  0  0  0  0  0  0  0  0
    5.1953    3.7469    0.0000 C   0  0  0  0  0  0  0  0  0  0  0  0
    6.4931    2.9949    0.0000 C   0  0  0  0  0  0  0  0  0  0  0  0
    6.4907    1.4949    0.0000 C   0  0  0  0  0  0  0  0  0  0  0  0
    5.1905    0.7469    0.0000 C   0  0  0  0  0  0  0  0  0  0  0  0
    7.7878    0.7397    0.0000 O   0  0  0  0  0  0  0  0  0  0  0  0
    7.7956    3.7405    0.0000 O   0  0  0  0  0  0  0  0  0  0  0  0
    5.1946    5.2478    0.0000 O   0  0  0  0  0  0  0  0  0  0  0  0
    3.8911   -1.5017    0.0000 O   0  0  0  0  0  0  0  0  0  0  0  0
   -3.9072    2.7019    0.0000 C   0  0  0  0  0  0  0  0  0  0  0  0
   -2.3272   -3.6028    0.0000 C   0  0  0  0  0  0  0  0  0  0  0  0
    4.1555    5.8480    0.0000 C   0  0  0  0  0  0  0  0  0  0  0  0
    8.8331    3.1374    0.0000 C   0  0  0  0  0  0  0  0  0  0  0  0
    7.7841   -0.4603    0.0000 C   0  0  0  0  0  0  0  0  0  0  0  0
    3.8890   -3.0026    0.0000 C   0  0  0  0  0  0  0  0  0  0  0  0
    2.8487   -3.6008    0.0000 O   0  0  0  0  0  0  0  0  0  0  0  0
    5.1872   -3.7556    0.0000 C   0  0  0  0  0  0  0  0  0  0  0  0
    5.1872   -5.2557    0.0000 C   0  0  0  0  0  0  0  0  0  0  0  0
    6.4863   -6.0057    0.0000 C   0  0  0  0  0  0  0  0  0  0  0  0
    7.7853   -5.2557    0.0000 C   0  0  0  0  0  0  0  0  0  0  0  0
    7.7853   -3.7557    0.0000 C   0  0  0  0  0  0  0  0  0  0  0  0
    6.4863   -3.0057    0.0000 C   0  0  0  0  0  0  0  0  0  0  0  0
    9.0866   -6.0035    0.0000 O   0  0  0  0  0  0  0  0  0  0  0  0
   10.1250   -5.4020    0.0000 C   0  0  0  0  0  0  0  0  0  0  0  0
  1  2  2  0
  2  3  1  0
  3  6  2  0
  5  4  2  0
  4  1  1  0
  5  6  1  0
  5 10  1  0
  6  7  1  0
  7  8  1  0
  8  9  1  0
  9 10  1  0
  3 11  1  0
  1 12  1  0
 13 14  2  0
 14 15  1  0
 15 16  2  0
 16 17  1  0
 17 18  2  0
 18 13  1  0
  9 13  1  0
 17 19  1  0
 16 20  1  0
 15 21  1  0
  8 22  1  0
 12 23  1  0
 11 24  1  0
 21 25  1  0
 20 26  1  0
 19 27  1  0
 22 28  1  0
 28 29  2  0
 28 30  1  0
 30 31  2  0
 31 32  1  0
 32 33  2  0
 33 34  1  0
 34 35  2  0
 35 30  1  0
 36 37  1  0
 33 36  1  0
M  END
>  <Classification>  (327) 
1

>  <pchembl>  (327) 
7.17

>  <InChI_steorem>  (327) 
InChI=1S/C28H30O9/c1-30-18-9-7-16(8-10-18)28(29)37-25-15-20-21(32-3)13-19(31-2)14-22(20)36-26(25)17-11-23(33-4)27(35-6)24(12-17)34-5/h7-14,25-26H,15H2,1-6H3

>  <source>  (327) 
ChEMBL25

>  <source_id>  (327) 
25

>  <optional_reference>  (327) 
10.1021/acs.jmedchem.5b00085

>  <optional_origin>  (327) 
None

>  <target>  (327) 
MDR1

$$$$

     RDKit          2D

 37 40  0  0  0  0  0  0  0  0999 V2000
   -2.6111    0.7486    0.0000 C   0  0  0  0  0  0  0  0  0  0  0  0
   -2.6111   -0.7486    0.0000 C   0  0  0  0  0  0  0  0  0  0  0  0
   -1.2964   -1.4973    0.0000 C   0  0  0  0  0  0  0  0  0  0  0  0
   -1.2964    1.4973    0.0000 C   0  0  0  0  0  0  0  0  0  0  0  0
    0.0000    0.7486    0.0000 C   0  0  0  0  0  0  0  0  0  0  0  0
    0.0000   -0.7486    0.0000 C   0  0  0  0  0  0  0  0  0  0  0  0
    1.2964   -1.4973    0.0000 C   0  0  0  0  0  0  0  0  0  0  0  0
    2.5929   -0.7486    0.0000 C   0  0  0  0  0  0  0  0  0  0  0  0
    2.5929    0.7486    0.0000 C   0  0  0  0  0  0  0  0  0  0  0  0
    1.2964    1.4973    0.0000 O   0  0  0  0  0  0  0  0  0  0  0  0
   -1.2907   -2.9981    0.0000 O   0  0  0  0  0  0  0  0  0  0  0  0
   -3.9091    1.5019    0.0000 O   0  0  0  0  0  0  0  0  0  0  0  0
    3.8926    1.4990    0.0000 C   0  0  0  0  0  0  0  0  0  0  0  0
    3.8951    2.9990    0.0000 C   0  0  0  0  0  0  0  0  0  0  0  0
    5.1953    3.7469    0.0000 C   0  0  0  0  0  0  0  0  0  0  0  0
    6.4931    2.9949    0.0000 C   0  0  0  0  0  0  0  0  0  0  0  0
    6.4907    1.4949    0.0000 C   0  0  0  0  0  0  0  0  0  0  0  0
    5.1905    0.7469    0.0000 C   0  0  0  0  0  0  0  0  0  0  0  0
    7.7878    0.7397    0.0000 O   0  0  0  0  0  0  0  0  0  0  0  0
    7.7956    3.7405    0.0000 O   0  0  0  0  0  0  0  0  0  0  0  0
    5.1946    5.2478    0.0000 O   0  0  0  0  0  0  0  0  0  0  0  0
    3.8911   -1.5017    0.0000 O   0  0  0  0  0  0  0  0  0  0  0  0
   -3.9072    2.7019    0.0000 C   0  0  0  0  0  0  0  0  0  0  0  0
   -2.3272   -3.6028    0.0000 C   0  0  0  0  0  0  0  0  0  0  0  0
    4.1555    5.8480    0.0000 C   0  0  0  0  0  0  0  0  0  0  0  0
    8.8331    3.1374    0.0000 C   0  0  0  0  0  0  0  0  0  0  0  0
    7.7841   -0.4603    0.0000 C   0  0  0  0  0  0  0  0  0  0  0  0
    3.8890   -3.0026    0.0000 C   0  0  0  0  0  0  0  0  0  0  0  0
    2.8487   -3.6008    0.0000 O   0  0  0  0  0  0  0  0  0  0  0  0
    5.1872   -3.7556    0.0000 C   0  0  0  0  0  0  0  0  0  0  0  0
    5.1872   -5.2557    0.0000 C   0  0  0  0  0  0  0  0  0  0  0  0
    6.4863   -6.0057    0.0000 C   0  0  0  0  0  0  0  0  0  0  0  0
    7.7853   -5.2557    0.0000 C   0  0  0  0  0  0  0  0  0  0  0  0
    7.7853   -3.7557    0.0000 C   0  0  0  0  0  0  0  0  0  0  0  0
    6.4863   -3.0057    0.0000 C   0  0  0  0  0  0  0  0  0  0  0  0
    9.0836   -3.0027    0.0000 O   0  0  0  0  0  0  0  0  0  0  0  0
    9.0819   -1.8027    0.0000 C   0  0  0  0  0  0  0  0  0  0  0  0
  1  2  2  0
  2  3  1  0
  3  6  2  0
  5  4  2  0
  4  1  1  0
  5  6  1  0
  5 10  1  0
  6  7  1  0
  7  8  1  0
  8  9  1  0
  9 10  1  0
  3 11  1  0
  1 12  1  0
 13 14  2  0
 14 15  1  0
 15 16  2  0
 16 17  1  0
 17 18  2  0
 18 13  1  0
  9 13  1  0
 17 19  1  0
 16 20  1  0
 15 21  1  0
  8 22  1  0
 12 23  1  0
 11 24  1  0
 21 25  1  0
 20 26  1  0
 19 27  1  0
 22 28  1  0
 28 29  2  0
 28 30  1  0
 30 31  2  0
 31 32  1  0
 32 33  2  0
 33 34  1  0
 34 35  2  0
 35 30  1  0
 36 37  1  0
 34 36  1  0
M  END
>  <Classification>  (328) 
1

>  <pchembl>  (328) 
7.34

>  <InChI_steorem>  (328) 
InChI=1S/C28H30O9/c1-30-18-9-7-8-16(10-18)28(29)37-25-15-20-21(32-3)13-19(31-2)14-22(20)36-26(25)17-11-23(33-4)27(35-6)24(12-17)34-5/h7-14,25-26H,15H2,1-6H3

>  <source>  (328) 
ChEMBL25

>  <source_id>  (328) 
25

>  <optional_reference>  (328) 
10.1021/acs.jmedchem.5b00085

>  <optional_origin>  (328) 
None

>  <target>  (328) 
MDR1

$$$$

     RDKit          2D

 38 41  0  0  0  0  0  0  0  0999 V2000
   -2.6111    0.7486    0.0000 C   0  0  0  0  0  0  0  0  0  0  0  0
   -2.6111   -0.7486    0.0000 C   0  0  0  0  0  0  0  0  0  0  0  0
   -1.2964   -1.4973    0.0000 C   0  0  0  0  0  0  0  0  0  0  0  0
   -1.2964    1.4973    0.0000 C   0  0  0  0  0  0  0  0  0  0  0  0
    0.0000    0.7486    0.0000 C   0  0  0  0  0  0  0  0  0  0  0  0
    0.0000   -0.7486    0.0000 C   0  0  0  0  0  0  0  0  0  0  0  0
    1.2964   -1.4973    0.0000 C   0  0  0  0  0  0  0  0  0  0  0  0
    2.5929   -0.7486    0.0000 C   0  0  0  0  0  0  0  0  0  0  0  0
    2.5929    0.7486    0.0000 C   0  0  0  0  0  0  0  0  0  0  0  0
    1.2964    1.4973    0.0000 O   0  0  0  0  0  0  0  0  0  0  0  0
   -1.2907   -2.9981    0.0000 O   0  0  0  0  0  0  0  0  0  0  0  0
   -3.9091    1.5019    0.0000 O   0  0  0  0  0  0  0  0  0  0  0  0
    3.8926    1.4990    0.0000 C   0  0  0  0  0  0  0  0  0  0  0  0
    3.8951    2.9990    0.0000 C   0  0  0  0  0  0  0  0  0  0  0  0
    5.1953    3.7469    0.0000 C   0  0  0  0  0  0  0  0  0  0  0  0
    6.4931    2.9949    0.0000 C   0  0  0  0  0  0  0  0  0  0  0  0
    6.4907    1.4949    0.0000 C   0  0  0  0  0  0  0  0  0  0  0  0
    5.1905    0.7469    0.0000 C   0  0  0  0  0  0  0  0  0  0  0  0
    7.7878    0.7397    0.0000 O   0  0  0  0  0  0  0  0  0  0  0  0
    7.7956    3.7405    0.0000 O   0  0  0  0  0  0  0  0  0  0  0  0
    3.8911   -1.5017    0.0000 O   0  0  0  0  0  0  0  0  0  0  0  0
   -3.9072    2.7019    0.0000 C   0  0  0  0  0  0  0  0  0  0  0  0
    8.8331    3.1374    0.0000 C   0  0  0  0  0  0  0  0  0  0  0  0
    7.7841   -0.4603    0.0000 C   0  0  0  0  0  0  0  0  0  0  0  0
    1.2964   -2.6973    0.0000 O   0  0  0  0  0  0  0  0  0  0  0  0
   -2.3272   -3.6028    0.0000 C   0  0  0  0  0  0  0  0  0  0  0  0
    5.1946    5.2478    0.0000 O   0  0  0  0  0  0  0  0  0  0  0  0
    4.1555    5.8480    0.0000 C   0  0  0  0  0  0  0  0  0  0  0  0
    3.8890   -3.0026    0.0000 C   0  0  0  0  0  0  0  0  0  0  0  0
    5.1872   -3.7556    0.0000 C   0  0  0  0  0  0  0  0  0  0  0  0
    2.8487   -3.6008    0.0000 O   0  0  0  0  0  0  0  0  0  0  0  0
    5.1872   -5.2557    0.0000 C   0  0  0  0  0  0  0  0  0  0  0  0
    6.4863   -6.0057    0.0000 C   0  0  0  0  0  0  0  0  0  0  0  0
    7.7853   -5.2557    0.0000 C   0  0  0  0  0  0  0  0  0  0  0  0
    7.7853   -3.7557    0.0000 C   0  0  0  0  0  0  0  0  0  0  0  0
    6.4863   -3.0057    0.0000 C   0  0  0  0  0  0  0  0  0  0  0  0
    9.0866   -6.0035    0.0000 O   0  0  0  0  0  0  0  0  0  0  0  0
   10.1250   -5.4020    0.0000 C   0  0  0  0  0  0  0  0  0  0  0  0
  1  2  2  0
  2  3  1  0
  3  6  2  0
  5  4  2  0
  4  1  1  0
  5  6  1  0
  5 10  1  0
  6  7  1  0
  7  8  1  0
  8  9  1  0
  9 10  1  0
  3 11  1  0
  1 12  1  0
 13 14  2  0
 14 15  1  0
 15 16  2  0
 16 17  1  0
 17 18  2  0
 18 13  1  0
  9 13  1  0
 17 19  1  0
 16 20  1  0
  8 21  1  0
 12 22  1  0
 20 23  1  0
 19 24  1  0
  7 25  2  0
 11 26  1  0
 27 28  1  0
 15 27  1  0
 21 29  1  0
 29 30  1  0
 29 31  2  0
 30 32  2  0
 32 33  1  0
 33 34  2  0
 34 35  1  0
 35 36  2  0
 36 30  1  0
 37 38  1  0
 34 37  1  0
M  END
>  <Classification>  (329) 
1

>  <pchembl>  (329) 
7.32

>  <InChI_steorem>  (329) 
InChI=1S/C28H28O10/c1-31-17-9-7-15(8-10-17)28(30)38-27-24(29)23-19(33-3)13-18(32-2)14-20(23)37-25(27)16-11-21(34-4)26(36-6)22(12-16)35-5/h7-14,25,27H,1-6H3

>  <source>  (329) 
ChEMBL25

>  <source_id>  (329) 
25

>  <optional_reference>  (329) 
10.1021/acs.jmedchem.5b00085

>  <optional_origin>  (329) 
None

>  <target>  (329) 
MDR1

$$$$

     RDKit          2D

 38 41  0  0  0  0  0  0  0  0999 V2000
   -2.6111    0.7486    0.0000 C   0  0  0  0  0  0  0  0  0  0  0  0
   -2.6111   -0.7486    0.0000 C   0  0  0  0  0  0  0  0  0  0  0  0
   -1.2964   -1.4973    0.0000 C   0  0  0  0  0  0  0  0  0  0  0  0
   -1.2964    1.4973    0.0000 C   0  0  0  0  0  0  0  0  0  0  0  0
    0.0000    0.7486    0.0000 C   0  0  0  0  0  0  0  0  0  0  0  0
    0.0000   -0.7486    0.0000 C   0  0  0  0  0  0  0  0  0  0  0  0
    1.2964   -1.4973    0.0000 C   0  0  0  0  0  0  0  0  0  0  0  0
    2.5929   -0.7486    0.0000 C   0  0  0  0  0  0  0  0  0  0  0  0
    2.5929    0.7486    0.0000 C   0  0  0  0  0  0  0  0  0  0  0  0
    1.2964    1.4973    0.0000 O   0  0  0  0  0  0  0  0  0  0  0  0
   -1.2907   -2.9981    0.0000 O   0  0  0  0  0  0  0  0  0  0  0  0
   -3.9091    1.5019    0.0000 O   0  0  0  0  0  0  0  0  0  0  0  0
    3.8926    1.4990    0.0000 C   0  0  0  0  0  0  0  0  0  0  0  0
    3.8951    2.9990    0.0000 C   0  0  0  0  0  0  0  0  0  0  0  0
    5.1953    3.7469    0.0000 C   0  0  0  0  0  0  0  0  0  0  0  0
    6.4931    2.9949    0.0000 C   0  0  0  0  0  0  0  0  0  0  0  0
    6.4907    1.4949    0.0000 C   0  0  0  0  0  0  0  0  0  0  0  0
    5.1905    0.7469    0.0000 C   0  0  0  0  0  0  0  0  0  0  0  0
    7.7878    0.7397    0.0000 O   0  0  0  0  0  0  0  0  0  0  0  0
    7.7956    3.7405    0.0000 O   0  0  0  0  0  0  0  0  0  0  0  0
    5.1946    5.2478    0.0000 O   0  0  0  0  0  0  0  0  0  0  0  0
    3.8911   -1.5017    0.0000 O   0  0  0  0  0  0  0  0  0  0  0  0
   -3.9072    2.7019    0.0000 C   0  0  0  0  0  0  0  0  0  0  0  0
   -2.3272   -3.6028    0.0000 C   0  0  0  0  0  0  0  0  0  0  0  0
    4.1555    5.8480    0.0000 C   0  0  0  0  0  0  0  0  0  0  0  0
    8.8331    3.1374    0.0000 C   0  0  0  0  0  0  0  0  0  0  0  0
    7.7841   -0.4603    0.0000 C   0  0  0  0  0  0  0  0  0  0  0  0
    3.8890   -3.0026    0.0000 C   0  0  0  0  0  0  0  0  0  0  0  0
    2.8487   -3.6008    0.0000 O   0  0  0  0  0  0  0  0  0  0  0  0
    5.1872   -3.7556    0.0000 C   0  0  0  0  0  0  0  0  0  0  0  0
    5.1850   -5.2565    0.0000 C   0  0  0  0  0  0  0  0  0  0  0  0
    6.4815   -6.0111    0.0000 C   0  0  0  0  0  0  0  0  0  0  0  0
    6.4763   -7.5110    0.0000 C   0  0  0  0  0  0  0  0  0  0  0  0
    5.1746   -8.2565    0.0000 C   0  0  0  0  0  0  0  0  0  0  0  0
    3.8782   -7.5021    0.0000 C   0  0  0  0  0  0  0  0  0  0  0  0
    3.8834   -6.0021    0.0000 C   0  0  0  0  0  0  0  0  0  0  0  0
    5.1664   -9.7574    0.0000 O   0  0  0  0  0  0  0  0  0  0  0  0
    4.1242  -10.3523    0.0000 C   0  0  0  0  0  0  0  0  0  0  0  0
  1  2  2  0
  2  3  1  0
  3  6  2  0
  5  4  2  0
  4  1  1  0
  5  6  1  0
  5 10  1  0
  6  7  1  0
  7  8  1  0
  8  9  1  0
  9 10  1  0
  3 11  1  0
  1 12  1  0
 13 14  2  0
 14 15  1  0
 15 16  2  0
 16 17  1  0
 17 18  2  0
 18 13  1  0
  9 13  1  0
 17 19  1  0
 16 20  1  0
 15 21  1  0
  8 22  1  0
 12 23  1  0
 11 24  1  0
 21 25  1  0
 20 26  1  0
 19 27  1  0
 22 28  1  0
 28 29  2  0
 28 30  1  0
 30 31  1  0
 31 32  2  0
 32 33  1  0
 33 34  2  0
 34 35  1  0
 35 36  2  0
 36 31  1  0
 37 38  1  0
 34 37  1  0
M  END
>  <Classification>  (330) 
1

>  <pchembl>  (330) 
7.47

>  <InChI_steorem>  (330) 
InChI=1S/C29H32O9/c1-31-19-9-7-17(8-10-19)11-27(30)37-26-16-21-22(33-3)14-20(32-2)15-23(21)38-28(26)18-12-24(34-4)29(36-6)25(13-18)35-5/h7-10,12-15,26,28H,11,16H2,1-6H3

>  <source>  (330) 
ChEMBL25

>  <source_id>  (330) 
25

>  <optional_reference>  (330) 
10.1021/acs.jmedchem.5b00085

>  <optional_origin>  (330) 
None

>  <target>  (330) 
MDR1

$$$$

     RDKit          2D

 39 42  0  0  0  0  0  0  0  0999 V2000
   -2.6111    0.7486    0.0000 C   0  0  0  0  0  0  0  0  0  0  0  0
   -2.6111   -0.7486    0.0000 C   0  0  0  0  0  0  0  0  0  0  0  0
   -1.2964   -1.4973    0.0000 C   0  0  0  0  0  0  0  0  0  0  0  0
   -1.2964    1.4973    0.0000 C   0  0  0  0  0  0  0  0  0  0  0  0
    0.0000    0.7486    0.0000 C   0  0  0  0  0  0  0  0  0  0  0  0
    0.0000   -0.7486    0.0000 C   0  0  0  0  0  0  0  0  0  0  0  0
    1.2964   -1.4973    0.0000 C   0  0  0  0  0  0  0  0  0  0  0  0
    2.5929   -0.7486    0.0000 C   0  0  0  0  0  0  0  0  0  0  0  0
    2.5929    0.7486    0.0000 C   0  0  0  0  0  0  0  0  0  0  0  0
    1.2964    1.4973    0.0000 O   0  0  0  0  0  0  0  0  0  0  0  0
   -1.2907   -2.9981    0.0000 O   0  0  0  0  0  0  0  0  0  0  0  0
   -3.9091    1.5019    0.0000 O   0  0  0  0  0  0  0  0  0  0  0  0
    3.8926    1.4990    0.0000 C   0  0  0  0  0  0  0  0  0  0  0  0
    3.8951    2.9990    0.0000 C   0  0  0  0  0  0  0  0  0  0  0  0
    5.1953    3.7469    0.0000 C   0  0  0  0  0  0  0  0  0  0  0  0
    6.4931    2.9949    0.0000 C   0  0  0  0  0  0  0  0  0  0  0  0
    6.4907    1.4949    0.0000 C   0  0  0  0  0  0  0  0  0  0  0  0
    5.1905    0.7469    0.0000 C   0  0  0  0  0  0  0  0  0  0  0  0
    7.7878    0.7397    0.0000 O   0  0  0  0  0  0  0  0  0  0  0  0
    7.7956    3.7405    0.0000 O   0  0  0  0  0  0  0  0  0  0  0  0
    5.1946    5.2478    0.0000 O   0  0  0  0  0  0  0  0  0  0  0  0
    3.8911   -1.5017    0.0000 O   0  0  0  0  0  0  0  0  0  0  0  0
   -3.9072    2.7019    0.0000 C   0  0  0  0  0  0  0  0  0  0  0  0
   -2.3272   -3.6028    0.0000 C   0  0  0  0  0  0  0  0  0  0  0  0
    4.1555    5.8480    0.0000 C   0  0  0  0  0  0  0  0  0  0  0  0
    8.8331    3.1374    0.0000 C   0  0  0  0  0  0  0  0  0  0  0  0
    7.7841   -0.4603    0.0000 C   0  0  0  0  0  0  0  0  0  0  0  0
    3.8890   -3.0026    0.0000 C   0  0  0  0  0  0  0  0  0  0  0  0
    2.8487   -3.6008    0.0000 O   0  0  0  0  0  0  0  0  0  0  0  0
    5.1872   -3.7556    0.0000 C   0  0  0  0  0  0  0  0  0  0  0  0
    5.1850   -5.2565    0.0000 C   0  0  0  0  0  0  0  0  0  0  0  0
    6.4832   -6.0096    0.0000 C   0  0  0  0  0  0  0  0  0  0  0  0
    6.4833   -7.5096    0.0000 C   0  0  0  0  0  0  0  0  0  0  0  0
    7.7823   -8.2596    0.0000 C   0  0  0  0  0  0  0  0  0  0  0  0
    9.0814   -7.5096    0.0000 C   0  0  0  0  0  0  0  0  0  0  0  0
    9.0814   -6.0096    0.0000 C   0  0  0  0  0  0  0  0  0  0  0  0
    7.7824   -5.2596    0.0000 C   0  0  0  0  0  0  0  0  0  0  0  0
   10.3827   -8.2574    0.0000 O   0  0  0  0  0  0  0  0  0  0  0  0
   11.4210   -7.6560    0.0000 C   0  0  0  0  0  0  0  0  0  0  0  0
  1  2  2  0
  2  3  1  0
  3  6  2  0
  5  4  2  0
  4  1  1  0
  5  6  1  0
  5 10  1  0
  6  7  1  0
  7  8  1  0
  8  9  1  0
  9 10  1  0
  3 11  1  0
  1 12  1  0
 13 14  2  0
 14 15  1  0
 15 16  2  0
 16 17  1  0
 17 18  2  0
 18 13  1  0
  9 13  1  0
 17 19  1  0
 16 20  1  0
 15 21  1  0
  8 22  1  0
 12 23  1  0
 11 24  1  0
 21 25  1  0
 20 26  1  0
 19 27  1  0
 22 28  1  0
 28 29  2  0
 28 30  1  0
 30 31  2  3
 31 32  1  0
 32 33  2  0
 33 34  1  0
 34 35  2  0
 35 36  1  0
 36 37  2  0
 37 32  1  0
 38 39  1  0
 35 38  1  0
M  END
>  <Classification>  (331) 
1

>  <pchembl>  (331) 
7.73

>  <InChI_steorem>  (331) 
InChI=1S/C30H32O9/c1-32-20-10-7-18(8-11-20)9-12-28(31)38-27-17-22-23(34-3)15-21(33-2)16-24(22)39-29(27)19-13-25(35-4)30(37-6)26(14-19)36-5/h7-16,27,29H,17H2,1-6H3

>  <source>  (331) 
ChEMBL25

>  <source_id>  (331) 
25

>  <optional_reference>  (331) 
10.1021/acs.jmedchem.5b00085

>  <optional_origin>  (331) 
None

>  <target>  (331) 
MDR1

$$$$

     RDKit          2D

 39 42  0  0  0  0  0  0  0  0999 V2000
   -2.6111    0.7486    0.0000 C   0  0  0  0  0  0  0  0  0  0  0  0
   -2.6111   -0.7486    0.0000 C   0  0  0  0  0  0  0  0  0  0  0  0
   -1.2964   -1.4973    0.0000 C   0  0  0  0  0  0  0  0  0  0  0  0
   -1.2964    1.4973    0.0000 C   0  0  0  0  0  0  0  0  0  0  0  0
    0.0000    0.7486    0.0000 C   0  0  0  0  0  0  0  0  0  0  0  0
    0.0000   -0.7486    0.0000 C   0  0  0  0  0  0  0  0  0  0  0  0
    1.2964   -1.4973    0.0000 C   0  0  0  0  0  0  0  0  0  0  0  0
    2.5929   -0.7486    0.0000 C   0  0  0  0  0  0  0  0  0  0  0  0
    2.5929    0.7486    0.0000 C   0  0  0  0  0  0  0  0  0  0  0  0
    1.2964    1.4973    0.0000 O   0  0  0  0  0  0  0  0  0  0  0  0
   -1.2907   -2.9981    0.0000 O   0  0  0  0  0  0  0  0  0  0  0  0
   -3.9091    1.5019    0.0000 O   0  0  0  0  0  0  0  0  0  0  0  0
    3.8926    1.4990    0.0000 C   0  0  0  0  0  0  0  0  0  0  0  0
    3.8951    2.9990    0.0000 C   0  0  0  0  0  0  0  0  0  0  0  0
    5.1953    3.7469    0.0000 C   0  0  0  0  0  0  0  0  0  0  0  0
    6.4931    2.9949    0.0000 C   0  0  0  0  0  0  0  0  0  0  0  0
    6.4907    1.4949    0.0000 C   0  0  0  0  0  0  0  0  0  0  0  0
    5.1905    0.7469    0.0000 C   0  0  0  0  0  0  0  0  0  0  0  0
    7.7878    0.7397    0.0000 O   0  0  0  0  0  0  0  0  0  0  0  0
    7.7956    3.7405    0.0000 O   0  0  0  0  0  0  0  0  0  0  0  0
    5.1946    5.2478    0.0000 O   0  0  0  0  0  0  0  0  0  0  0  0
    3.8911   -1.5017    0.0000 O   0  0  0  0  0  0  0  0  0  0  0  0
   -3.9072    2.7019    0.0000 C   0  0  0  0  0  0  0  0  0  0  0  0
   -2.3272   -3.6028    0.0000 C   0  0  0  0  0  0  0  0  0  0  0  0
    4.1555    5.8480    0.0000 C   0  0  0  0  0  0  0  0  0  0  0  0
    8.8331    3.1374    0.0000 C   0  0  0  0  0  0  0  0  0  0  0  0
    7.7841   -0.4603    0.0000 C   0  0  0  0  0  0  0  0  0  0  0  0
    3.8890   -3.0026    0.0000 C   0  0  0  0  0  0  0  0  0  0  0  0
    2.8487   -3.6008    0.0000 O   0  0  0  0  0  0  0  0  0  0  0  0
    5.1872   -3.7556    0.0000 C   0  0  0  0  0  0  0  0  0  0  0  0
    5.1872   -5.2557    0.0000 C   0  0  0  0  0  0  0  0  0  0  0  0
    6.4863   -6.0057    0.0000 C   0  0  0  0  0  0  0  0  0  0  0  0
    7.7853   -5.2557    0.0000 C   0  0  0  0  0  0  0  0  0  0  0  0
    7.7853   -3.7557    0.0000 C   0  0  0  0  0  0  0  0  0  0  0  0
    6.4863   -3.0057    0.0000 C   0  0  0  0  0  0  0  0  0  0  0  0
    9.0866   -6.0035    0.0000 O   0  0  0  0  0  0  0  0  0  0  0  0
   10.1250   -5.4020    0.0000 C   0  0  0  0  0  0  0  0  0  0  0  0
    6.4831   -7.5065    0.0000 O   0  0  0  0  0  0  0  0  0  0  0  0
    5.4430   -8.1050    0.0000 C   0  0  0  0  0  0  0  0  0  0  0  0
  1  2  2  0
  2  3  1  0
  3  6  2  0
  5  4  2  0
  4  1  1  0
  5  6  1  0
  5 10  1  0
  6  7  1  0
  7  8  1  0
  8  9  1  0
  9 10  1  0
  3 11  1  0
  1 12  1  0
 13 14  2  0
 14 15  1  0
 15 16  2  0
 16 17  1  0
 17 18  2  0
 18 13  1  0
  9 13  1  0
 17 19  1  0
 16 20  1  0
 15 21  1  0
  8 22  1  0
 12 23  1  0
 11 24  1  0
 21 25  1  0
 20 26  1  0
 19 27  1  0
 22 28  1  0
 28 29  2  0
 28 30  1  0
 30 31  2  0
 31 32  1  0
 32 33  2  0
 33 34  1  0
 34 35  2  0
 35 30  1  0
 36 37  1  0
 33 36  1  0
 38 39  1  0
 32 38  1  0
M  END
>  <Classification>  (332) 
1

>  <pchembl>  (332) 
7.92

>  <InChI_steorem>  (332) 
InChI=1S/C29H32O10/c1-31-18-13-21(33-3)19-15-26(39-29(30)16-8-9-20(32-2)23(10-16)34-4)27(38-22(19)14-18)17-11-24(35-5)28(37-7)25(12-17)36-6/h8-14,26-27H,15H2,1-7H3

>  <source>  (332) 
ChEMBL25

>  <source_id>  (332) 
25

>  <optional_reference>  (332) 
10.1021/acs.jmedchem.5b00085

>  <optional_origin>  (332) 
None

>  <target>  (332) 
MDR1

$$$$

     RDKit          2D

 39 42  0  0  0  0  0  0  0  0999 V2000
   -2.6111    0.7486    0.0000 C   0  0  0  0  0  0  0  0  0  0  0  0
   -2.6111   -0.7486    0.0000 C   0  0  0  0  0  0  0  0  0  0  0  0
   -1.2964   -1.4973    0.0000 C   0  0  0  0  0  0  0  0  0  0  0  0
   -1.2964    1.4973    0.0000 C   0  0  0  0  0  0  0  0  0  0  0  0
    0.0000    0.7486    0.0000 C   0  0  0  0  0  0  0  0  0  0  0  0
    0.0000   -0.7486    0.0000 C   0  0  0  0  0  0  0  0  0  0  0  0
    1.2964   -1.4973    0.0000 C   0  0  0  0  0  0  0  0  0  0  0  0
    2.5929   -0.7486    0.0000 C   0  0  0  0  0  0  0  0  0  0  0  0
    2.5929    0.7486    0.0000 C   0  0  0  0  0  0  0  0  0  0  0  0
    1.2964    1.4973    0.0000 O   0  0  0  0  0  0  0  0  0  0  0  0
   -1.2907   -2.9981    0.0000 O   0  0  0  0  0  0  0  0  0  0  0  0
   -3.9091    1.5019    0.0000 O   0  0  0  0  0  0  0  0  0  0  0  0
    3.8926    1.4990    0.0000 C   0  0  0  0  0  0  0  0  0  0  0  0
    3.8951    2.9990    0.0000 C   0  0  0  0  0  0  0  0  0  0  0  0
    5.1953    3.7469    0.0000 C   0  0  0  0  0  0  0  0  0  0  0  0
    6.4931    2.9949    0.0000 C   0  0  0  0  0  0  0  0  0  0  0  0
    6.4907    1.4949    0.0000 C   0  0  0  0  0  0  0  0  0  0  0  0
    5.1905    0.7469    0.0000 C   0  0  0  0  0  0  0  0  0  0  0  0
    7.7878    0.7397    0.0000 O   0  0  0  0  0  0  0  0  0  0  0  0
    7.7956    3.7405    0.0000 O   0  0  0  0  0  0  0  0  0  0  0  0
    5.1946    5.2478    0.0000 O   0  0  0  0  0  0  0  0  0  0  0  0
    3.8911   -1.5017    0.0000 O   0  0  0  0  0  0  0  0  0  0  0  0
   -3.9072    2.7019    0.0000 C   0  0  0  0  0  0  0  0  0  0  0  0
   -2.3272   -3.6028    0.0000 C   0  0  0  0  0  0  0  0  0  0  0  0
    4.1555    5.8480    0.0000 C   0  0  0  0  0  0  0  0  0  0  0  0
    8.8331    3.1374    0.0000 C   0  0  0  0  0  0  0  0  0  0  0  0
    7.7841   -0.4603    0.0000 C   0  0  0  0  0  0  0  0  0  0  0  0
    3.8890   -3.0026    0.0000 C   0  0  0  0  0  0  0  0  0  0  0  0
    2.8487   -3.6008    0.0000 O   0  0  0  0  0  0  0  0  0  0  0  0
    5.1872   -3.7556    0.0000 C   0  0  0  0  0  0  0  0  0  0  0  0
    5.1850   -5.2565    0.0000 C   0  0  0  0  0  0  0  0  0  0  0  0
    6.4832   -6.0096    0.0000 C   0  0  0  0  0  0  0  0  0  0  0  0
    6.4833   -7.5096    0.0000 C   0  0  0  0  0  0  0  0  0  0  0  0
    7.7823   -8.2596    0.0000 C   0  0  0  0  0  0  0  0  0  0  0  0
    9.0814   -7.5096    0.0000 C   0  0  0  0  0  0  0  0  0  0  0  0
    9.0814   -6.0096    0.0000 C   0  0  0  0  0  0  0  0  0  0  0  0
    7.7824   -5.2596    0.0000 C   0  0  0  0  0  0  0  0  0  0  0  0
   10.3827   -8.2574    0.0000 O   0  0  0  0  0  0  0  0  0  0  0  0
   11.4210   -7.6560    0.0000 C   0  0  0  0  0  0  0  0  0  0  0  0
  1  2  2  0
  2  3  1  0
  3  6  2  0
  5  4  2  0
  4  1  1  0
  5  6  1  0
  5 10  1  0
  6  7  1  0
  7  8  1  0
  8  9  1  0
  9 10  1  0
  3 11  1  0
  1 12  1  0
 13 14  2  0
 14 15  1  0
 15 16  2  0
 16 17  1  0
 17 18  2  0
 18 13  1  0
  9 13  1  0
 17 19  1  0
 16 20  1  0
 15 21  1  0
  8 22  1  0
 12 23  1  0
 11 24  1  0
 21 25  1  0
 20 26  1  0
 19 27  1  0
 22 28  1  0
 28 29  2  0
 28 30  1  0
 30 31  1  0
 31 32  1  0
 32 33  2  0
 33 34  1  0
 34 35  2  0
 35 36  1  0
 36 37  2  0
 37 32  1  0
 38 39  1  0
 35 38  1  0
M  END
>  <Classification>  (333) 
1

>  <pchembl>  (333) 
7.4

>  <InChI_steorem>  (333) 
InChI=1S/C30H34O9/c1-32-20-10-7-18(8-11-20)9-12-28(31)38-27-17-22-23(34-3)15-21(33-2)16-24(22)39-29(27)19-13-25(35-4)30(37-6)26(14-19)36-5/h7-8,10-11,13-16,27,29H,9,12,17H2,1-6H3

>  <source>  (333) 
ChEMBL25

>  <source_id>  (333) 
25

>  <optional_reference>  (333) 
10.1021/acs.jmedchem.5b00085

>  <optional_origin>  (333) 
None

>  <target>  (333) 
MDR1

$$$$

     RDKit          2D

 39 42  0  0  0  0  0  0  0  0999 V2000
   -2.6111    0.7486    0.0000 C   0  0  0  0  0  0  0  0  0  0  0  0
   -2.6111   -0.7486    0.0000 C   0  0  0  0  0  0  0  0  0  0  0  0
   -1.2964   -1.4973    0.0000 C   0  0  0  0  0  0  0  0  0  0  0  0
   -1.2964    1.4973    0.0000 C   0  0  0  0  0  0  0  0  0  0  0  0
    0.0000    0.7486    0.0000 C   0  0  0  0  0  0  0  0  0  0  0  0
    0.0000   -0.7486    0.0000 C   0  0  0  0  0  0  0  0  0  0  0  0
    1.2964   -1.4973    0.0000 C   0  0  0  0  0  0  0  0  0  0  0  0
    2.5929   -0.7486    0.0000 C   0  0  0  0  0  0  0  0  0  0  0  0
    2.5929    0.7486    0.0000 C   0  0  0  0  0  0  0  0  0  0  0  0
    1.2964    1.4973    0.0000 O   0  0  0  0  0  0  0  0  0  0  0  0
   -1.2907   -2.9981    0.0000 O   0  0  0  0  0  0  0  0  0  0  0  0
   -3.9091    1.5019    0.0000 O   0  0  0  0  0  0  0  0  0  0  0  0
    3.8926    1.4990    0.0000 C   0  0  0  0  0  0  0  0  0  0  0  0
    3.8951    2.9990    0.0000 C   0  0  0  0  0  0  0  0  0  0  0  0
    5.1953    3.7469    0.0000 C   0  0  0  0  0  0  0  0  0  0  0  0
    6.4931    2.9949    0.0000 C   0  0  0  0  0  0  0  0  0  0  0  0
    6.4907    1.4949    0.0000 C   0  0  0  0  0  0  0  0  0  0  0  0
    5.1905    0.7469    0.0000 C   0  0  0  0  0  0  0  0  0  0  0  0
    7.7878    0.7397    0.0000 O   0  0  0  0  0  0  0  0  0  0  0  0
    7.7956    3.7405    0.0000 O   0  0  0  0  0  0  0  0  0  0  0  0
    5.1946    5.2478    0.0000 O   0  0  0  0  0  0  0  0  0  0  0  0
    3.8911   -1.5017    0.0000 O   0  0  0  0  0  0  0  0  0  0  0  0
   -3.9072    2.7019    0.0000 C   0  0  0  0  0  0  0  0  0  0  0  0
   -2.3272   -3.6028    0.0000 C   0  0  0  0  0  0  0  0  0  0  0  0
    4.1555    5.8480    0.0000 C   0  0  0  0  0  0  0  0  0  0  0  0
    8.8331    3.1374    0.0000 C   0  0  0  0  0  0  0  0  0  0  0  0
    7.7841   -0.4603    0.0000 C   0  0  0  0  0  0  0  0  0  0  0  0
    3.8890   -3.0026    0.0000 C   0  0  0  0  0  0  0  0  0  0  0  0
    2.8487   -3.6008    0.0000 O   0  0  0  0  0  0  0  0  0  0  0  0
    5.1872   -3.7556    0.0000 C   0  0  0  0  0  0  0  0  0  0  0  0
    5.1872   -5.2557    0.0000 C   0  0  0  0  0  0  0  0  0  0  0  0
    6.4863   -6.0057    0.0000 C   0  0  0  0  0  0  0  0  0  0  0  0
    7.7853   -5.2557    0.0000 C   0  0  0  0  0  0  0  0  0  0  0  0
    7.7853   -3.7557    0.0000 C   0  0  0  0  0  0  0  0  0  0  0  0
    6.4863   -3.0057    0.0000 C   0  0  0  0  0  0  0  0  0  0  0  0
    8.8245   -5.8558    0.0000 F   0  0  0  0  0  0  0  0  0  0  0  0
    9.0836   -3.0027    0.0000 N   0  0  0  0  0  0  0  0  0  0  0  0
    9.0819   -1.8027    0.0000 C   0  0  0  0  0  0  0  0  0  0  0  0
   10.1238   -3.6009    0.0000 C   0  0  0  0  0  0  0  0  0  0  0  0
  1  2  2  0
  2  3  1  0
  3  6  2  0
  5  4  2  0
  4  1  1  0
  5  6  1  0
  5 10  1  0
  6  7  1  0
  7  8  1  0
  8  9  1  0
  9 10  1  0
  3 11  1  0
  1 12  1  0
 13 14  2  0
 14 15  1  0
 15 16  2  0
 16 17  1  0
 17 18  2  0
 18 13  1  0
  9 13  1  0
 17 19  1  0
 16 20  1  0
 15 21  1  0
  8 22  1  0
 12 23  1  0
 11 24  1  0
 21 25  1  0
 20 26  1  0
 19 27  1  0
 22 28  1  0
 28 29  2  0
 28 30  1  0
 30 31  2  0
 31 32  1  0
 32 33  2  0
 33 34  1  0
 34 35  2  0
 35 30  1  0
 33 36  1  0
 34 37  1  0
 37 38  1  0
 37 39  1  0
M  END
>  <Classification>  (334) 
1

>  <pchembl>  (334) 
7.44

>  <InChI_steorem>  (334) 
InChI=1S/C29H32FNO8/c1-31(2)21-10-16(8-9-20(21)30)29(32)39-26-15-19-22(34-4)13-18(33-3)14-23(19)38-27(26)17-11-24(35-5)28(37-7)25(12-17)36-6/h8-14,26-27H,15H2,1-7H3

>  <source>  (334) 
ChEMBL25

>  <source_id>  (334) 
25

>  <optional_reference>  (334) 
10.1021/acs.jmedchem.5b00085

>  <optional_origin>  (334) 
None

>  <target>  (334) 
MDR1

$$$$

     RDKit          2D

 40 43  0  0  0  0  0  0  0  0999 V2000
   -2.6111    0.7486    0.0000 C   0  0  0  0  0  0  0  0  0  0  0  0
   -2.6111   -0.7486    0.0000 C   0  0  0  0  0  0  0  0  0  0  0  0
   -1.2964   -1.4973    0.0000 C   0  0  0  0  0  0  0  0  0  0  0  0
   -1.2964    1.4973    0.0000 C   0  0  0  0  0  0  0  0  0  0  0  0
    0.0000    0.7486    0.0000 C   0  0  0  0  0  0  0  0  0  0  0  0
    0.0000   -0.7486    0.0000 C   0  0  0  0  0  0  0  0  0  0  0  0
    1.2964   -1.4973    0.0000 C   0  0  0  0  0  0  0  0  0  0  0  0
    2.5929   -0.7486    0.0000 C   0  0  0  0  0  0  0  0  0  0  0  0
    2.5929    0.7486    0.0000 C   0  0  0  0  0  0  0  0  0  0  0  0
    1.2964    1.4973    0.0000 O   0  0  0  0  0  0  0  0  0  0  0  0
   -1.2907   -2.9981    0.0000 O   0  0  0  0  0  0  0  0  0  0  0  0
   -3.9091    1.5019    0.0000 O   0  0  0  0  0  0  0  0  0  0  0  0
    3.8926    1.4990    0.0000 C   0  0  0  0  0  0  0  0  0  0  0  0
    3.8951    2.9990    0.0000 C   0  0  0  0  0  0  0  0  0  0  0  0
    5.1953    3.7469    0.0000 C   0  0  0  0  0  0  0  0  0  0  0  0
    6.4931    2.9949    0.0000 C   0  0  0  0  0  0  0  0  0  0  0  0
    6.4907    1.4949    0.0000 C   0  0  0  0  0  0  0  0  0  0  0  0
    5.1905    0.7469    0.0000 C   0  0  0  0  0  0  0  0  0  0  0  0
    7.7878    0.7397    0.0000 O   0  0  0  0  0  0  0  0  0  0  0  0
    7.7956    3.7405    0.0000 O   0  0  0  0  0  0  0  0  0  0  0  0
    3.8911   -1.5017    0.0000 O   0  0  0  0  0  0  0  0  0  0  0  0
   -3.9072    2.7019    0.0000 C   0  0  0  0  0  0  0  0  0  0  0  0
    8.8331    3.1374    0.0000 C   0  0  0  0  0  0  0  0  0  0  0  0
    7.7841   -0.4603    0.0000 C   0  0  0  0  0  0  0  0  0  0  0  0
    1.2964   -2.6973    0.0000 O   0  0  0  0  0  0  0  0  0  0  0  0
   -2.3272   -3.6028    0.0000 C   0  0  0  0  0  0  0  0  0  0  0  0
    5.1946    5.2478    0.0000 O   0  0  0  0  0  0  0  0  0  0  0  0
    4.1555    5.8480    0.0000 C   0  0  0  0  0  0  0  0  0  0  0  0
    3.8890   -3.0026    0.0000 C   0  0  0  0  0  0  0  0  0  0  0  0
    5.1872   -3.7556    0.0000 C   0  0  0  0  0  0  0  0  0  0  0  0
    2.8487   -3.6008    0.0000 O   0  0  0  0  0  0  0  0  0  0  0  0
    5.1850   -5.2565    0.0000 C   0  0  0  0  0  0  0  0  0  0  0  0
    6.4832   -6.0096    0.0000 C   0  0  0  0  0  0  0  0  0  0  0  0
    6.4833   -7.5096    0.0000 C   0  0  0  0  0  0  0  0  0  0  0  0
    7.7823   -8.2596    0.0000 C   0  0  0  0  0  0  0  0  0  0  0  0
    9.0814   -7.5096    0.0000 C   0  0  0  0  0  0  0  0  0  0  0  0
    9.0814   -6.0096    0.0000 C   0  0  0  0  0  0  0  0  0  0  0  0
    7.7824   -5.2596    0.0000 C   0  0  0  0  0  0  0  0  0  0  0  0
   10.3827   -8.2574    0.0000 O   0  0  0  0  0  0  0  0  0  0  0  0
   11.4210   -7.6560    0.0000 C   0  0  0  0  0  0  0  0  0  0  0  0
  1  2  2  0
  2  3  1  0
  3  6  2  0
  5  4  2  0
  4  1  1  0
  5  6  1  0
  5 10  1  0
  6  7  1  0
  7  8  1  0
  8  9  1  0
  9 10  1  0
  3 11  1  0
  1 12  1  0
 13 14  2  0
 14 15  1  0
 15 16  2  0
 16 17  1  0
 17 18  2  0
 18 13  1  0
  9 13  1  0
 17 19  1  0
 16 20  1  0
  8 21  1  0
 12 22  1  0
 20 23  1  0
 19 24  1  0
  7 25  2  0
 11 26  1  0
 27 28  1  0
 15 27  1  0
 21 29  1  0
 29 30  1  0
 29 31  2  0
 30 32  2  3
 32 33  1  0
 33 34  2  0
 34 35  1  0
 35 36  2  0
 36 37  1  0
 37 38  2  0
 38 33  1  0
 39 40  1  0
 36 39  1  0
M  END
>  <Classification>  (335) 
1

>  <pchembl>  (335) 
7.39

>  <InChI_steorem>  (335) 
InChI=1S/C30H30O10/c1-33-19-10-7-17(8-11-19)9-12-25(31)40-30-27(32)26-21(35-3)15-20(34-2)16-22(26)39-28(30)18-13-23(36-4)29(38-6)24(14-18)37-5/h7-16,28,30H,1-6H3

>  <source>  (335) 
ChEMBL25

>  <source_id>  (335) 
25

>  <optional_reference>  (335) 
10.1021/acs.jmedchem.5b00085

>  <optional_origin>  (335) 
None

>  <target>  (335) 
MDR1

$$$$

     RDKit          2D

 40 43  0  0  0  0  0  0  0  0999 V2000
   -2.6111    0.7486    0.0000 C   0  0  0  0  0  0  0  0  0  0  0  0
   -2.6111   -0.7486    0.0000 C   0  0  0  0  0  0  0  0  0  0  0  0
   -1.2964   -1.4973    0.0000 C   0  0  0  0  0  0  0  0  0  0  0  0
   -1.2964    1.4973    0.0000 C   0  0  0  0  0  0  0  0  0  0  0  0
    0.0000    0.7486    0.0000 C   0  0  0  0  0  0  0  0  0  0  0  0
    0.0000   -0.7486    0.0000 C   0  0  0  0  0  0  0  0  0  0  0  0
    1.2964   -1.4973    0.0000 C   0  0  0  0  0  0  0  0  0  0  0  0
    2.5929   -0.7486    0.0000 C   0  0  0  0  0  0  0  0  0  0  0  0
    2.5929    0.7486    0.0000 C   0  0  0  0  0  0  0  0  0  0  0  0
    1.2964    1.4973    0.0000 O   0  0  0  0  0  0  0  0  0  0  0  0
   -1.2907   -2.9981    0.0000 O   0  0  0  0  0  0  0  0  0  0  0  0
   -3.9091    1.5019    0.0000 O   0  0  0  0  0  0  0  0  0  0  0  0
    3.8926    1.4990    0.0000 C   0  0  0  0  0  0  0  0  0  0  0  0
    3.8951    2.9990    0.0000 C   0  0  0  0  0  0  0  0  0  0  0  0
    5.1953    3.7469    0.0000 C   0  0  0  0  0  0  0  0  0  0  0  0
    6.4931    2.9949    0.0000 C   0  0  0  0  0  0  0  0  0  0  0  0
    6.4907    1.4949    0.0000 C   0  0  0  0  0  0  0  0  0  0  0  0
    5.1905    0.7469    0.0000 C   0  0  0  0  0  0  0  0  0  0  0  0
    7.7878    0.7397    0.0000 O   0  0  0  0  0  0  0  0  0  0  0  0
    7.7956    3.7405    0.0000 O   0  0  0  0  0  0  0  0  0  0  0  0
    3.8911   -1.5017    0.0000 O   0  0  0  0  0  0  0  0  0  0  0  0
   -3.9072    2.7019    0.0000 C   0  0  0  0  0  0  0  0  0  0  0  0
    8.8331    3.1374    0.0000 C   0  0  0  0  0  0  0  0  0  0  0  0
    7.7841   -0.4603    0.0000 C   0  0  0  0  0  0  0  0  0  0  0  0
    1.2964   -2.6973    0.0000 O   0  0  0  0  0  0  0  0  0  0  0  0
   -2.3272   -3.6028    0.0000 C   0  0  0  0  0  0  0  0  0  0  0  0
    5.1946    5.2478    0.0000 O   0  0  0  0  0  0  0  0  0  0  0  0
    4.1555    5.8480    0.0000 C   0  0  0  0  0  0  0  0  0  0  0  0
    3.8890   -3.0026    0.0000 C   0  0  0  0  0  0  0  0  0  0  0  0
    5.1872   -3.7556    0.0000 C   0  0  0  0  0  0  0  0  0  0  0  0
    2.8487   -3.6008    0.0000 O   0  0  0  0  0  0  0  0  0  0  0  0
    5.1872   -5.2557    0.0000 C   0  0  0  0  0  0  0  0  0  0  0  0
    6.4863   -6.0057    0.0000 C   0  0  0  0  0  0  0  0  0  0  0  0
    7.7853   -5.2557    0.0000 C   0  0  0  0  0  0  0  0  0  0  0  0
    7.7853   -3.7557    0.0000 C   0  0  0  0  0  0  0  0  0  0  0  0
    6.4863   -3.0057    0.0000 C   0  0  0  0  0  0  0  0  0  0  0  0
    9.0835   -6.0088    0.0000 O   0  0  0  0  0  0  0  0  0  0  0  0
    9.0818   -7.2088    0.0000 C   0  0  0  0  0  0  0  0  0  0  0  0
    9.0836   -3.0027    0.0000 O   0  0  0  0  0  0  0  0  0  0  0  0
    9.0819   -1.8027    0.0000 C   0  0  0  0  0  0  0  0  0  0  0  0
  1  2  2  0
  2  3  1  0
  3  6  2  0
  5  4  2  0
  4  1  1  0
  5  6  1  0
  5 10  1  0
  6  7  1  0
  7  8  1  0
  8  9  1  0
  9 10  1  0
  3 11  1  0
  1 12  1  0
 13 14  2  0
 14 15  1  0
 15 16  2  0
 16 17  1  0
 17 18  2  0
 18 13  1  0
  9 13  1  0
 17 19  1  0
 16 20  1  0
  8 21  1  0
 12 22  1  0
 20 23  1  0
 19 24  1  0
  7 25  2  0
 11 26  1  0
 27 28  1  0
 15 27  1  0
 21 29  1  0
 29 30  1  0
 29 31  2  0
 30 32  2  0
 32 33  1  0
 33 34  2  0
 34 35  1  0
 35 36  2  0
 36 30  1  0
 37 38  1  0
 34 37  1  0
 39 40  1  0
 35 39  1  0
M  END
>  <Classification>  (336) 
1

>  <pchembl>  (336) 
7.44

>  <InChI_steorem>  (336) 
InChI=1S/C29H30O11/c1-32-17-13-20(35-4)24-21(14-17)39-26(16-11-22(36-5)27(38-7)23(12-16)37-6)28(25(24)30)40-29(31)15-8-9-18(33-2)19(10-15)34-3/h8-14,26,28H,1-7H3

>  <source>  (336) 
ChEMBL25

>  <source_id>  (336) 
25

>  <optional_reference>  (336) 
10.1021/acs.jmedchem.5b00085

>  <optional_origin>  (336) 
None

>  <target>  (336) 
MDR1

$$$$

     RDKit          2D

 40 43  0  0  0  0  0  0  0  0999 V2000
   -2.6111    0.7486    0.0000 C   0  0  0  0  0  0  0  0  0  0  0  0
   -2.6111   -0.7486    0.0000 C   0  0  0  0  0  0  0  0  0  0  0  0
   -1.2964   -1.4973    0.0000 C   0  0  0  0  0  0  0  0  0  0  0  0
   -1.2964    1.4973    0.0000 C   0  0  0  0  0  0  0  0  0  0  0  0
    0.0000    0.7486    0.0000 C   0  0  0  0  0  0  0  0  0  0  0  0
    0.0000   -0.7486    0.0000 C   0  0  0  0  0  0  0  0  0  0  0  0
    1.2964   -1.4973    0.0000 C   0  0  0  0  0  0  0  0  0  0  0  0
    2.5929   -0.7486    0.0000 C   0  0  0  0  0  0  0  0  0  0  0  0
    2.5929    0.7486    0.0000 C   0  0  0  0  0  0  0  0  0  0  0  0
    1.2964    1.4973    0.0000 O   0  0  0  0  0  0  0  0  0  0  0  0
   -1.2907   -2.9981    0.0000 O   0  0  0  0  0  0  0  0  0  0  0  0
   -3.9091    1.5019    0.0000 O   0  0  0  0  0  0  0  0  0  0  0  0
    3.8926    1.4990    0.0000 C   0  0  0  0  0  0  0  0  0  0  0  0
    3.8951    2.9990    0.0000 C   0  0  0  0  0  0  0  0  0  0  0  0
    5.1953    3.7469    0.0000 C   0  0  0  0  0  0  0  0  0  0  0  0
    6.4931    2.9949    0.0000 C   0  0  0  0  0  0  0  0  0  0  0  0
    6.4907    1.4949    0.0000 C   0  0  0  0  0  0  0  0  0  0  0  0
    5.1905    0.7469    0.0000 C   0  0  0  0  0  0  0  0  0  0  0  0
    7.7878    0.7397    0.0000 O   0  0  0  0  0  0  0  0  0  0  0  0
    7.7956    3.7405    0.0000 O   0  0  0  0  0  0  0  0  0  0  0  0
    5.1946    5.2478    0.0000 O   0  0  0  0  0  0  0  0  0  0  0  0
    3.8911   -1.5017    0.0000 O   0  0  0  0  0  0  0  0  0  0  0  0
   -3.9072    2.7019    0.0000 C   0  0  0  0  0  0  0  0  0  0  0  0
   -2.3272   -3.6028    0.0000 C   0  0  0  0  0  0  0  0  0  0  0  0
    4.1555    5.8480    0.0000 C   0  0  0  0  0  0  0  0  0  0  0  0
    8.8331    3.1374    0.0000 C   0  0  0  0  0  0  0  0  0  0  0  0
    7.7841   -0.4603    0.0000 C   0  0  0  0  0  0  0  0  0  0  0  0
    3.8890   -3.0026    0.0000 C   0  0  0  0  0  0  0  0  0  0  0  0
    2.8487   -3.6008    0.0000 O   0  0  0  0  0  0  0  0  0  0  0  0
    5.1872   -3.7556    0.0000 C   0  0  0  0  0  0  0  0  0  0  0  0
    5.1850   -5.2565    0.0000 C   0  0  0  0  0  0  0  0  0  0  0  0
    6.4815   -6.0111    0.0000 C   0  0  0  0  0  0  0  0  0  0  0  0
    6.4763   -7.5110    0.0000 C   0  0  0  0  0  0  0  0  0  0  0  0
    5.1746   -8.2565    0.0000 C   0  0  0  0  0  0  0  0  0  0  0  0
    3.8782   -7.5021    0.0000 C   0  0  0  0  0  0  0  0  0  0  0  0
    3.8834   -6.0021    0.0000 C   0  0  0  0  0  0  0  0  0  0  0  0
    2.5743   -8.2453    0.0000 O   0  0  0  0  0  0  0  0  0  0  0  0
    1.5380   -7.6402    0.0000 C   0  0  0  0  0  0  0  0  0  0  0  0
    5.1725   -9.7574    0.0000 O   0  0  0  0  0  0  0  0  0  0  0  0
    6.2105  -10.3595    0.0000 C   0  0  0  0  0  0  0  0  0  0  0  0
  1  2  2  0
  2  3  1  0
  3  6  2  0
  5  4  2  0
  4  1  1  0
  5  6  1  0
  5 10  1  0
  6  7  1  0
  7  8  1  0
  8  9  1  0
  9 10  1  0
  3 11  1  0
  1 12  1  0
 13 14  2  0
 14 15  1  0
 15 16  2  0
 16 17  1  0
 17 18  2  0
 18 13  1  0
  9 13  1  0
 17 19  1  0
 16 20  1  0
 15 21  1  0
  8 22  1  0
 12 23  1  0
 11 24  1  0
 21 25  1  0
 20 26  1  0
 19 27  1  0
 22 28  1  0
 28 29  2  0
 28 30  1  0
 30 31  1  0
 31 32  2  0
 32 33  1  0
 33 34  2  0
 34 35  1  0
 35 36  2  0
 36 31  1  0
 37 38  1  0
 35 37  1  0
 39 40  1  0
 34 39  1  0
M  END
>  <Classification>  (337) 
1

>  <pchembl>  (337) 
7.49

>  <InChI_steorem>  (337) 
InChI=1S/C30H34O10/c1-32-19-14-22(34-3)20-16-27(39-28(31)11-17-8-9-21(33-2)24(10-17)35-4)29(40-23(20)15-19)18-12-25(36-5)30(38-7)26(13-18)37-6/h8-10,12-15,27,29H,11,16H2,1-7H3

>  <source>  (337) 
ChEMBL25

>  <source_id>  (337) 
25

>  <optional_reference>  (337) 
10.1021/acs.jmedchem.5b00085

>  <optional_origin>  (337) 
None

>  <target>  (337) 
MDR1

$$$$

     RDKit          2D

 40 43  0  0  0  0  0  0  0  0999 V2000
   -2.6111    0.7486    0.0000 C   0  0  0  0  0  0  0  0  0  0  0  0
   -2.6111   -0.7486    0.0000 C   0  0  0  0  0  0  0  0  0  0  0  0
   -1.2964   -1.4973    0.0000 C   0  0  0  0  0  0  0  0  0  0  0  0
   -1.2964    1.4973    0.0000 C   0  0  0  0  0  0  0  0  0  0  0  0
    0.0000    0.7486    0.0000 C   0  0  0  0  0  0  0  0  0  0  0  0
    0.0000   -0.7486    0.0000 C   0  0  0  0  0  0  0  0  0  0  0  0
    1.2964   -1.4973    0.0000 C   0  0  0  0  0  0  0  0  0  0  0  0
    2.5929   -0.7486    0.0000 C   0  0  0  0  0  0  0  0  0  0  0  0
    2.5929    0.7486    0.0000 C   0  0  0  0  0  0  0  0  0  0  0  0
    1.2964    1.4973    0.0000 O   0  0  0  0  0  0  0  0  0  0  0  0
   -1.2907   -2.9981    0.0000 O   0  0  0  0  0  0  0  0  0  0  0  0
   -3.9091    1.5019    0.0000 O   0  0  0  0  0  0  0  0  0  0  0  0
    3.8926    1.4990    0.0000 C   0  0  0  0  0  0  0  0  0  0  0  0
    3.8951    2.9990    0.0000 C   0  0  0  0  0  0  0  0  0  0  0  0
    5.1953    3.7469    0.0000 C   0  0  0  0  0  0  0  0  0  0  0  0
    6.4931    2.9949    0.0000 C   0  0  0  0  0  0  0  0  0  0  0  0
    6.4907    1.4949    0.0000 C   0  0  0  0  0  0  0  0  0  0  0  0
    5.1905    0.7469    0.0000 C   0  0  0  0  0  0  0  0  0  0  0  0
    7.7878    0.7397    0.0000 O   0  0  0  0  0  0  0  0  0  0  0  0
    7.7956    3.7405    0.0000 O   0  0  0  0  0  0  0  0  0  0  0  0
    5.1946    5.2478    0.0000 O   0  0  0  0  0  0  0  0  0  0  0  0
    3.8911   -1.5017    0.0000 O   0  0  0  0  0  0  0  0  0  0  0  0
   -3.9072    2.7019    0.0000 C   0  0  0  0  0  0  0  0  0  0  0  0
   -2.3272   -3.6028    0.0000 C   0  0  0  0  0  0  0  0  0  0  0  0
    4.1555    5.8480    0.0000 C   0  0  0  0  0  0  0  0  0  0  0  0
    8.8331    3.1374    0.0000 C   0  0  0  0  0  0  0  0  0  0  0  0
    7.7841   -0.4603    0.0000 C   0  0  0  0  0  0  0  0  0  0  0  0
    3.8890   -3.0026    0.0000 C   0  0  0  0  0  0  0  0  0  0  0  0
    2.8487   -3.6008    0.0000 O   0  0  0  0  0  0  0  0  0  0  0  0
    5.1872   -3.7556    0.0000 C   0  0  0  0  0  0  0  0  0  0  0  0
    5.1872   -5.2557    0.0000 C   0  0  0  0  0  0  0  0  0  0  0  0
    6.4863   -6.0057    0.0000 C   0  0  0  0  0  0  0  0  0  0  0  0
    7.7853   -5.2557    0.0000 C   0  0  0  0  0  0  0  0  0  0  0  0
    7.7853   -3.7557    0.0000 C   0  0  0  0  0  0  0  0  0  0  0  0
    6.4863   -3.0057    0.0000 C   0  0  0  0  0  0  0  0  0  0  0  0
    8.8245   -5.8558    0.0000 F   0  0  0  0  0  0  0  0  0  0  0  0
    9.0836   -3.0027    0.0000 N   0  0  0  0  0  0  0  0  0  0  0  0
    9.0815   -1.5018    0.0000 C   0  0  0  0  0  0  0  0  0  0  0  0
   10.1195   -0.8997    0.0000 O   0  0  0  0  0  0  0  0  0  0  0  0
    8.0412   -0.9036    0.0000 C   0  0  0  0  0  0  0  0  0  0  0  0
  1  2  2  0
  2  3  1  0
  3  6  2  0
  5  4  2  0
  4  1  1  0
  5  6  1  0
  5 10  1  0
  6  7  1  0
  7  8  1  0
  8  9  1  0
  9 10  1  0
  3 11  1  0
  1 12  1  0
 13 14  2  0
 14 15  1  0
 15 16  2  0
 16 17  1  0
 17 18  2  0
 18 13  1  0
  9 13  1  0
 17 19  1  0
 16 20  1  0
 15 21  1  0
  8 22  1  0
 12 23  1  0
 11 24  1  0
 21 25  1  0
 20 26  1  0
 19 27  1  0
 22 28  1  0
 28 29  2  0
 28 30  1  0
 30 31  2  0
 31 32  1  0
 32 33  2  0
 33 34  1  0
 34 35  2  0
 35 30  1  0
 33 36  1  0
 34 37  1  0
 37 38  1  0
 38 39  2  0
 38 40  1  0
M  END
>  <Classification>  (338) 
1

>  <pchembl>  (338) 
7.83

>  <InChI_steorem>  (338) 
InChI=1S/C29H30FNO9/c1-15(32)31-21-9-16(7-8-20(21)30)29(33)40-26-14-19-22(35-3)12-18(34-2)13-23(19)39-27(26)17-10-24(36-4)28(38-6)25(11-17)37-5/h7-13,26-27H,14H2,1-6H3,(H,31,32)

>  <source>  (338) 
ChEMBL25

>  <source_id>  (338) 
25

>  <optional_reference>  (338) 
10.1021/acs.jmedchem.5b00085

>  <optional_origin>  (338) 
None

>  <target>  (338) 
MDR1

$$$$

     RDKit          2D

 41 44  0  0  0  0  0  0  0  0999 V2000
   -2.6111    0.7486    0.0000 C   0  0  0  0  0  0  0  0  0  0  0  0
   -2.6111   -0.7486    0.0000 C   0  0  0  0  0  0  0  0  0  0  0  0
   -1.2964   -1.4973    0.0000 C   0  0  0  0  0  0  0  0  0  0  0  0
   -1.2964    1.4973    0.0000 C   0  0  0  0  0  0  0  0  0  0  0  0
    0.0000    0.7486    0.0000 C   0  0  0  0  0  0  0  0  0  0  0  0
    0.0000   -0.7486    0.0000 C   0  0  0  0  0  0  0  0  0  0  0  0
    1.2964   -1.4973    0.0000 C   0  0  0  0  0  0  0  0  0  0  0  0
    2.5929   -0.7486    0.0000 C   0  0  0  0  0  0  0  0  0  0  0  0
    2.5929    0.7486    0.0000 C   0  0  0  0  0  0  0  0  0  0  0  0
    1.2964    1.4973    0.0000 O   0  0  0  0  0  0  0  0  0  0  0  0
   -1.2907   -2.9981    0.0000 O   0  0  0  0  0  0  0  0  0  0  0  0
   -3.9091    1.5019    0.0000 O   0  0  0  0  0  0  0  0  0  0  0  0
    3.8926    1.4990    0.0000 C   0  0  0  0  0  0  0  0  0  0  0  0
    3.8951    2.9990    0.0000 C   0  0  0  0  0  0  0  0  0  0  0  0
    5.1953    3.7469    0.0000 C   0  0  0  0  0  0  0  0  0  0  0  0
    6.4931    2.9949    0.0000 C   0  0  0  0  0  0  0  0  0  0  0  0
    6.4907    1.4949    0.0000 C   0  0  0  0  0  0  0  0  0  0  0  0
    5.1905    0.7469    0.0000 C   0  0  0  0  0  0  0  0  0  0  0  0
    7.7878    0.7397    0.0000 O   0  0  0  0  0  0  0  0  0  0  0  0
    7.7956    3.7405    0.0000 O   0  0  0  0  0  0  0  0  0  0  0  0
    5.1946    5.2478    0.0000 O   0  0  0  0  0  0  0  0  0  0  0  0
    3.8911   -1.5017    0.0000 O   0  0  0  0  0  0  0  0  0  0  0  0
   -3.9072    2.7019    0.0000 C   0  0  0  0  0  0  0  0  0  0  0  0
   -2.3272   -3.6028    0.0000 C   0  0  0  0  0  0  0  0  0  0  0  0
    4.1555    5.8480    0.0000 C   0  0  0  0  0  0  0  0  0  0  0  0
    8.8331    3.1374    0.0000 C   0  0  0  0  0  0  0  0  0  0  0  0
    7.7841   -0.4603    0.0000 C   0  0  0  0  0  0  0  0  0  0  0  0
    3.8890   -3.0026    0.0000 C   0  0  0  0  0  0  0  0  0  0  0  0
    2.8487   -3.6008    0.0000 O   0  0  0  0  0  0  0  0  0  0  0  0
    5.1872   -3.7556    0.0000 C   0  0  0  0  0  0  0  0  0  0  0  0
    5.1850   -5.2565    0.0000 C   0  0  0  0  0  0  0  0  0  0  0  0
    6.4832   -6.0096    0.0000 C   0  0  0  0  0  0  0  0  0  0  0  0
    6.4833   -7.5096    0.0000 C   0  0  0  0  0  0  0  0  0  0  0  0
    7.7823   -8.2596    0.0000 C   0  0  0  0  0  0  0  0  0  0  0  0
    9.0814   -7.5096    0.0000 C   0  0  0  0  0  0  0  0  0  0  0  0
    9.0814   -6.0096    0.0000 C   0  0  0  0  0  0  0  0  0  0  0  0
    7.7824   -5.2596    0.0000 C   0  0  0  0  0  0  0  0  0  0  0  0
   10.3796   -8.2628    0.0000 O   0  0  0  0  0  0  0  0  0  0  0  0
   10.3778   -9.4628    0.0000 C   0  0  0  0  0  0  0  0  0  0  0  0
   10.3796   -5.2566    0.0000 O   0  0  0  0  0  0  0  0  0  0  0  0
   10.3780   -4.0566    0.0000 C   0  0  0  0  0  0  0  0  0  0  0  0
  1  2  2  0
  2  3  1  0
  3  6  2  0
  5  4  2  0
  4  1  1  0
  5  6  1  0
  5 10  1  0
  6  7  1  0
  7  8  1  0
  8  9  1  0
  9 10  1  0
  3 11  1  0
  1 12  1  0
 13 14  2  0
 14 15  1  0
 15 16  2  0
 16 17  1  0
 17 18  2  0
 18 13  1  0
  9 13  1  0
 17 19  1  0
 16 20  1  0
 15 21  1  0
  8 22  1  0
 12 23  1  0
 11 24  1  0
 21 25  1  0
 20 26  1  0
 19 27  1  0
 22 28  1  0
 28 29  2  0
 28 30  1  0
 30 31  2  3
 31 32  1  0
 32 33  2  0
 33 34  1  0
 34 35  2  0
 35 36  1  0
 36 37  2  0
 37 32  1  0
 38 39  1  0
 35 38  1  0
 40 41  1  0
 36 40  1  0
M  END
>  <Classification>  (339) 
1

>  <pchembl>  (339) 
7.93

>  <InChI_steorem>  (339) 
InChI=1S/C31H34O10/c1-33-20-15-23(35-3)21-17-28(40-29(32)11-9-18-8-10-22(34-2)25(12-18)36-4)30(41-24(21)16-20)19-13-26(37-5)31(39-7)27(14-19)38-6/h8-16,28,30H,17H2,1-7H3

>  <source>  (339) 
ChEMBL25

>  <source_id>  (339) 
25

>  <optional_reference>  (339) 
10.1021/acs.jmedchem.5b00085

>  <optional_origin>  (339) 
None

>  <target>  (339) 
MDR1

$$$$

     RDKit          2D

 41 44  0  0  0  0  0  0  0  0999 V2000
   -2.6111    0.7486    0.0000 C   0  0  0  0  0  0  0  0  0  0  0  0
   -2.6111   -0.7486    0.0000 C   0  0  0  0  0  0  0  0  0  0  0  0
   -1.2964   -1.4973    0.0000 C   0  0  0  0  0  0  0  0  0  0  0  0
   -1.2964    1.4973    0.0000 C   0  0  0  0  0  0  0  0  0  0  0  0
    0.0000    0.7486    0.0000 C   0  0  0  0  0  0  0  0  0  0  0  0
    0.0000   -0.7486    0.0000 C   0  0  0  0  0  0  0  0  0  0  0  0
    1.2964   -1.4973    0.0000 C   0  0  0  0  0  0  0  0  0  0  0  0
    2.5929   -0.7486    0.0000 C   0  0  0  0  0  0  0  0  0  0  0  0
    2.5929    0.7486    0.0000 C   0  0  0  0  0  0  0  0  0  0  0  0
    1.2964    1.4973    0.0000 O   0  0  0  0  0  0  0  0  0  0  0  0
   -1.2907   -2.9981    0.0000 O   0  0  0  0  0  0  0  0  0  0  0  0
   -3.9091    1.5019    0.0000 O   0  0  0  0  0  0  0  0  0  0  0  0
    3.8926    1.4990    0.0000 C   0  0  0  0  0  0  0  0  0  0  0  0
    3.8951    2.9990    0.0000 C   0  0  0  0  0  0  0  0  0  0  0  0
    5.1953    3.7469    0.0000 C   0  0  0  0  0  0  0  0  0  0  0  0
    6.4931    2.9949    0.0000 C   0  0  0  0  0  0  0  0  0  0  0  0
    6.4907    1.4949    0.0000 C   0  0  0  0  0  0  0  0  0  0  0  0
    5.1905    0.7469    0.0000 C   0  0  0  0  0  0  0  0  0  0  0  0
    7.7878    0.7397    0.0000 O   0  0  0  0  0  0  0  0  0  0  0  0
    7.7956    3.7405    0.0000 O   0  0  0  0  0  0  0  0  0  0  0  0
    5.1946    5.2478    0.0000 O   0  0  0  0  0  0  0  0  0  0  0  0
    3.8911   -1.5017    0.0000 O   0  0  0  0  0  0  0  0  0  0  0  0
   -3.9072    2.7019    0.0000 C   0  0  0  0  0  0  0  0  0  0  0  0
   -2.3272   -3.6028    0.0000 C   0  0  0  0  0  0  0  0  0  0  0  0
    4.1555    5.8480    0.0000 C   0  0  0  0  0  0  0  0  0  0  0  0
    8.8331    3.1374    0.0000 C   0  0  0  0  0  0  0  0  0  0  0  0
    7.7841   -0.4603    0.0000 C   0  0  0  0  0  0  0  0  0  0  0  0
    3.8890   -3.0026    0.0000 C   0  0  0  0  0  0  0  0  0  0  0  0
    2.8487   -3.6008    0.0000 O   0  0  0  0  0  0  0  0  0  0  0  0
    5.1872   -3.7556    0.0000 C   0  0  0  0  0  0  0  0  0  0  0  0
    5.1850   -5.2565    0.0000 C   0  0  0  0  0  0  0  0  0  0  0  0
    6.4832   -6.0096    0.0000 C   0  0  0  0  0  0  0  0  0  0  0  0
    6.4833   -7.5096    0.0000 C   0  0  0  0  0  0  0  0  0  0  0  0
    7.7823   -8.2596    0.0000 C   0  0  0  0  0  0  0  0  0  0  0  0
    9.0814   -7.5096    0.0000 C   0  0  0  0  0  0  0  0  0  0  0  0
    9.0814   -6.0096    0.0000 C   0  0  0  0  0  0  0  0  0  0  0  0
    7.7824   -5.2596    0.0000 C   0  0  0  0  0  0  0  0  0  0  0  0
   10.3796   -8.2628    0.0000 O   0  0  0  0  0  0  0  0  0  0  0  0
   10.3778   -9.4628    0.0000 C   0  0  0  0  0  0  0  0  0  0  0  0
   10.3796   -5.2566    0.0000 O   0  0  0  0  0  0  0  0  0  0  0  0
   10.3780   -4.0566    0.0000 C   0  0  0  0  0  0  0  0  0  0  0  0
  1  2  2  0
  2  3  1  0
  3  6  2  0
  5  4  2  0
  4  1  1  0
  5  6  1  0
  5 10  1  0
  6  7  1  0
  7  8  1  0
  8  9  1  0
  9 10  1  0
  3 11  1  0
  1 12  1  0
 13 14  2  0
 14 15  1  0
 15 16  2  0
 16 17  1  0
 17 18  2  0
 18 13  1  0
  9 13  1  0
 17 19  1  0
 16 20  1  0
 15 21  1  0
  8 22  1  0
 12 23  1  0
 11 24  1  0
 21 25  1  0
 20 26  1  0
 19 27  1  0
 22 28  1  0
 28 29  2  0
 28 30  1  0
 30 31  1  0
 31 32  1  0
 32 33  2  0
 33 34  1  0
 34 35  2  0
 35 36  1  0
 36 37  2  0
 37 32  1  0
 38 39  1  0
 35 38  1  0
 40 41  1  0
 36 40  1  0
M  END
>  <Classification>  (340) 
1

>  <pchembl>  (340) 
7.72

>  <InChI_steorem>  (340) 
InChI=1S/C31H36O10/c1-33-20-15-23(35-3)21-17-28(40-29(32)11-9-18-8-10-22(34-2)25(12-18)36-4)30(41-24(21)16-20)19-13-26(37-5)31(39-7)27(14-19)38-6/h8,10,12-16,28,30H,9,11,17H2,1-7H3

>  <source>  (340) 
ChEMBL25

>  <source_id>  (340) 
25

>  <optional_reference>  (340) 
10.1021/acs.jmedchem.5b00085

>  <optional_origin>  (340) 
None

>  <target>  (340) 
MDR1

$$$$

     RDKit          2D

 42 45  0  0  0  0  0  0  0  0999 V2000
   -2.6111    0.7486    0.0000 C   0  0  0  0  0  0  0  0  0  0  0  0
   -2.6111   -0.7486    0.0000 C   0  0  0  0  0  0  0  0  0  0  0  0
   -1.2964   -1.4973    0.0000 C   0  0  0  0  0  0  0  0  0  0  0  0
   -1.2964    1.4973    0.0000 C   0  0  0  0  0  0  0  0  0  0  0  0
    0.0000    0.7486    0.0000 C   0  0  0  0  0  0  0  0  0  0  0  0
    0.0000   -0.7486    0.0000 C   0  0  0  0  0  0  0  0  0  0  0  0
    1.2964   -1.4973    0.0000 C   0  0  0  0  0  0  0  0  0  0  0  0
    2.5929   -0.7486    0.0000 C   0  0  0  0  0  0  0  0  0  0  0  0
    2.5929    0.7486    0.0000 C   0  0  0  0  0  0  0  0  0  0  0  0
    1.2964    1.4973    0.0000 O   0  0  0  0  0  0  0  0  0  0  0  0
   -1.2907   -2.9981    0.0000 O   0  0  0  0  0  0  0  0  0  0  0  0
   -3.9091    1.5019    0.0000 O   0  0  0  0  0  0  0  0  0  0  0  0
    3.8926    1.4990    0.0000 C   0  0  0  0  0  0  0  0  0  0  0  0
    3.8951    2.9990    0.0000 C   0  0  0  0  0  0  0  0  0  0  0  0
    5.1953    3.7469    0.0000 C   0  0  0  0  0  0  0  0  0  0  0  0
    6.4931    2.9949    0.0000 C   0  0  0  0  0  0  0  0  0  0  0  0
    6.4907    1.4949    0.0000 C   0  0  0  0  0  0  0  0  0  0  0  0
    5.1905    0.7469    0.0000 C   0  0  0  0  0  0  0  0  0  0  0  0
    7.7878    0.7397    0.0000 O   0  0  0  0  0  0  0  0  0  0  0  0
    7.7956    3.7405    0.0000 O   0  0  0  0  0  0  0  0  0  0  0  0
    3.8911   -1.5017    0.0000 O   0  0  0  0  0  0  0  0  0  0  0  0
   -3.9072    2.7019    0.0000 C   0  0  0  0  0  0  0  0  0  0  0  0
    8.8331    3.1374    0.0000 C   0  0  0  0  0  0  0  0  0  0  0  0
    7.7841   -0.4603    0.0000 C   0  0  0  0  0  0  0  0  0  0  0  0
    1.2964   -2.6973    0.0000 O   0  0  0  0  0  0  0  0  0  0  0  0
   -2.3272   -3.6028    0.0000 C   0  0  0  0  0  0  0  0  0  0  0  0
    5.1946    5.2478    0.0000 O   0  0  0  0  0  0  0  0  0  0  0  0
    4.1555    5.8480    0.0000 C   0  0  0  0  0  0  0  0  0  0  0  0
    3.8890   -3.0026    0.0000 C   0  0  0  0  0  0  0  0  0  0  0  0
    5.1872   -3.7556    0.0000 C   0  0  0  0  0  0  0  0  0  0  0  0
    2.8487   -3.6008    0.0000 O   0  0  0  0  0  0  0  0  0  0  0  0
    5.1850   -5.2565    0.0000 C   0  0  0  0  0  0  0  0  0  0  0  0
    6.4832   -6.0096    0.0000 C   0  0  0  0  0  0  0  0  0  0  0  0
    6.4833   -7.5096    0.0000 C   0  0  0  0  0  0  0  0  0  0  0  0
    7.7823   -8.2596    0.0000 C   0  0  0  0  0  0  0  0  0  0  0  0
    9.0814   -7.5096    0.0000 C   0  0  0  0  0  0  0  0  0  0  0  0
    9.0814   -6.0096    0.0000 C   0  0  0  0  0  0  0  0  0  0  0  0
    7.7824   -5.2596    0.0000 C   0  0  0  0  0  0  0  0  0  0  0  0
   10.3796   -8.2628    0.0000 O   0  0  0  0  0  0  0  0  0  0  0  0
   10.3778   -9.4628    0.0000 C   0  0  0  0  0  0  0  0  0  0  0  0
   10.3796   -5.2566    0.0000 O   0  0  0  0  0  0  0  0  0  0  0  0
   10.3780   -4.0566    0.0000 C   0  0  0  0  0  0  0  0  0  0  0  0
  1  2  2  0
  2  3  1  0
  3  6  2  0
  5  4  2  0
  4  1  1  0
  5  6  1  0
  5 10  1  0
  6  7  1  0
  7  8  1  0
  8  9  1  0
  9 10  1  0
  3 11  1  0
  1 12  1  0
 13 14  2  0
 14 15  1  0
 15 16  2  0
 16 17  1  0
 17 18  2  0
 18 13  1  0
  9 13  1  0
 17 19  1  0
 16 20  1  0
  8 21  1  0
 12 22  1  0
 20 23  1  0
 19 24  1  0
  7 25  2  0
 11 26  1  0
 27 28  1  0
 15 27  1  0
 21 29  1  0
 29 30  1  0
 29 31  2  0
 30 32  2  3
 32 33  1  0
 33 34  2  0
 34 35  1  0
 35 36  2  0
 36 37  1  0
 37 38  2  0
 38 33  1  0
 39 40  1  0
 36 39  1  0
 41 42  1  0
 37 41  1  0
M  END
>  <Classification>  (341) 
1

>  <pchembl>  (341) 
7.58

>  <InChI_steorem>  (341) 
InChI=1S/C31H32O11/c1-34-19-15-22(37-4)27-23(16-19)41-29(18-13-24(38-5)30(40-7)25(14-18)39-6)31(28(27)33)42-26(32)11-9-17-8-10-20(35-2)21(12-17)36-3/h8-16,29,31H,1-7H3

>  <source>  (341) 
ChEMBL25

>  <source_id>  (341) 
25

>  <optional_reference>  (341) 
10.1021/acs.jmedchem.5b00085

>  <optional_origin>  (341) 
None

>  <target>  (341) 
MDR1

$$$$

     RDKit          2D

 42 45  0  0  0  0  0  0  0  0999 V2000
   -2.6111    0.7486    0.0000 C   0  0  0  0  0  0  0  0  0  0  0  0
   -2.6111   -0.7486    0.0000 C   0  0  0  0  0  0  0  0  0  0  0  0
   -1.2964   -1.4973    0.0000 C   0  0  0  0  0  0  0  0  0  0  0  0
   -1.2964    1.4973    0.0000 C   0  0  0  0  0  0  0  0  0  0  0  0
    0.0000    0.7486    0.0000 C   0  0  0  0  0  0  0  0  0  0  0  0
    0.0000   -0.7486    0.0000 C   0  0  0  0  0  0  0  0  0  0  0  0
    1.2964   -1.4973    0.0000 C   0  0  0  0  0  0  0  0  0  0  0  0
    2.5929   -0.7486    0.0000 C   0  0  0  0  0  0  0  0  0  0  0  0
    2.5929    0.7486    0.0000 C   0  0  0  0  0  0  0  0  0  0  0  0
    1.2964    1.4973    0.0000 O   0  0  0  0  0  0  0  0  0  0  0  0
   -1.2907   -2.9981    0.0000 O   0  0  0  0  0  0  0  0  0  0  0  0
   -3.9091    1.5019    0.0000 O   0  0  0  0  0  0  0  0  0  0  0  0
    3.8926    1.4990    0.0000 C   0  0  0  0  0  0  0  0  0  0  0  0
    3.8951    2.9990    0.0000 C   0  0  0  0  0  0  0  0  0  0  0  0
    5.1953    3.7469    0.0000 C   0  0  0  0  0  0  0  0  0  0  0  0
    6.4931    2.9949    0.0000 C   0  0  0  0  0  0  0  0  0  0  0  0
    6.4907    1.4949    0.0000 C   0  0  0  0  0  0  0  0  0  0  0  0
    5.1905    0.7469    0.0000 C   0  0  0  0  0  0  0  0  0  0  0  0
    7.7878    0.7397    0.0000 O   0  0  0  0  0  0  0  0  0  0  0  0
    7.7956    3.7405    0.0000 O   0  0  0  0  0  0  0  0  0  0  0  0
    3.8911   -1.5017    0.0000 O   0  0  0  0  0  0  0  0  0  0  0  0
   -3.9072    2.7019    0.0000 C   0  0  0  0  0  0  0  0  0  0  0  0
    8.8331    3.1374    0.0000 C   0  0  0  0  0  0  0  0  0  0  0  0
    7.7841   -0.4603    0.0000 C   0  0  0  0  0  0  0  0  0  0  0  0
    1.2964   -2.6973    0.0000 O   0  0  0  0  0  0  0  0  0  0  0  0
   -2.3272   -3.6028    0.0000 C   0  0  0  0  0  0  0  0  0  0  0  0
    5.1946    5.2478    0.0000 O   0  0  0  0  0  0  0  0  0  0  0  0
    4.1555    5.8480    0.0000 C   0  0  0  0  0  0  0  0  0  0  0  0
    3.8890   -3.0026    0.0000 C   0  0  0  0  0  0  0  0  0  0  0  0
    5.1872   -3.7556    0.0000 C   0  0  0  0  0  0  0  0  0  0  0  0
    2.8487   -3.6008    0.0000 O   0  0  0  0  0  0  0  0  0  0  0  0
    5.1872   -5.2557    0.0000 C   0  0  0  0  0  0  0  0  0  0  0  0
    6.4863   -6.0057    0.0000 C   0  0  0  0  0  0  0  0  0  0  0  0
    7.7853   -5.2557    0.0000 C   0  0  0  0  0  0  0  0  0  0  0  0
    7.7853   -3.7557    0.0000 C   0  0  0  0  0  0  0  0  0  0  0  0
    6.4863   -3.0057    0.0000 C   0  0  0  0  0  0  0  0  0  0  0  0
    9.0866   -6.0035    0.0000 O   0  0  0  0  0  0  0  0  0  0  0  0
   10.1250   -5.4020    0.0000 C   0  0  0  0  0  0  0  0  0  0  0  0
    9.0836   -3.0027    0.0000 O   0  0  0  0  0  0  0  0  0  0  0  0
    9.0819   -1.8027    0.0000 C   0  0  0  0  0  0  0  0  0  0  0  0
    6.4831   -7.5065    0.0000 O   0  0  0  0  0  0  0  0  0  0  0  0
    5.4430   -8.1050    0.0000 C   0  0  0  0  0  0  0  0  0  0  0  0
  1  2  2  0
  2  3  1  0
  3  6  2  0
  5  4  2  0
  4  1  1  0
  5  6  1  0
  5 10  1  0
  6  7  1  0
  7  8  1  0
  8  9  1  0
  9 10  1  0
  3 11  1  0
  1 12  1  0
 13 14  2  0
 14 15  1  0
 15 16  2  0
 16 17  1  0
 17 18  2  0
 18 13  1  0
  9 13  1  0
 17 19  1  0
 16 20  1  0
  8 21  1  0
 12 22  1  0
 20 23  1  0
 19 24  1  0
  7 25  2  0
 11 26  1  0
 27 28  1  0
 15 27  1  0
 21 29  1  0
 29 30  1  0
 29 31  2  0
 30 32  2  0
 32 33  1  0
 33 34  2  0
 34 35  1  0
 35 36  2  0
 36 30  1  0
 37 38  1  0
 34 37  1  0
 39 40  1  0
 35 39  1  0
 41 42  1  0
 33 41  1  0
M  END
>  <Classification>  (342) 
1

>  <pchembl>  (342) 
7.35

>  <InChI_steorem>  (342) 
InChI=1S/C30H32O12/c1-33-17-13-18(34-2)24-19(14-17)41-26(15-9-20(35-3)27(39-7)21(10-15)36-4)29(25(24)31)42-30(32)16-11-22(37-5)28(40-8)23(12-16)38-6/h9-14,26,29H,1-8H3

>  <source>  (342) 
ChEMBL25

>  <source_id>  (342) 
25

>  <optional_reference>  (342) 
10.1021/acs.jmedchem.5b00085

>  <optional_origin>  (342) 
None

>  <target>  (342) 
MDR1

$$$$

     RDKit          2D

 42 45  0  0  0  0  0  0  0  0999 V2000
   -2.6111    0.7486    0.0000 C   0  0  0  0  0  0  0  0  0  0  0  0
   -2.6111   -0.7486    0.0000 C   0  0  0  0  0  0  0  0  0  0  0  0
   -1.2964   -1.4973    0.0000 C   0  0  0  0  0  0  0  0  0  0  0  0
   -1.2964    1.4973    0.0000 C   0  0  0  0  0  0  0  0  0  0  0  0
    0.0000    0.7486    0.0000 C   0  0  0  0  0  0  0  0  0  0  0  0
    0.0000   -0.7486    0.0000 C   0  0  0  0  0  0  0  0  0  0  0  0
    1.2964   -1.4973    0.0000 C   0  0  0  0  0  0  0  0  0  0  0  0
    2.5929   -0.7486    0.0000 C   0  0  0  0  0  0  0  0  0  0  0  0
    2.5929    0.7486    0.0000 C   0  0  0  0  0  0  0  0  0  0  0  0
    1.2964    1.4973    0.0000 O   0  0  0  0  0  0  0  0  0  0  0  0
   -1.2907   -2.9981    0.0000 O   0  0  0  0  0  0  0  0  0  0  0  0
   -3.9091    1.5019    0.0000 O   0  0  0  0  0  0  0  0  0  0  0  0
    3.8926    1.4990    0.0000 C   0  0  0  0  0  0  0  0  0  0  0  0
    3.8951    2.9990    0.0000 C   0  0  0  0  0  0  0  0  0  0  0  0
    5.1953    3.7469    0.0000 C   0  0  0  0  0  0  0  0  0  0  0  0
    6.4931    2.9949    0.0000 C   0  0  0  0  0  0  0  0  0  0  0  0
    6.4907    1.4949    0.0000 C   0  0  0  0  0  0  0  0  0  0  0  0
    5.1905    0.7469    0.0000 C   0  0  0  0  0  0  0  0  0  0  0  0
    7.7878    0.7397    0.0000 O   0  0  0  0  0  0  0  0  0  0  0  0
    7.7956    3.7405    0.0000 O   0  0  0  0  0  0  0  0  0  0  0  0
    5.1946    5.2478    0.0000 O   0  0  0  0  0  0  0  0  0  0  0  0
    3.8911   -1.5017    0.0000 O   0  0  0  0  0  0  0  0  0  0  0  0
   -3.9072    2.7019    0.0000 C   0  0  0  0  0  0  0  0  0  0  0  0
   -2.3272   -3.6028    0.0000 C   0  0  0  0  0  0  0  0  0  0  0  0
    4.1555    5.8480    0.0000 C   0  0  0  0  0  0  0  0  0  0  0  0
    8.8331    3.1374    0.0000 C   0  0  0  0  0  0  0  0  0  0  0  0
    7.7841   -0.4603    0.0000 C   0  0  0  0  0  0  0  0  0  0  0  0
    3.8890   -3.0026    0.0000 C   0  0  0  0  0  0  0  0  0  0  0  0
    2.8487   -3.6008    0.0000 O   0  0  0  0  0  0  0  0  0  0  0  0
    5.1872   -3.7556    0.0000 C   0  0  0  0  0  0  0  0  0  0  0  0
    5.1850   -5.2565    0.0000 C   0  0  0  0  0  0  0  0  0  0  0  0
    6.4815   -6.0111    0.0000 C   0  0  0  0  0  0  0  0  0  0  0  0
    6.4763   -7.5110    0.0000 C   0  0  0  0  0  0  0  0  0  0  0  0
    5.1746   -8.2565    0.0000 C   0  0  0  0  0  0  0  0  0  0  0  0
    3.8782   -7.5021    0.0000 C   0  0  0  0  0  0  0  0  0  0  0  0
    3.8834   -6.0021    0.0000 C   0  0  0  0  0  0  0  0  0  0  0  0
    5.1664   -9.7574    0.0000 O   0  0  0  0  0  0  0  0  0  0  0  0
    4.1242  -10.3523    0.0000 C   0  0  0  0  0  0  0  0  0  0  0  0
    7.7750   -8.2633    0.0000 O   0  0  0  0  0  0  0  0  0  0  0  0
    8.8154   -7.6654    0.0000 C   0  0  0  0  0  0  0  0  0  0  0  0
    2.5743   -8.2453    0.0000 O   0  0  0  0  0  0  0  0  0  0  0  0
    1.5380   -7.6402    0.0000 C   0  0  0  0  0  0  0  0  0  0  0  0
  1  2  2  0
  2  3  1  0
  3  6  2  0
  5  4  2  0
  4  1  1  0
  5  6  1  0
  5 10  1  0
  6  7  1  0
  7  8  1  0
  8  9  1  0
  9 10  1  0
  3 11  1  0
  1 12  1  0
 13 14  2  0
 14 15  1  0
 15 16  2  0
 16 17  1  0
 17 18  2  0
 18 13  1  0
  9 13  1  0
 17 19  1  0
 16 20  1  0
 15 21  1  0
  8 22  1  0
 12 23  1  0
 11 24  1  0
 21 25  1  0
 20 26  1  0
 19 27  1  0
 22 28  1  0
 28 29  2  0
 28 30  1  0
 30 31  1  0
 31 32  2  0
 32 33  1  0
 33 34  2  0
 34 35  1  0
 35 36  2  0
 36 31  1  0
 37 38  1  0
 34 37  1  0
 39 40  1  0
 33 39  1  0
 41 42  1  0
 35 41  1  0
M  END
>  <Classification>  (343) 
1

>  <pchembl>  (343) 
7.6

>  <InChI_steorem>  (343) 
InChI=1S/C31H36O11/c1-33-19-14-21(34-2)20-16-27(41-28(32)11-17-9-23(35-3)30(39-7)24(10-17)36-4)29(42-22(20)15-19)18-12-25(37-5)31(40-8)26(13-18)38-6/h9-10,12-15,27,29H,11,16H2,1-8H3

>  <source>  (343) 
ChEMBL25

>  <source_id>  (343) 
25

>  <optional_reference>  (343) 
10.1021/acs.jmedchem.5b00085

>  <optional_origin>  (343) 
None

>  <target>  (343) 
MDR1

$$$$

     RDKit          2D

 43 46  0  0  0  0  0  0  0  0999 V2000
   -2.6111    0.7486    0.0000 C   0  0  0  0  0  0  0  0  0  0  0  0
   -2.6111   -0.7486    0.0000 C   0  0  0  0  0  0  0  0  0  0  0  0
   -1.2964   -1.4973    0.0000 C   0  0  0  0  0  0  0  0  0  0  0  0
   -1.2964    1.4973    0.0000 C   0  0  0  0  0  0  0  0  0  0  0  0
    0.0000    0.7486    0.0000 C   0  0  0  0  0  0  0  0  0  0  0  0
    0.0000   -0.7486    0.0000 C   0  0  0  0  0  0  0  0  0  0  0  0
    1.2964   -1.4973    0.0000 C   0  0  0  0  0  0  0  0  0  0  0  0
    2.5929   -0.7486    0.0000 C   0  0  0  0  0  0  0  0  0  0  0  0
    2.5929    0.7486    0.0000 C   0  0  0  0  0  0  0  0  0  0  0  0
    1.2964    1.4973    0.0000 O   0  0  0  0  0  0  0  0  0  0  0  0
   -1.2907   -2.9981    0.0000 O   0  0  0  0  0  0  0  0  0  0  0  0
   -3.9091    1.5019    0.0000 O   0  0  0  0  0  0  0  0  0  0  0  0
    3.8926    1.4990    0.0000 C   0  0  0  0  0  0  0  0  0  0  0  0
    3.8951    2.9990    0.0000 C   0  0  0  0  0  0  0  0  0  0  0  0
    5.1953    3.7469    0.0000 C   0  0  0  0  0  0  0  0  0  0  0  0
    6.4931    2.9949    0.0000 C   0  0  0  0  0  0  0  0  0  0  0  0
    6.4907    1.4949    0.0000 C   0  0  0  0  0  0  0  0  0  0  0  0
    5.1905    0.7469    0.0000 C   0  0  0  0  0  0  0  0  0  0  0  0
    7.7878    0.7397    0.0000 O   0  0  0  0  0  0  0  0  0  0  0  0
    7.7956    3.7405    0.0000 O   0  0  0  0  0  0  0  0  0  0  0  0
    5.1946    5.2478    0.0000 O   0  0  0  0  0  0  0  0  0  0  0  0
    3.8911   -1.5017    0.0000 O   0  0  0  0  0  0  0  0  0  0  0  0
   -3.9072    2.7019    0.0000 C   0  0  0  0  0  0  0  0  0  0  0  0
   -2.3272   -3.6028    0.0000 C   0  0  0  0  0  0  0  0  0  0  0  0
    4.1555    5.8480    0.0000 C   0  0  0  0  0  0  0  0  0  0  0  0
    8.8331    3.1374    0.0000 C   0  0  0  0  0  0  0  0  0  0  0  0
    7.7841   -0.4603    0.0000 C   0  0  0  0  0  0  0  0  0  0  0  0
    3.8890   -3.0026    0.0000 C   0  0  0  0  0  0  0  0  0  0  0  0
    2.8487   -3.6008    0.0000 O   0  0  0  0  0  0  0  0  0  0  0  0
    5.1872   -3.7556    0.0000 C   0  0  0  0  0  0  0  0  0  0  0  0
    5.1850   -5.2565    0.0000 C   0  0  0  0  0  0  0  0  0  0  0  0
    6.4832   -6.0096    0.0000 C   0  0  0  0  0  0  0  0  0  0  0  0
    6.4833   -7.5096    0.0000 C   0  0  0  0  0  0  0  0  0  0  0  0
    7.7823   -8.2596    0.0000 C   0  0  0  0  0  0  0  0  0  0  0  0
    9.0814   -7.5096    0.0000 C   0  0  0  0  0  0  0  0  0  0  0  0
    9.0814   -6.0096    0.0000 C   0  0  0  0  0  0  0  0  0  0  0  0
    7.7824   -5.2596    0.0000 C   0  0  0  0  0  0  0  0  0  0  0  0
   10.3827   -8.2574    0.0000 O   0  0  0  0  0  0  0  0  0  0  0  0
   11.4210   -7.6560    0.0000 C   0  0  0  0  0  0  0  0  0  0  0  0
   10.3796   -5.2566    0.0000 O   0  0  0  0  0  0  0  0  0  0  0  0
   10.3780   -4.0566    0.0000 C   0  0  0  0  0  0  0  0  0  0  0  0
    7.7792   -9.7604    0.0000 O   0  0  0  0  0  0  0  0  0  0  0  0
    6.7391  -10.3589    0.0000 C   0  0  0  0  0  0  0  0  0  0  0  0
  1  2  2  0
  2  3  1  0
  3  6  2  0
  5  4  2  0
  4  1  1  0
  5  6  1  0
  5 10  1  0
  6  7  1  0
  7  8  1  0
  8  9  1  0
  9 10  1  0
  3 11  1  0
  1 12  1  0
 13 14  2  0
 14 15  1  0
 15 16  2  0
 16 17  1  0
 17 18  2  0
 18 13  1  0
  9 13  1  0
 17 19  1  0
 16 20  1  0
 15 21  1  0
  8 22  1  0
 12 23  1  0
 11 24  1  0
 21 25  1  0
 20 26  1  0
 19 27  1  0
 22 28  1  0
 28 29  2  0
 28 30  1  0
 30 31  2  3
 31 32  1  0
 32 33  2  0
 33 34  1  0
 34 35  2  0
 35 36  1  0
 36 37  2  0
 37 32  1  0
 38 39  1  0
 35 38  1  0
 40 41  1  0
 36 40  1  0
 42 43  1  0
 34 42  1  0
M  END
>  <Classification>  (344) 
1

>  <pchembl>  (344) 
7.94

>  <InChI_steorem>  (344) 
InChI=1S/C32H36O11/c1-34-20-15-22(35-2)21-17-28(42-29(33)10-9-18-11-24(36-3)31(40-7)25(12-18)37-4)30(43-23(21)16-20)19-13-26(38-5)32(41-8)27(14-19)39-6/h9-16,28,30H,17H2,1-8H3

>  <source>  (344) 
ChEMBL25

>  <source_id>  (344) 
25

>  <optional_reference>  (344) 
10.1021/acs.jmedchem.5b00085

>  <optional_origin>  (344) 
None

>  <target>  (344) 
MDR1

$$$$

     RDKit          2D

 43 46  0  0  0  0  0  0  0  0999 V2000
   -2.6111    0.7486    0.0000 C   0  0  0  0  0  0  0  0  0  0  0  0
   -2.6111   -0.7486    0.0000 C   0  0  0  0  0  0  0  0  0  0  0  0
   -1.2964   -1.4973    0.0000 C   0  0  0  0  0  0  0  0  0  0  0  0
   -1.2964    1.4973    0.0000 C   0  0  0  0  0  0  0  0  0  0  0  0
    0.0000    0.7486    0.0000 C   0  0  0  0  0  0  0  0  0  0  0  0
    0.0000   -0.7486    0.0000 C   0  0  0  0  0  0  0  0  0  0  0  0
    1.2964   -1.4973    0.0000 C   0  0  0  0  0  0  0  0  0  0  0  0
    2.5929   -0.7486    0.0000 C   0  0  0  0  0  0  0  0  0  0  0  0
    2.5929    0.7486    0.0000 C   0  0  0  0  0  0  0  0  0  0  0  0
    1.2964    1.4973    0.0000 O   0  0  0  0  0  0  0  0  0  0  0  0
   -1.2907   -2.9981    0.0000 O   0  0  0  0  0  0  0  0  0  0  0  0
   -3.9091    1.5019    0.0000 O   0  0  0  0  0  0  0  0  0  0  0  0
    3.8926    1.4990    0.0000 C   0  0  0  0  0  0  0  0  0  0  0  0
    3.8951    2.9990    0.0000 C   0  0  0  0  0  0  0  0  0  0  0  0
    5.1953    3.7469    0.0000 C   0  0  0  0  0  0  0  0  0  0  0  0
    6.4931    2.9949    0.0000 C   0  0  0  0  0  0  0  0  0  0  0  0
    6.4907    1.4949    0.0000 C   0  0  0  0  0  0  0  0  0  0  0  0
    5.1905    0.7469    0.0000 C   0  0  0  0  0  0  0  0  0  0  0  0
    7.7878    0.7397    0.0000 O   0  0  0  0  0  0  0  0  0  0  0  0
    7.7956    3.7405    0.0000 O   0  0  0  0  0  0  0  0  0  0  0  0
    5.1946    5.2478    0.0000 O   0  0  0  0  0  0  0  0  0  0  0  0
    3.8911   -1.5017    0.0000 O   0  0  0  0  0  0  0  0  0  0  0  0
   -3.9072    2.7019    0.0000 C   0  0  0  0  0  0  0  0  0  0  0  0
   -2.3272   -3.6028    0.0000 C   0  0  0  0  0  0  0  0  0  0  0  0
    4.1555    5.8480    0.0000 C   0  0  0  0  0  0  0  0  0  0  0  0
    8.8331    3.1374    0.0000 C   0  0  0  0  0  0  0  0  0  0  0  0
    7.7841   -0.4603    0.0000 C   0  0  0  0  0  0  0  0  0  0  0  0
    3.8890   -3.0026    0.0000 C   0  0  0  0  0  0  0  0  0  0  0  0
    2.8487   -3.6008    0.0000 O   0  0  0  0  0  0  0  0  0  0  0  0
    5.1872   -3.7556    0.0000 C   0  0  0  0  0  0  0  0  0  0  0  0
    5.1850   -5.2565    0.0000 C   0  0  0  0  0  0  0  0  0  0  0  0
    6.4832   -6.0096    0.0000 C   0  0  0  0  0  0  0  0  0  0  0  0
    6.4833   -7.5096    0.0000 C   0  0  0  0  0  0  0  0  0  0  0  0
    7.7823   -8.2596    0.0000 C   0  0  0  0  0  0  0  0  0  0  0  0
    9.0814   -7.5096    0.0000 C   0  0  0  0  0  0  0  0  0  0  0  0
    9.0814   -6.0096    0.0000 C   0  0  0  0  0  0  0  0  0  0  0  0
    7.7824   -5.2596    0.0000 C   0  0  0  0  0  0  0  0  0  0  0  0
   10.3827   -8.2574    0.0000 O   0  0  0  0  0  0  0  0  0  0  0  0
   11.4210   -7.6560    0.0000 C   0  0  0  0  0  0  0  0  0  0  0  0
   10.3796   -5.2566    0.0000 O   0  0  0  0  0  0  0  0  0  0  0  0
   10.3780   -4.0566    0.0000 C   0  0  0  0  0  0  0  0  0  0  0  0
    7.7792   -9.7604    0.0000 O   0  0  0  0  0  0  0  0  0  0  0  0
    6.7391  -10.3589    0.0000 C   0  0  0  0  0  0  0  0  0  0  0  0
  1  2  2  0
  2  3  1  0
  3  6  2  0
  5  4  2  0
  4  1  1  0
  5  6  1  0
  5 10  1  0
  6  7  1  0
  7  8  1  0
  8  9  1  0
  9 10  1  0
  3 11  1  0
  1 12  1  0
 13 14  2  0
 14 15  1  0
 15 16  2  0
 16 17  1  0
 17 18  2  0
 18 13  1  0
  9 13  1  0
 17 19  1  0
 16 20  1  0
 15 21  1  0
  8 22  1  0
 12 23  1  0
 11 24  1  0
 21 25  1  0
 20 26  1  0
 19 27  1  0
 22 28  1  0
 28 29  2  0
 28 30  1  0
 30 31  1  0
 31 32  1  0
 32 33  2  0
 33 34  1  0
 34 35  2  0
 35 36  1  0
 36 37  2  0
 37 32  1  0
 38 39  1  0
 35 38  1  0
 40 41  1  0
 36 40  1  0
 42 43  1  0
 34 42  1  0
M  END
>  <Classification>  (345) 
1

>  <pchembl>  (345) 
7.75

>  <InChI_steorem>  (345) 
InChI=1S/C32H38O11/c1-34-20-15-22(35-2)21-17-28(42-29(33)10-9-18-11-24(36-3)31(40-7)25(12-18)37-4)30(43-23(21)16-20)19-13-26(38-5)32(41-8)27(14-19)39-6/h11-16,28,30H,9-10,17H2,1-8H3

>  <source>  (345) 
ChEMBL25

>  <source_id>  (345) 
25

>  <optional_reference>  (345) 
10.1021/acs.jmedchem.5b00085

>  <optional_origin>  (345) 
None

>  <target>  (345) 
MDR1

$$$$

     RDKit          2D

 44 47  0  0  0  0  0  0  0  0999 V2000
   -2.6111    0.7486    0.0000 C   0  0  0  0  0  0  0  0  0  0  0  0
   -2.6111   -0.7486    0.0000 C   0  0  0  0  0  0  0  0  0  0  0  0
   -1.2964   -1.4973    0.0000 C   0  0  0  0  0  0  0  0  0  0  0  0
   -1.2964    1.4973    0.0000 C   0  0  0  0  0  0  0  0  0  0  0  0
    0.0000    0.7486    0.0000 C   0  0  0  0  0  0  0  0  0  0  0  0
    0.0000   -0.7486    0.0000 C   0  0  0  0  0  0  0  0  0  0  0  0
    1.2964   -1.4973    0.0000 C   0  0  0  0  0  0  0  0  0  0  0  0
    2.5929   -0.7486    0.0000 C   0  0  0  0  0  0  0  0  0  0  0  0
    2.5929    0.7486    0.0000 C   0  0  0  0  0  0  0  0  0  0  0  0
    1.2964    1.4973    0.0000 O   0  0  0  0  0  0  0  0  0  0  0  0
   -1.2907   -2.9981    0.0000 O   0  0  0  0  0  0  0  0  0  0  0  0
   -3.9091    1.5019    0.0000 O   0  0  0  0  0  0  0  0  0  0  0  0
    3.8926    1.4990    0.0000 C   0  0  0  0  0  0  0  0  0  0  0  0
    3.8951    2.9990    0.0000 C   0  0  0  0  0  0  0  0  0  0  0  0
    5.1953    3.7469    0.0000 C   0  0  0  0  0  0  0  0  0  0  0  0
    6.4931    2.9949    0.0000 C   0  0  0  0  0  0  0  0  0  0  0  0
    6.4907    1.4949    0.0000 C   0  0  0  0  0  0  0  0  0  0  0  0
    5.1905    0.7469    0.0000 C   0  0  0  0  0  0  0  0  0  0  0  0
    7.7878    0.7397    0.0000 O   0  0  0  0  0  0  0  0  0  0  0  0
    7.7956    3.7405    0.0000 O   0  0  0  0  0  0  0  0  0  0  0  0
    3.8911   -1.5017    0.0000 O   0  0  0  0  0  0  0  0  0  0  0  0
   -3.9072    2.7019    0.0000 C   0  0  0  0  0  0  0  0  0  0  0  0
    8.8331    3.1374    0.0000 C   0  0  0  0  0  0  0  0  0  0  0  0
    7.7841   -0.4603    0.0000 C   0  0  0  0  0  0  0  0  0  0  0  0
    1.2964   -2.6973    0.0000 O   0  0  0  0  0  0  0  0  0  0  0  0
   -2.3272   -3.6028    0.0000 C   0  0  0  0  0  0  0  0  0  0  0  0
    5.1946    5.2478    0.0000 O   0  0  0  0  0  0  0  0  0  0  0  0
    4.1555    5.8480    0.0000 C   0  0  0  0  0  0  0  0  0  0  0  0
    3.8890   -3.0026    0.0000 C   0  0  0  0  0  0  0  0  0  0  0  0
    5.1872   -3.7556    0.0000 C   0  0  0  0  0  0  0  0  0  0  0  0
    2.8487   -3.6008    0.0000 O   0  0  0  0  0  0  0  0  0  0  0  0
    5.1850   -5.2565    0.0000 C   0  0  0  0  0  0  0  0  0  0  0  0
    6.4832   -6.0096    0.0000 C   0  0  0  0  0  0  0  0  0  0  0  0
    6.4833   -7.5096    0.0000 C   0  0  0  0  0  0  0  0  0  0  0  0
    7.7823   -8.2596    0.0000 C   0  0  0  0  0  0  0  0  0  0  0  0
    9.0814   -7.5096    0.0000 C   0  0  0  0  0  0  0  0  0  0  0  0
    9.0814   -6.0096    0.0000 C   0  0  0  0  0  0  0  0  0  0  0  0
    7.7824   -5.2596    0.0000 C   0  0  0  0  0  0  0  0  0  0  0  0
   10.3827   -8.2574    0.0000 O   0  0  0  0  0  0  0  0  0  0  0  0
   11.4210   -7.6560    0.0000 C   0  0  0  0  0  0  0  0  0  0  0  0
   10.3796   -5.2566    0.0000 O   0  0  0  0  0  0  0  0  0  0  0  0
   10.3780   -4.0566    0.0000 C   0  0  0  0  0  0  0  0  0  0  0  0
    7.7792   -9.7604    0.0000 O   0  0  0  0  0  0  0  0  0  0  0  0
    6.7391  -10.3589    0.0000 C   0  0  0  0  0  0  0  0  0  0  0  0
  1  2  2  0
  2  3  1  0
  3  6  2  0
  5  4  2  0
  4  1  1  0
  5  6  1  0
  5 10  1  0
  6  7  1  0
  7  8  1  0
  8  9  1  0
  9 10  1  0
  3 11  1  0
  1 12  1  0
 13 14  2  0
 14 15  1  0
 15 16  2  0
 16 17  1  0
 17 18  2  0
 18 13  1  0
  9 13  1  0
 17 19  1  0
 16 20  1  0
  8 21  1  0
 12 22  1  0
 20 23  1  0
 19 24  1  0
  7 25  2  0
 11 26  1  0
 27 28  1  0
 15 27  1  0
 21 29  1  0
 29 30  1  0
 29 31  2  0
 30 32  2  3
 32 33  1  0
 33 34  2  0
 34 35  1  0
 35 36  2  0
 36 37  1  0
 37 38  2  0
 38 33  1  0
 39 40  1  0
 36 39  1  0
 41 42  1  0
 37 41  1  0
 43 44  1  0
 35 43  1  0
M  END
>  <Classification>  (346) 
1

>  <pchembl>  (346) 
7.8

>  <InChI_steorem>  (346) 
InChI=1S/C32H34O12/c1-35-19-15-20(36-2)27-21(16-19)43-29(18-13-24(39-5)31(42-8)25(14-18)40-6)32(28(27)34)44-26(33)10-9-17-11-22(37-3)30(41-7)23(12-17)38-4/h9-16,29,32H,1-8H3

>  <source>  (346) 
ChEMBL25

>  <source_id>  (346) 
25

>  <optional_reference>  (346) 
10.1021/acs.jmedchem.5b00085

>  <optional_origin>  (346) 
None

>  <target>  (346) 
MDR1

$$$$

     RDKit          2D

 44 47  0  0  0  0  0  0  0  0999 V2000
   -2.6111    0.7486    0.0000 C   0  0  0  0  0  0  0  0  0  0  0  0
   -2.6111   -0.7486    0.0000 C   0  0  0  0  0  0  0  0  0  0  0  0
   -1.2964   -1.4973    0.0000 C   0  0  0  0  0  0  0  0  0  0  0  0
   -1.2964    1.4973    0.0000 C   0  0  0  0  0  0  0  0  0  0  0  0
    0.0000    0.7486    0.0000 C   0  0  0  0  0  0  0  0  0  0  0  0
    0.0000   -0.7486    0.0000 C   0  0  0  0  0  0  0  0  0  0  0  0
    1.2964   -1.4973    0.0000 C   0  0  0  0  0  0  0  0  0  0  0  0
    2.5929   -0.7486    0.0000 C   0  0  0  0  0  0  0  0  0  0  0  0
    2.5929    0.7486    0.0000 C   0  0  0  0  0  0  0  0  0  0  0  0
    1.2964    1.4973    0.0000 O   0  0  0  0  0  0  0  0  0  0  0  0
   -1.2907   -2.9981    0.0000 O   0  0  0  0  0  0  0  0  0  0  0  0
   -3.9091    1.5019    0.0000 O   0  0  0  0  0  0  0  0  0  0  0  0
    3.8926    1.4990    0.0000 C   0  0  0  0  0  0  0  0  0  0  0  0
    3.8951    2.9990    0.0000 C   0  0  0  0  0  0  0  0  0  0  0  0
    5.1953    3.7469    0.0000 C   0  0  0  0  0  0  0  0  0  0  0  0
    6.4931    2.9949    0.0000 C   0  0  0  0  0  0  0  0  0  0  0  0
    6.4907    1.4949    0.0000 C   0  0  0  0  0  0  0  0  0  0  0  0
    5.1905    0.7469    0.0000 C   0  0  0  0  0  0  0  0  0  0  0  0
    7.7878    0.7397    0.0000 O   0  0  0  0  0  0  0  0  0  0  0  0
    7.7956    3.7405    0.0000 O   0  0  0  0  0  0  0  0  0  0  0  0
    5.1946    5.2478    0.0000 O   0  0  0  0  0  0  0  0  0  0  0  0
    3.8911   -1.5017    0.0000 O   0  0  0  0  0  0  0  0  0  0  0  0
   -3.9072    2.7019    0.0000 C   0  0  0  0  0  0  0  0  0  0  0  0
   -2.3272   -3.6028    0.0000 C   0  0  0  0  0  0  0  0  0  0  0  0
    4.1555    5.8480    0.0000 C   0  0  0  0  0  0  0  0  0  0  0  0
    8.8331    3.1374    0.0000 C   0  0  0  0  0  0  0  0  0  0  0  0
    7.7841   -0.4603    0.0000 C   0  0  0  0  0  0  0  0  0  0  0  0
    3.8890   -3.0026    0.0000 C   0  0  0  0  0  0  0  0  0  0  0  0
    2.8487   -3.6008    0.0000 O   0  0  0  0  0  0  0  0  0  0  0  0
    5.1872   -3.7556    0.0000 C   0  0  0  0  0  0  0  0  0  0  0  0
    5.1872   -5.2557    0.0000 C   0  0  0  0  0  0  0  0  0  0  0  0
    6.4863   -6.0057    0.0000 C   0  0  0  0  0  0  0  0  0  0  0  0
    7.7853   -5.2557    0.0000 C   0  0  0  0  0  0  0  0  0  0  0  0
    7.7853   -3.7557    0.0000 C   0  0  0  0  0  0  0  0  0  0  0  0
    6.4863   -3.0057    0.0000 C   0  0  0  0  0  0  0  0  0  0  0  0
    6.4831   -7.5065    0.0000 O   0  0  0  0  0  0  0  0  0  0  0  0
    5.1823   -8.2551    0.0000 C   0  0  0  0  0  0  0  0  0  0  0  0
    5.1798   -9.4551    0.0000 C   0  0  0  0  0  0  0  0  0  0  0  0
    9.0866   -6.0035    0.0000 O   0  0  0  0  0  0  0  0  0  0  0  0
   10.3853   -5.2513    0.0000 C   0  0  0  0  0  0  0  0  0  0  0  0
   11.4257   -5.8491    0.0000 C   0  0  0  0  0  0  0  0  0  0  0  0
    9.0836   -3.0027    0.0000 O   0  0  0  0  0  0  0  0  0  0  0  0
    9.0815   -1.5018    0.0000 C   0  0  0  0  0  0  0  0  0  0  0  0
   10.1195   -0.8997    0.0000 C   0  0  0  0  0  0  0  0  0  0  0  0
  1  2  2  0
  2  3  1  0
  3  6  2  0
  5  4  2  0
  4  1  1  0
  5  6  1  0
  5 10  1  0
  6  7  1  0
  7  8  1  0
  8  9  1  0
  9 10  1  0
  3 11  1  0
  1 12  1  0
 13 14  2  0
 14 15  1  0
 15 16  2  0
 16 17  1  0
 17 18  2  0
 18 13  1  0
  9 13  1  0
 17 19  1  0
 16 20  1  0
 15 21  1  0
  8 22  1  0
 12 23  1  0
 11 24  1  0
 21 25  1  0
 20 26  1  0
 19 27  1  0
 22 28  1  0
 28 29  2  0
 28 30  1  0
 30 31  2  0
 31 32  1  0
 32 33  2  0
 33 34  1  0
 34 35  2  0
 35 30  1  0
 36 37  1  0
 37 38  1  0
 32 36  1  0
 39 40  1  0
 40 41  1  0
 33 39  1  0
 42 43  1  0
 43 44  1  0
 34 42  1  0
M  END
>  <Classification>  (347) 
1

>  <pchembl>  (347) 
6.95

>  <InChI_steorem>  (347) 
InChI=1S/C33H40O11/c1-9-40-27-14-20(15-28(41-10-2)32(27)42-11-3)33(34)44-29-18-22-23(36-5)16-21(35-4)17-24(22)43-30(29)19-12-25(37-6)31(39-8)26(13-19)38-7/h12-17,29-30H,9-11,18H2,1-8H3

>  <source>  (347) 
ChEMBL25

>  <source_id>  (347) 
25

>  <optional_reference>  (347) 
10.1021/acs.jmedchem.5b00085

>  <optional_origin>  (347) 
None

>  <target>  (347) 
MDR1

$$$$

     RDKit          2D

 47 50  0  0  0  0  0  0  0  0999 V2000
   -2.6111    0.7486    0.0000 C   0  0  0  0  0  0  0  0  0  0  0  0
   -2.6111   -0.7486    0.0000 C   0  0  0  0  0  0  0  0  0  0  0  0
   -1.2964   -1.4973    0.0000 C   0  0  0  0  0  0  0  0  0  0  0  0
   -1.2964    1.4973    0.0000 C   0  0  0  0  0  0  0  0  0  0  0  0
    0.0000    0.7486    0.0000 C   0  0  0  0  0  0  0  0  0  0  0  0
    0.0000   -0.7486    0.0000 C   0  0  0  0  0  0  0  0  0  0  0  0
    1.2964   -1.4973    0.0000 C   0  0  0  0  0  0  0  0  0  0  0  0
    2.5929   -0.7486    0.0000 C   0  0  0  0  0  0  0  0  0  0  0  0
    2.5929    0.7486    0.0000 C   0  0  0  0  0  0  0  0  0  0  0  0
    1.2964    1.4973    0.0000 O   0  0  0  0  0  0  0  0  0  0  0  0
   -1.2907   -2.9981    0.0000 O   0  0  0  0  0  0  0  0  0  0  0  0
   -3.9091    1.5019    0.0000 O   0  0  0  0  0  0  0  0  0  0  0  0
    3.8926    1.4990    0.0000 C   0  0  0  0  0  0  0  0  0  0  0  0
    3.8951    2.9990    0.0000 C   0  0  0  0  0  0  0  0  0  0  0  0
    5.1953    3.7469    0.0000 C   0  0  0  0  0  0  0  0  0  0  0  0
    6.4931    2.9949    0.0000 C   0  0  0  0  0  0  0  0  0  0  0  0
    6.4907    1.4949    0.0000 C   0  0  0  0  0  0  0  0  0  0  0  0
    5.1905    0.7469    0.0000 C   0  0  0  0  0  0  0  0  0  0  0  0
    7.7878    0.7397    0.0000 O   0  0  0  0  0  0  0  0  0  0  0  0
    7.7956    3.7405    0.0000 O   0  0  0  0  0  0  0  0  0  0  0  0
    5.1946    5.2478    0.0000 O   0  0  0  0  0  0  0  0  0  0  0  0
    3.8911   -1.5017    0.0000 O   0  0  0  0  0  0  0  0  0  0  0  0
   -3.9072    2.7019    0.0000 C   0  0  0  0  0  0  0  0  0  0  0  0
   -2.3272   -3.6028    0.0000 C   0  0  0  0  0  0  0  0  0  0  0  0
    4.1555    5.8480    0.0000 C   0  0  0  0  0  0  0  0  0  0  0  0
    8.8331    3.1374    0.0000 C   0  0  0  0  0  0  0  0  0  0  0  0
    7.7841   -0.4603    0.0000 C   0  0  0  0  0  0  0  0  0  0  0  0
    3.8890   -3.0026    0.0000 C   0  0  0  0  0  0  0  0  0  0  0  0
    2.8487   -3.6008    0.0000 O   0  0  0  0  0  0  0  0  0  0  0  0
    5.1872   -3.7556    0.0000 C   0  0  0  0  0  0  0  0  0  0  0  0
    5.1872   -5.2557    0.0000 C   0  0  0  0  0  0  0  0  0  0  0  0
    6.4863   -6.0057    0.0000 C   0  0  0  0  0  0  0  0  0  0  0  0
    7.7853   -5.2557    0.0000 C   0  0  0  0  0  0  0  0  0  0  0  0
    7.7853   -3.7557    0.0000 C   0  0  0  0  0  0  0  0  0  0  0  0
    6.4863   -3.0057    0.0000 C   0  0  0  0  0  0  0  0  0  0  0  0
    6.4831   -7.5065    0.0000 O   0  0  0  0  0  0  0  0  0  0  0  0
    5.1823   -8.2551    0.0000 C   0  0  0  0  0  0  0  0  0  0  0  0
    5.1792   -9.7559    0.0000 C   0  0  0  0  0  0  0  0  0  0  0  0
    9.0866   -6.0035    0.0000 O   0  0  0  0  0  0  0  0  0  0  0  0
   10.3853   -5.2513    0.0000 C   0  0  0  0  0  0  0  0  0  0  0  0
   11.6866   -5.9990    0.0000 C   0  0  0  0  0  0  0  0  0  0  0  0
    9.0836   -3.0027    0.0000 O   0  0  0  0  0  0  0  0  0  0  0  0
    9.0815   -1.5018    0.0000 C   0  0  0  0  0  0  0  0  0  0  0  0
   10.3797   -0.7488    0.0000 C   0  0  0  0  0  0  0  0  0  0  0  0
    4.1391  -10.3544    0.0000 C   0  0  0  0  0  0  0  0  0  0  0  0
   12.7250   -5.3976    0.0000 C   0  0  0  0  0  0  0  0  0  0  0  0
   10.3780    0.4512    0.0000 C   0  0  0  0  0  0  0  0  0  0  0  0
  1  2  2  0
  2  3  1  0
  3  6  2  0
  5  4  2  0
  4  1  1  0
  5  6  1  0
  5 10  1  0
  6  7  1  0
  7  8  1  0
  8  9  1  0
  9 10  1  0
  3 11  1  0
  1 12  1  0
 13 14  2  0
 14 15  1  0
 15 16  2  0
 16 17  1  0
 17 18  2  0
 18 13  1  0
  9 13  1  0
 17 19  1  0
 16 20  1  0
 15 21  1  0
  8 22  1  0
 12 23  1  0
 11 24  1  0
 21 25  1  0
 20 26  1  0
 19 27  1  0
 22 28  1  0
 28 29  2  0
 28 30  1  0
 30 31  2  0
 31 32  1  0
 32 33  2  0
 33 34  1  0
 34 35  2  0
 35 30  1  0
 36 37  1  0
 37 38  1  0
 32 36  1  0
 39 40  1  0
 40 41  1  0
 33 39  1  0
 42 43  1  0
 43 44  1  0
 34 42  1  0
 38 45  2  0
 41 46  2  0
 44 47  2  0
M  END
>  <Classification>  (348) 
1

>  <pchembl>  (348) 
7.92

>  <InChI_steorem>  (348) 
InChI=1S/C36H40O11/c1-9-12-43-30-17-23(18-31(44-13-10-2)35(30)45-14-11-3)36(37)47-32-21-25-26(39-5)19-24(38-4)20-27(25)46-33(32)22-15-28(40-6)34(42-8)29(16-22)41-7/h9-11,15-20,32-33H,1-3,12-14,21H2,4-8H3

>  <source>  (348) 
ChEMBL25

>  <source_id>  (348) 
25

>  <optional_reference>  (348) 
10.1021/acs.jmedchem.5b00085

>  <optional_origin>  (348) 
None

>  <target>  (348) 
MDR1

$$$$

     RDKit          2D

 48 51  0  0  0  0  0  0  0  0999 V2000
   -2.6111    0.7486    0.0000 C   0  0  0  0  0  0  0  0  0  0  0  0
   -2.6111   -0.7486    0.0000 C   0  0  0  0  0  0  0  0  0  0  0  0
   -1.2964   -1.4973    0.0000 C   0  0  0  0  0  0  0  0  0  0  0  0
   -1.2964    1.4973    0.0000 C   0  0  0  0  0  0  0  0  0  0  0  0
    0.0000    0.7486    0.0000 C   0  0  0  0  0  0  0  0  0  0  0  0
    0.0000   -0.7486    0.0000 C   0  0  0  0  0  0  0  0  0  0  0  0
    1.2964   -1.4973    0.0000 C   0  0  0  0  0  0  0  0  0  0  0  0
    2.5929   -0.7486    0.0000 C   0  0  0  0  0  0  0  0  0  0  0  0
    2.5929    0.7486    0.0000 C   0  0  0  0  0  0  0  0  0  0  0  0
    1.2964    1.4973    0.0000 O   0  0  0  0  0  0  0  0  0  0  0  0
   -1.2907   -2.9981    0.0000 O   0  0  0  0  0  0  0  0  0  0  0  0
   -3.9091    1.5019    0.0000 O   0  0  0  0  0  0  0  0  0  0  0  0
    3.8926    1.4990    0.0000 C   0  0  0  0  0  0  0  0  0  0  0  0
    3.8951    2.9990    0.0000 C   0  0  0  0  0  0  0  0  0  0  0  0
    5.1953    3.7469    0.0000 C   0  0  0  0  0  0  0  0  0  0  0  0
    6.4931    2.9949    0.0000 C   0  0  0  0  0  0  0  0  0  0  0  0
    6.4907    1.4949    0.0000 C   0  0  0  0  0  0  0  0  0  0  0  0
    5.1905    0.7469    0.0000 C   0  0  0  0  0  0  0  0  0  0  0  0
    7.7878    0.7397    0.0000 O   0  0  0  0  0  0  0  0  0  0  0  0
    7.7956    3.7405    0.0000 O   0  0  0  0  0  0  0  0  0  0  0  0
    3.8911   -1.5017    0.0000 O   0  0  0  0  0  0  0  0  0  0  0  0
   -3.9072    2.7019    0.0000 C   0  0  0  0  0  0  0  0  0  0  0  0
    8.8331    3.1374    0.0000 C   0  0  0  0  0  0  0  0  0  0  0  0
    7.7841   -0.4603    0.0000 C   0  0  0  0  0  0  0  0  0  0  0  0
    1.2964   -2.6973    0.0000 O   0  0  0  0  0  0  0  0  0  0  0  0
   -2.3272   -3.6028    0.0000 C   0  0  0  0  0  0  0  0  0  0  0  0
    5.1946    5.2478    0.0000 O   0  0  0  0  0  0  0  0  0  0  0  0
    4.1555    5.8480    0.0000 C   0  0  0  0  0  0  0  0  0  0  0  0
    3.8890   -3.0026    0.0000 C   0  0  0  0  0  0  0  0  0  0  0  0
    5.1872   -3.7556    0.0000 C   0  0  0  0  0  0  0  0  0  0  0  0
    2.8487   -3.6008    0.0000 O   0  0  0  0  0  0  0  0  0  0  0  0
    5.1872   -5.2557    0.0000 C   0  0  0  0  0  0  0  0  0  0  0  0
    6.4863   -6.0057    0.0000 C   0  0  0  0  0  0  0  0  0  0  0  0
    7.7853   -5.2557    0.0000 C   0  0  0  0  0  0  0  0  0  0  0  0
    7.7853   -3.7557    0.0000 C   0  0  0  0  0  0  0  0  0  0  0  0
    6.4863   -3.0057    0.0000 C   0  0  0  0  0  0  0  0  0  0  0  0
    9.0866   -6.0035    0.0000 O   0  0  0  0  0  0  0  0  0  0  0  0
   10.3853   -5.2513    0.0000 C   0  0  0  0  0  0  0  0  0  0  0  0
    9.0836   -3.0027    0.0000 O   0  0  0  0  0  0  0  0  0  0  0  0
    9.0815   -1.5018    0.0000 C   0  0  0  0  0  0  0  0  0  0  0  0
    6.4831   -7.5065    0.0000 O   0  0  0  0  0  0  0  0  0  0  0  0
    5.1823   -8.2551    0.0000 C   0  0  0  0  0  0  0  0  0  0  0  0
    5.1792   -9.7559    0.0000 C   0  0  0  0  0  0  0  0  0  0  0  0
    4.1391  -10.3544    0.0000 C   0  0  0  0  0  0  0  0  0  0  0  0
   11.6866   -5.9990    0.0000 C   0  0  0  0  0  0  0  0  0  0  0  0
   12.7250   -5.3976    0.0000 C   0  0  0  0  0  0  0  0  0  0  0  0
   10.3797   -0.7488    0.0000 C   0  0  0  0  0  0  0  0  0  0  0  0
   10.3780    0.4512    0.0000 C   0  0  0  0  0  0  0  0  0  0  0  0
  1  2  2  0
  2  3  1  0
  3  6  2  0
  5  4  2  0
  4  1  1  0
  5  6  1  0
  5 10  1  0
  6  7  1  0
  7  8  1  0
  8  9  1  0
  9 10  1  0
  3 11  1  0
  1 12  1  0
 13 14  2  0
 14 15  1  0
 15 16  2  0
 16 17  1  0
 17 18  2  0
 18 13  1  0
  9 13  1  0
 17 19  1  0
 16 20  1  0
  8 21  1  0
 12 22  1  0
 20 23  1  0
 19 24  1  0
  7 25  2  0
 11 26  1  0
 27 28  1  0
 15 27  1  0
 21 29  1  0
 29 30  1  0
 29 31  2  0
 30 32  2  0
 32 33  1  0
 33 34  2  0
 34 35  1  0
 35 36  2  0
 36 30  1  0
 37 38  1  0
 34 37  1  0
 39 40  1  0
 35 39  1  0
 41 42  1  0
 33 41  1  0
 42 43  1  0
 43 44  2  0
 38 45  1  0
 45 46  2  0
 40 47  1  0
 47 48  2  0
M  END
>  <Classification>  (349) 
1

>  <pchembl>  (349) 
7.5

>  <InChI_steorem>  (349) 
InChI=1S/C36H38O12/c1-9-12-44-28-17-22(18-29(45-13-10-2)34(28)46-14-11-3)36(38)48-35-31(37)30-24(40-5)19-23(39-4)20-25(30)47-32(35)21-15-26(41-6)33(43-8)27(16-21)42-7/h9-11,15-20,32,35H,1-3,12-14H2,4-8H3

>  <source>  (349) 
ChEMBL25

>  <source_id>  (349) 
25

>  <optional_reference>  (349) 
10.1021/acs.jmedchem.5b00085

>  <optional_origin>  (349) 
None

>  <target>  (349) 
MDR1

$$$$

     RDKit          2D

 49 53  0  0  0  0  0  0  0  0999 V2000
   -2.6111    0.7486    0.0000 C   0  0  0  0  0  0  0  0  0  0  0  0
   -2.6111   -0.7486    0.0000 C   0  0  0  0  0  0  0  0  0  0  0  0
   -1.2964   -1.4973    0.0000 C   0  0  0  0  0  0  0  0  0  0  0  0
   -1.2964    1.4973    0.0000 C   0  0  0  0  0  0  0  0  0  0  0  0
    0.0000    0.7486    0.0000 C   0  0  0  0  0  0  0  0  0  0  0  0
    0.0000   -0.7486    0.0000 C   0  0  0  0  0  0  0  0  0  0  0  0
    1.2964   -1.4973    0.0000 C   0  0  0  0  0  0  0  0  0  0  0  0
    2.5929   -0.7486    0.0000 C   0  0  0  0  0  0  0  0  0  0  0  0
    2.5929    0.7486    0.0000 C   0  0  0  0  0  0  0  0  0  0  0  0
    1.2964    1.4973    0.0000 O   0  0  0  0  0  0  0  0  0  0  0  0
   -1.2907   -2.9981    0.0000 O   0  0  0  0  0  0  0  0  0  0  0  0
   -3.9091    1.5019    0.0000 O   0  0  0  0  0  0  0  0  0  0  0  0
    3.8926    1.4990    0.0000 C   0  0  0  0  0  0  0  0  0  0  0  0
    3.8951    2.9990    0.0000 C   0  0  0  0  0  0  0  0  0  0  0  0
    5.1953    3.7469    0.0000 C   0  0  0  0  0  0  0  0  0  0  0  0
    6.4931    2.9949    0.0000 C   0  0  0  0  0  0  0  0  0  0  0  0
    6.4907    1.4949    0.0000 C   0  0  0  0  0  0  0  0  0  0  0  0
    5.1905    0.7469    0.0000 C   0  0  0  0  0  0  0  0  0  0  0  0
    7.7878    0.7397    0.0000 O   0  0  0  0  0  0  0  0  0  0  0  0
    7.7956    3.7405    0.0000 O   0  0  0  0  0  0  0  0  0  0  0  0
    5.1946    5.2478    0.0000 O   0  0  0  0  0  0  0  0  0  0  0  0
    3.8911   -1.5017    0.0000 O   0  0  0  0  0  0  0  0  0  0  0  0
   -3.9072    2.7019    0.0000 C   0  0  0  0  0  0  0  0  0  0  0  0
   -2.3272   -3.6028    0.0000 C   0  0  0  0  0  0  0  0  0  0  0  0
    4.1555    5.8480    0.0000 C   0  0  0  0  0  0  0  0  0  0  0  0
    8.8331    3.1374    0.0000 C   0  0  0  0  0  0  0  0  0  0  0  0
    7.7841   -0.4603    0.0000 C   0  0  0  0  0  0  0  0  0  0  0  0
    3.8890   -3.0026    0.0000 C   0  0  0  0  0  0  0  0  0  0  0  0
    2.8487   -3.6008    0.0000 O   0  0  0  0  0  0  0  0  0  0  0  0
    5.1872   -3.7556    0.0000 C   0  0  0  0  0  0  0  0  0  0  0  0
    5.1872   -5.2557    0.0000 C   0  0  0  0  0  0  0  0  0  0  0  0
    6.4863   -6.0057    0.0000 C   0  0  0  0  0  0  0  0  0  0  0  0
    7.7853   -5.2557    0.0000 C   0  0  0  0  0  0  0  0  0  0  0  0
    7.7853   -3.7557    0.0000 C   0  0  0  0  0  0  0  0  0  0  0  0
    6.4863   -3.0057    0.0000 C   0  0  0  0  0  0  0  0  0  0  0  0
    8.8245   -5.8558    0.0000 F   0  0  0  0  0  0  0  0  0  0  0  0
    9.0836   -3.0027    0.0000 N   0  0  0  0  0  0  0  0  0  0  0  0
    9.0815   -1.5018    0.0000 C   0  0  0  0  0  0  0  0  0  0  0  0
   10.3797   -0.7488    0.0000 C   0  0  0  0  0  0  0  0  0  0  0  0
    8.0412   -0.9036    0.0000 O   0  0  0  0  0  0  0  0  0  0  0  0
   10.3798    0.7512    0.0000 C   0  0  0  0  0  0  0  0  0  0  0  0
   11.6788    1.5012    0.0000 C   0  0  0  0  0  0  0  0  0  0  0  0
   12.9779    0.7512    0.0000 C   0  0  0  0  0  0  0  0  0  0  0  0
   12.9779   -0.7488    0.0000 C   0  0  0  0  0  0  0  0  0  0  0  0
   11.6788   -1.4988    0.0000 C   0  0  0  0  0  0  0  0  0  0  0  0
   14.2792    1.4990    0.0000 O   0  0  0  0  0  0  0  0  0  0  0  0
   15.3175    0.8975    0.0000 C   0  0  0  0  0  0  0  0  0  0  0  0
   11.6757    3.0021    0.0000 O   0  0  0  0  0  0  0  0  0  0  0  0
   10.6356    3.6006    0.0000 C   0  0  0  0  0  0  0  0  0  0  0  0
  1  2  2  0
  2  3  1  0
  3  6  2  0
  5  4  2  0
  4  1  1  0
  5  6  1  0
  5 10  1  0
  6  7  1  0
  7  8  1  0
  8  9  1  0
  9 10  1  0
  3 11  1  0
  1 12  1  0
 13 14  2  0
 14 15  1  0
 15 16  2  0
 16 17  1  0
 17 18  2  0
 18 13  1  0
  9 13  1  0
 17 19  1  0
 16 20  1  0
 15 21  1  0
  8 22  1  0
 12 23  1  0
 11 24  1  0
 21 25  1  0
 20 26  1  0
 19 27  1  0
 22 28  1  0
 28 29  2  0
 28 30  1  0
 30 31  2  0
 31 32  1  0
 32 33  2  0
 33 34  1  0
 34 35  2  0
 35 30  1  0
 33 36  1  0
 34 37  1  0
 37 38  1  0
 38 39  1  0
 38 40  2  0
 39 41  2  0
 41 42  1  0
 42 43  2  0
 43 44  1  0
 44 45  2  0
 45 39  1  0
 46 47  1  0
 43 46  1  0
 48 49  1  0
 42 48  1  0
M  END
>  <Classification>  (350) 
1

>  <pchembl>  (350) 
8.34

>  <InChI_steorem>  (350) 
InChI=1S/C36H36FNO11/c1-41-22-16-27(43-3)23-18-32(33(48-28(23)17-22)21-14-30(45-5)34(47-7)31(15-21)46-6)49-36(40)20-8-10-24(37)25(12-20)38-35(39)19-9-11-26(42-2)29(13-19)44-4/h8-17,32-33H,18H2,1-7H3,(H,38,39)

>  <source>  (350) 
ChEMBL25

>  <source_id>  (350) 
25

>  <optional_reference>  (350) 
10.1021/acs.jmedchem.5b00085

>  <optional_origin>  (350) 
None

>  <target>  (350) 
MDR1

$$$$

     RDKit          2D

 50 54  0  0  0  0  0  0  0  0999 V2000
   -2.6111    0.7486    0.0000 C   0  0  0  0  0  0  0  0  0  0  0  0
   -2.6111   -0.7486    0.0000 C   0  0  0  0  0  0  0  0  0  0  0  0
   -1.2964   -1.4973    0.0000 C   0  0  0  0  0  0  0  0  0  0  0  0
   -1.2964    1.4973    0.0000 C   0  0  0  0  0  0  0  0  0  0  0  0
    0.0000    0.7486    0.0000 C   0  0  0  0  0  0  0  0  0  0  0  0
    0.0000   -0.7486    0.0000 C   0  0  0  0  0  0  0  0  0  0  0  0
    1.2964   -1.4973    0.0000 C   0  0  0  0  0  0  0  0  0  0  0  0
    2.5929   -0.7486    0.0000 C   0  0  0  0  0  0  0  0  0  0  0  0
    2.5929    0.7486    0.0000 C   0  0  0  0  0  0  0  0  0  0  0  0
    1.2964    1.4973    0.0000 O   0  0  0  0  0  0  0  0  0  0  0  0
   -1.2907   -2.9981    0.0000 O   0  0  0  0  0  0  0  0  0  0  0  0
   -3.9091    1.5019    0.0000 O   0  0  0  0  0  0  0  0  0  0  0  0
    3.8926    1.4990    0.0000 C   0  0  0  0  0  0  0  0  0  0  0  0
    3.8951    2.9990    0.0000 C   0  0  0  0  0  0  0  0  0  0  0  0
    5.1953    3.7469    0.0000 C   0  0  0  0  0  0  0  0  0  0  0  0
    6.4931    2.9949    0.0000 C   0  0  0  0  0  0  0  0  0  0  0  0
    6.4907    1.4949    0.0000 C   0  0  0  0  0  0  0  0  0  0  0  0
    5.1905    0.7469    0.0000 C   0  0  0  0  0  0  0  0  0  0  0  0
    7.7878    0.7397    0.0000 O   0  0  0  0  0  0  0  0  0  0  0  0
    7.7956    3.7405    0.0000 O   0  0  0  0  0  0  0  0  0  0  0  0
    3.8911   -1.5017    0.0000 O   0  0  0  0  0  0  0  0  0  0  0  0
   -3.9072    2.7019    0.0000 C   0  0  0  0  0  0  0  0  0  0  0  0
    8.8331    3.1374    0.0000 C   0  0  0  0  0  0  0  0  0  0  0  0
    7.7841   -0.4603    0.0000 C   0  0  0  0  0  0  0  0  0  0  0  0
    1.2964   -2.6973    0.0000 O   0  0  0  0  0  0  0  0  0  0  0  0
   -2.3272   -3.6028    0.0000 C   0  0  0  0  0  0  0  0  0  0  0  0
    5.1946    5.2478    0.0000 O   0  0  0  0  0  0  0  0  0  0  0  0
    4.1555    5.8480    0.0000 C   0  0  0  0  0  0  0  0  0  0  0  0
    3.8890   -3.0026    0.0000 C   0  0  0  0  0  0  0  0  0  0  0  0
    5.1872   -3.7556    0.0000 C   0  0  0  0  0  0  0  0  0  0  0  0
    2.8487   -3.6008    0.0000 O   0  0  0  0  0  0  0  0  0  0  0  0
    5.1872   -5.2557    0.0000 C   0  0  0  0  0  0  0  0  0  0  0  0
    6.4863   -6.0057    0.0000 C   0  0  0  0  0  0  0  0  0  0  0  0
    7.7853   -5.2557    0.0000 C   0  0  0  0  0  0  0  0  0  0  0  0
    7.7853   -3.7557    0.0000 C   0  0  0  0  0  0  0  0  0  0  0  0
    6.4863   -3.0057    0.0000 C   0  0  0  0  0  0  0  0  0  0  0  0
    8.8245   -5.8558    0.0000 F   0  0  0  0  0  0  0  0  0  0  0  0
    9.0836   -3.0027    0.0000 N   0  0  0  0  0  0  0  0  0  0  0  0
    9.0815   -1.5018    0.0000 C   0  0  0  0  0  0  0  0  0  0  0  0
   10.3797   -0.7488    0.0000 C   0  0  0  0  0  0  0  0  0  0  0  0
    8.0412   -0.9036    0.0000 O   0  0  0  0  0  0  0  0  0  0  0  0
   10.3798    0.7512    0.0000 C   0  0  0  0  0  0  0  0  0  0  0  0
   11.6788    1.5012    0.0000 C   0  0  0  0  0  0  0  0  0  0  0  0
   12.9779    0.7512    0.0000 C   0  0  0  0  0  0  0  0  0  0  0  0
   12.9779   -0.7488    0.0000 C   0  0  0  0  0  0  0  0  0  0  0  0
   11.6788   -1.4988    0.0000 C   0  0  0  0  0  0  0  0  0  0  0  0
   11.6757    3.0021    0.0000 O   0  0  0  0  0  0  0  0  0  0  0  0
   10.6356    3.6006    0.0000 C   0  0  0  0  0  0  0  0  0  0  0  0
   14.2792    1.4990    0.0000 O   0  0  0  0  0  0  0  0  0  0  0  0
   15.3175    0.8975    0.0000 C   0  0  0  0  0  0  0  0  0  0  0  0
  1  2  2  0
  2  3  1  0
  3  6  2  0
  5  4  2  0
  4  1  1  0
  5  6  1  0
  5 10  1  0
  6  7  1  0
  7  8  1  0
  8  9  1  0
  9 10  1  0
  3 11  1  0
  1 12  1  0
 13 14  2  0
 14 15  1  0
 15 16  2  0
 16 17  1  0
 17 18  2  0
 18 13  1  0
  9 13  1  0
 17 19  1  0
 16 20  1  0
  8 21  1  0
 12 22  1  0
 20 23  1  0
 19 24  1  0
  7 25  2  0
 11 26  1  0
 27 28  1  0
 15 27  1  0
 21 29  1  0
 29 30  1  0
 29 31  2  0
 30 32  2  0
 32 33  1  0
 33 34  2  0
 34 35  1  0
 35 36  2  0
 36 30  1  0
 34 37  1  0
 35 38  1  0
 38 39  1  0
 39 40  1  0
 39 41  2  0
 40 42  2  0
 42 43  1  0
 43 44  2  0
 44 45  1  0
 45 46  2  0
 46 40  1  0
 47 48  1  0
 43 47  1  0
 49 50  1  0
 44 49  1  0
M  END
>  <Classification>  (351) 
1

>  <pchembl>  (351) 
8.03

>  <InChI_steorem>  (351) 
InChI=1S/C36H34FNO12/c1-42-21-16-26(45-4)30-27(17-21)49-32(20-14-28(46-5)33(48-7)29(15-20)47-6)34(31(30)39)50-36(41)19-8-10-22(37)23(12-19)38-35(40)18-9-11-24(43-2)25(13-18)44-3/h8-17,32,34H,1-7H3,(H,38,40)

>  <source>  (351) 
ChEMBL25

>  <source_id>  (351) 
25

>  <optional_reference>  (351) 
10.1021/acs.jmedchem.5b00085

>  <optional_origin>  (351) 
None

>  <target>  (351) 
MDR1

$$$$

     RDKit          2D

 51 55  0  0  0  0  0  0  0  0999 V2000
   -2.6111    0.7486    0.0000 C   0  0  0  0  0  0  0  0  0  0  0  0
   -2.6111   -0.7486    0.0000 C   0  0  0  0  0  0  0  0  0  0  0  0
   -1.2964   -1.4973    0.0000 C   0  0  0  0  0  0  0  0  0  0  0  0
   -1.2964    1.4973    0.0000 C   0  0  0  0  0  0  0  0  0  0  0  0
    0.0000    0.7486    0.0000 C   0  0  0  0  0  0  0  0  0  0  0  0
    0.0000   -0.7486    0.0000 C   0  0  0  0  0  0  0  0  0  0  0  0
    1.2964   -1.4973    0.0000 C   0  0  0  0  0  0  0  0  0  0  0  0
    2.5929   -0.7486    0.0000 C   0  0  0  0  0  0  0  0  0  0  0  0
    2.5929    0.7486    0.0000 C   0  0  0  0  0  0  0  0  0  0  0  0
    1.2964    1.4973    0.0000 O   0  0  0  0  0  0  0  0  0  0  0  0
   -1.2907   -2.9981    0.0000 O   0  0  0  0  0  0  0  0  0  0  0  0
   -3.9091    1.5019    0.0000 O   0  0  0  0  0  0  0  0  0  0  0  0
    3.8926    1.4990    0.0000 C   0  0  0  0  0  0  0  0  0  0  0  0
    3.8951    2.9990    0.0000 C   0  0  0  0  0  0  0  0  0  0  0  0
    5.1953    3.7469    0.0000 C   0  0  0  0  0  0  0  0  0  0  0  0
    6.4931    2.9949    0.0000 C   0  0  0  0  0  0  0  0  0  0  0  0
    6.4907    1.4949    0.0000 C   0  0  0  0  0  0  0  0  0  0  0  0
    5.1905    0.7469    0.0000 C   0  0  0  0  0  0  0  0  0  0  0  0
    7.7878    0.7397    0.0000 O   0  0  0  0  0  0  0  0  0  0  0  0
    7.7956    3.7405    0.0000 O   0  0  0  0  0  0  0  0  0  0  0  0
    5.1946    5.2478    0.0000 O   0  0  0  0  0  0  0  0  0  0  0  0
    3.8911   -1.5017    0.0000 O   0  0  0  0  0  0  0  0  0  0  0  0
   -3.9072    2.7019    0.0000 C   0  0  0  0  0  0  0  0  0  0  0  0
   -2.3272   -3.6028    0.0000 C   0  0  0  0  0  0  0  0  0  0  0  0
    4.1555    5.8480    0.0000 C   0  0  0  0  0  0  0  0  0  0  0  0
    8.8331    3.1374    0.0000 C   0  0  0  0  0  0  0  0  0  0  0  0
    7.7841   -0.4603    0.0000 C   0  0  0  0  0  0  0  0  0  0  0  0
    3.8890   -3.0026    0.0000 C   0  0  0  0  0  0  0  0  0  0  0  0
    2.8487   -3.6008    0.0000 O   0  0  0  0  0  0  0  0  0  0  0  0
    5.1872   -3.7556    0.0000 C   0  0  0  0  0  0  0  0  0  0  0  0
    5.1872   -5.2557    0.0000 C   0  0  0  0  0  0  0  0  0  0  0  0
    6.4863   -6.0057    0.0000 C   0  0  0  0  0  0  0  0  0  0  0  0
    7.7853   -5.2557    0.0000 C   0  0  0  0  0  0  0  0  0  0  0  0
    7.7853   -3.7557    0.0000 C   0  0  0  0  0  0  0  0  0  0  0  0
    6.4863   -3.0057    0.0000 C   0  0  0  0  0  0  0  0  0  0  0  0
    8.8245   -5.8558    0.0000 F   0  0  0  0  0  0  0  0  0  0  0  0
    9.0836   -3.0027    0.0000 N   0  0  0  0  0  0  0  0  0  0  0  0
    9.0815   -1.5018    0.0000 C   0  0  0  0  0  0  0  0  0  0  0  0
   10.3797   -0.7488    0.0000 C   0  0  0  0  0  0  0  0  0  0  0  0
    8.0412   -0.9036    0.0000 O   0  0  0  0  0  0  0  0  0  0  0  0
   10.3798    0.7512    0.0000 C   0  0  0  0  0  0  0  0  0  0  0  0
   11.6788    1.5012    0.0000 C   0  0  0  0  0  0  0  0  0  0  0  0
   12.9779    0.7512    0.0000 C   0  0  0  0  0  0  0  0  0  0  0  0
   12.9779   -0.7488    0.0000 C   0  0  0  0  0  0  0  0  0  0  0  0
   11.6788   -1.4988    0.0000 C   0  0  0  0  0  0  0  0  0  0  0  0
   14.2792    1.4990    0.0000 O   0  0  0  0  0  0  0  0  0  0  0  0
   15.3175    0.8975    0.0000 C   0  0  0  0  0  0  0  0  0  0  0  0
   11.6757    3.0021    0.0000 O   0  0  0  0  0  0  0  0  0  0  0  0
   10.6356    3.6006    0.0000 C   0  0  0  0  0  0  0  0  0  0  0  0
   14.2761   -1.5018    0.0000 O   0  0  0  0  0  0  0  0  0  0  0  0
   14.2744   -2.7018    0.0000 C   0  0  0  0  0  0  0  0  0  0  0  0
  1  2  2  0
  2  3  1  0
  3  6  2  0
  5  4  2  0
  4  1  1  0
  5  6  1  0
  5 10  1  0
  6  7  1  0
  7  8  1  0
  8  9  1  0
  9 10  1  0
  3 11  1  0
  1 12  1  0
 13 14  2  0
 14 15  1  0
 15 16  2  0
 16 17  1  0
 17 18  2  0
 18 13  1  0
  9 13  1  0
 17 19  1  0
 16 20  1  0
 15 21  1  0
  8 22  1  0
 12 23  1  0
 11 24  1  0
 21 25  1  0
 20 26  1  0
 19 27  1  0
 22 28  1  0
 28 29  2  0
 28 30  1  0
 30 31  2  0
 31 32  1  0
 32 33  2  0
 33 34  1  0
 34 35  2  0
 35 30  1  0
 33 36  1  0
 34 37  1  0
 37 38  1  0
 38 39  1  0
 38 40  2  0
 39 41  2  0
 41 42  1  0
 42 43  2  0
 43 44  1  0
 44 45  2  0
 45 39  1  0
 46 47  1  0
 43 46  1  0
 48 49  1  0
 42 48  1  0
 50 51  1  0
 44 50  1  0
M  END
>  <Classification>  (352) 
1

>  <pchembl>  (352) 
8.57

>  <InChI_steorem>  (352) 
InChI=1S/C37H38FNO12/c1-42-22-16-26(43-2)23-18-32(33(50-27(23)17-22)20-12-28(44-3)34(48-7)29(13-20)45-4)51-37(41)19-9-10-24(38)25(11-19)39-36(40)21-14-30(46-5)35(49-8)31(15-21)47-6/h9-17,32-33H,18H2,1-8H3,(H,39,40)

>  <source>  (352) 
ChEMBL25

>  <source_id>  (352) 
25

>  <optional_reference>  (352) 
10.1021/acs.jmedchem.5b00085

>  <optional_origin>  (352) 
None

>  <target>  (352) 
MDR1

$$$$

     RDKit          2D

 51 55  0  0  0  0  0  0  0  0999 V2000
   -2.6111    0.7486    0.0000 C   0  0  0  0  0  0  0  0  0  0  0  0
   -2.6111   -0.7486    0.0000 C   0  0  0  0  0  0  0  0  0  0  0  0
   -1.2964   -1.4973    0.0000 C   0  0  0  0  0  0  0  0  0  0  0  0
   -1.2964    1.4973    0.0000 C   0  0  0  0  0  0  0  0  0  0  0  0
    0.0000    0.7486    0.0000 C   0  0  0  0  0  0  0  0  0  0  0  0
    0.0000   -0.7486    0.0000 C   0  0  0  0  0  0  0  0  0  0  0  0
    1.2964   -1.4973    0.0000 C   0  0  0  0  0  0  0  0  0  0  0  0
    2.5929   -0.7486    0.0000 C   0  0  0  0  0  0  0  0  0  0  0  0
    2.5929    0.7486    0.0000 C   0  0  0  0  0  0  0  0  0  0  0  0
    1.2964    1.4973    0.0000 O   0  0  0  0  0  0  0  0  0  0  0  0
   -1.2907   -2.9981    0.0000 O   0  0  0  0  0  0  0  0  0  0  0  0
   -3.9091    1.5019    0.0000 O   0  0  0  0  0  0  0  0  0  0  0  0
    3.8926    1.4990    0.0000 C   0  0  0  0  0  0  0  0  0  0  0  0
    3.8951    2.9990    0.0000 C   0  0  0  0  0  0  0  0  0  0  0  0
    5.1953    3.7469    0.0000 C   0  0  0  0  0  0  0  0  0  0  0  0
    6.4931    2.9949    0.0000 C   0  0  0  0  0  0  0  0  0  0  0  0
    6.4907    1.4949    0.0000 C   0  0  0  0  0  0  0  0  0  0  0  0
    5.1905    0.7469    0.0000 C   0  0  0  0  0  0  0  0  0  0  0  0
    7.7878    0.7397    0.0000 O   0  0  0  0  0  0  0  0  0  0  0  0
    7.7956    3.7405    0.0000 O   0  0  0  0  0  0  0  0  0  0  0  0
    5.1946    5.2478    0.0000 O   0  0  0  0  0  0  0  0  0  0  0  0
    3.8911   -1.5017    0.0000 O   0  0  0  0  0  0  0  0  0  0  0  0
   -3.9072    2.7019    0.0000 C   0  0  0  0  0  0  0  0  0  0  0  0
   -2.3272   -3.6028    0.0000 C   0  0  0  0  0  0  0  0  0  0  0  0
    4.1555    5.8480    0.0000 C   0  0  0  0  0  0  0  0  0  0  0  0
    8.8331    3.1374    0.0000 C   0  0  0  0  0  0  0  0  0  0  0  0
    7.7841   -0.4603    0.0000 C   0  0  0  0  0  0  0  0  0  0  0  0
    3.8890   -3.0026    0.0000 C   0  0  0  0  0  0  0  0  0  0  0  0
    2.8487   -3.6008    0.0000 O   0  0  0  0  0  0  0  0  0  0  0  0
    5.1872   -3.7556    0.0000 C   0  0  0  0  0  0  0  0  0  0  0  0
    5.1872   -5.2557    0.0000 C   0  0  0  0  0  0  0  0  0  0  0  0
    6.4863   -6.0057    0.0000 C   0  0  0  0  0  0  0  0  0  0  0  0
    7.7853   -5.2557    0.0000 C   0  0  0  0  0  0  0  0  0  0  0  0
    7.7853   -3.7557    0.0000 C   0  0  0  0  0  0  0  0  0  0  0  0
    6.4863   -3.0057    0.0000 C   0  0  0  0  0  0  0  0  0  0  0  0
    8.8245   -5.8558    0.0000 F   0  0  0  0  0  0  0  0  0  0  0  0
    9.0836   -3.0027    0.0000 N   0  0  0  0  0  0  0  0  0  0  0  0
    9.0815   -1.5018    0.0000 C   0  0  0  0  0  0  0  0  0  0  0  0
    8.0412   -0.9036    0.0000 O   0  0  0  0  0  0  0  0  0  0  0  0
   10.3797   -0.7488    0.0000 C   0  0  0  0  0  0  0  0  0  0  0  0
   10.3776    0.7520    0.0000 C   0  0  0  0  0  0  0  0  0  0  0  0
   11.6758    1.5051    0.0000 C   0  0  0  0  0  0  0  0  0  0  0  0
   11.6759    3.0051    0.0000 C   0  0  0  0  0  0  0  0  0  0  0  0
   12.9749    3.7551    0.0000 C   0  0  0  0  0  0  0  0  0  0  0  0
   14.2740    3.0051    0.0000 C   0  0  0  0  0  0  0  0  0  0  0  0
   14.2740    1.5051    0.0000 C   0  0  0  0  0  0  0  0  0  0  0  0
   12.9749    0.7551    0.0000 C   0  0  0  0  0  0  0  0  0  0  0  0
   15.5753    3.7529    0.0000 O   0  0  0  0  0  0  0  0  0  0  0  0
   16.6136    3.1514    0.0000 C   0  0  0  0  0  0  0  0  0  0  0  0
   12.9718    5.2560    0.0000 O   0  0  0  0  0  0  0  0  0  0  0  0
   11.9318    5.8545    0.0000 C   0  0  0  0  0  0  0  0  0  0  0  0
  1  2  2  0
  2  3  1  0
  3  6  2  0
  5  4  2  0
  4  1  1  0
  5  6  1  0
  5 10  1  0
  6  7  1  0
  7  8  1  0
  8  9  1  0
  9 10  1  0
  3 11  1  0
  1 12  1  0
 13 14  2  0
 14 15  1  0
 15 16  2  0
 16 17  1  0
 17 18  2  0
 18 13  1  0
  9 13  1  0
 17 19  1  0
 16 20  1  0
 15 21  1  0
  8 22  1  0
 12 23  1  0
 11 24  1  0
 21 25  1  0
 20 26  1  0
 19 27  1  0
 22 28  1  0
 28 29  2  0
 28 30  1  0
 30 31  2  0
 31 32  1  0
 32 33  2  0
 33 34  1  0
 34 35  2  0
 35 30  1  0
 33 36  1  0
 34 37  1  0
 37 38  1  0
 38 39  2  0
 38 40  1  0
 40 41  2  3
 41 42  1  0
 42 43  2  0
 43 44  1  0
 44 45  2  0
 45 46  1  0
 46 47  2  0
 47 42  1  0
 48 49  1  0
 45 48  1  0
 50 51  1  0
 44 50  1  0
M  END
>  <Classification>  (353) 
1

>  <pchembl>  (353) 
8.18

>  <InChI_steorem>  (353) 
InChI=1S/C38H38FNO11/c1-43-24-18-29(45-3)25-20-34(36(50-30(25)19-24)23-16-32(47-5)37(49-7)33(17-23)48-6)51-38(42)22-10-11-26(39)27(15-22)40-35(41)13-9-21-8-12-28(44-2)31(14-21)46-4/h8-19,34,36H,20H2,1-7H3,(H,40,41)

>  <source>  (353) 
ChEMBL25

>  <source_id>  (353) 
25

>  <optional_reference>  (353) 
10.1021/acs.jmedchem.5b00085

>  <optional_origin>  (353) 
None

>  <target>  (353) 
MDR1

$$$$

     RDKit          2D

 52 56  0  0  0  0  0  0  0  0999 V2000
   -2.6111    0.7486    0.0000 C   0  0  0  0  0  0  0  0  0  0  0  0
   -2.6111   -0.7486    0.0000 C   0  0  0  0  0  0  0  0  0  0  0  0
   -1.2964   -1.4973    0.0000 C   0  0  0  0  0  0  0  0  0  0  0  0
   -1.2964    1.4973    0.0000 C   0  0  0  0  0  0  0  0  0  0  0  0
    0.0000    0.7486    0.0000 C   0  0  0  0  0  0  0  0  0  0  0  0
    0.0000   -0.7486    0.0000 C   0  0  0  0  0  0  0  0  0  0  0  0
    1.2964   -1.4973    0.0000 C   0  0  0  0  0  0  0  0  0  0  0  0
    2.5929   -0.7486    0.0000 C   0  0  0  0  0  0  0  0  0  0  0  0
    2.5929    0.7486    0.0000 C   0  0  0  0  0  0  0  0  0  0  0  0
    1.2964    1.4973    0.0000 O   0  0  0  0  0  0  0  0  0  0  0  0
   -1.2907   -2.9981    0.0000 O   0  0  0  0  0  0  0  0  0  0  0  0
   -3.9091    1.5019    0.0000 O   0  0  0  0  0  0  0  0  0  0  0  0
    3.8926    1.4990    0.0000 C   0  0  0  0  0  0  0  0  0  0  0  0
    3.8951    2.9990    0.0000 C   0  0  0  0  0  0  0  0  0  0  0  0
    5.1953    3.7469    0.0000 C   0  0  0  0  0  0  0  0  0  0  0  0
    6.4931    2.9949    0.0000 C   0  0  0  0  0  0  0  0  0  0  0  0
    6.4907    1.4949    0.0000 C   0  0  0  0  0  0  0  0  0  0  0  0
    5.1905    0.7469    0.0000 C   0  0  0  0  0  0  0  0  0  0  0  0
    7.7878    0.7397    0.0000 O   0  0  0  0  0  0  0  0  0  0  0  0
    7.7956    3.7405    0.0000 O   0  0  0  0  0  0  0  0  0  0  0  0
    3.8911   -1.5017    0.0000 O   0  0  0  0  0  0  0  0  0  0  0  0
   -3.9072    2.7019    0.0000 C   0  0  0  0  0  0  0  0  0  0  0  0
    8.8331    3.1374    0.0000 C   0  0  0  0  0  0  0  0  0  0  0  0
    7.7841   -0.4603    0.0000 C   0  0  0  0  0  0  0  0  0  0  0  0
    1.2964   -2.6973    0.0000 O   0  0  0  0  0  0  0  0  0  0  0  0
   -2.3272   -3.6028    0.0000 C   0  0  0  0  0  0  0  0  0  0  0  0
    5.1946    5.2478    0.0000 O   0  0  0  0  0  0  0  0  0  0  0  0
    4.1555    5.8480    0.0000 C   0  0  0  0  0  0  0  0  0  0  0  0
    3.8890   -3.0026    0.0000 C   0  0  0  0  0  0  0  0  0  0  0  0
    5.1872   -3.7556    0.0000 C   0  0  0  0  0  0  0  0  0  0  0  0
    2.8487   -3.6008    0.0000 O   0  0  0  0  0  0  0  0  0  0  0  0
    5.1872   -5.2557    0.0000 C   0  0  0  0  0  0  0  0  0  0  0  0
    6.4863   -6.0057    0.0000 C   0  0  0  0  0  0  0  0  0  0  0  0
    7.7853   -5.2557    0.0000 C   0  0  0  0  0  0  0  0  0  0  0  0
    7.7853   -3.7557    0.0000 C   0  0  0  0  0  0  0  0  0  0  0  0
    6.4863   -3.0057    0.0000 C   0  0  0  0  0  0  0  0  0  0  0  0
    8.8245   -5.8558    0.0000 F   0  0  0  0  0  0  0  0  0  0  0  0
    9.0836   -3.0027    0.0000 N   0  0  0  0  0  0  0  0  0  0  0  0
    9.0815   -1.5018    0.0000 C   0  0  0  0  0  0  0  0  0  0  0  0
   10.3797   -0.7488    0.0000 C   0  0  0  0  0  0  0  0  0  0  0  0
    8.0412   -0.9036    0.0000 O   0  0  0  0  0  0  0  0  0  0  0  0
   10.3798    0.7512    0.0000 C   0  0  0  0  0  0  0  0  0  0  0  0
   11.6788    1.5012    0.0000 C   0  0  0  0  0  0  0  0  0  0  0  0
   12.9779    0.7512    0.0000 C   0  0  0  0  0  0  0  0  0  0  0  0
   12.9779   -0.7488    0.0000 C   0  0  0  0  0  0  0  0  0  0  0  0
   11.6788   -1.4988    0.0000 C   0  0  0  0  0  0  0  0  0  0  0  0
   11.6757    3.0021    0.0000 O   0  0  0  0  0  0  0  0  0  0  0  0
   10.6356    3.6006    0.0000 C   0  0  0  0  0  0  0  0  0  0  0  0
   14.2792    1.4990    0.0000 O   0  0  0  0  0  0  0  0  0  0  0  0
   15.3175    0.8975    0.0000 C   0  0  0  0  0  0  0  0  0  0  0  0
   14.2761   -1.5018    0.0000 O   0  0  0  0  0  0  0  0  0  0  0  0
   14.2744   -2.7018    0.0000 C   0  0  0  0  0  0  0  0  0  0  0  0
  1  2  2  0
  2  3  1  0
  3  6  2  0
  5  4  2  0
  4  1  1  0
  5  6  1  0
  5 10  1  0
  6  7  1  0
  7  8  1  0
  8  9  1  0
  9 10  1  0
  3 11  1  0
  1 12  1  0
 13 14  2  0
 14 15  1  0
 15 16  2  0
 16 17  1  0
 17 18  2  0
 18 13  1  0
  9 13  1  0
 17 19  1  0
 16 20  1  0
  8 21  1  0
 12 22  1  0
 20 23  1  0
 19 24  1  0
  7 25  2  0
 11 26  1  0
 27 28  1  0
 15 27  1  0
 21 29  1  0
 29 30  1  0
 29 31  2  0
 30 32  2  0
 32 33  1  0
 33 34  2  0
 34 35  1  0
 35 36  2  0
 36 30  1  0
 34 37  1  0
 35 38  1  0
 38 39  1  0
 39 40  1  0
 39 41  2  0
 40 42  2  0
 42 43  1  0
 43 44  2  0
 44 45  1  0
 45 46  2  0
 46 40  1  0
 47 48  1  0
 43 47  1  0
 49 50  1  0
 44 49  1  0
 51 52  1  0
 45 51  1  0
M  END
>  <Classification>  (354) 
1

>  <pchembl>  (354) 
7.44

>  <InChI_steorem>  (354) 
InChI=1S/C37H36FNO13/c1-43-21-16-24(44-2)30-25(17-21)51-32(19-12-26(45-3)33(49-7)27(13-19)46-4)35(31(30)40)52-37(42)18-9-10-22(38)23(11-18)39-36(41)20-14-28(47-5)34(50-8)29(15-20)48-6/h9-17,32,35H,1-8H3,(H,39,41)

>  <source>  (354) 
ChEMBL25

>  <source_id>  (354) 
25

>  <optional_reference>  (354) 
10.1021/acs.jmedchem.5b00085

>  <optional_origin>  (354) 
None

>  <target>  (354) 
MDR1

$$$$

     RDKit          2D

 52 56  0  0  0  0  0  0  0  0999 V2000
   -2.6111    0.7486    0.0000 C   0  0  0  0  0  0  0  0  0  0  0  0
   -2.6111   -0.7486    0.0000 C   0  0  0  0  0  0  0  0  0  0  0  0
   -1.2964   -1.4973    0.0000 C   0  0  0  0  0  0  0  0  0  0  0  0
   -1.2964    1.4973    0.0000 C   0  0  0  0  0  0  0  0  0  0  0  0
    0.0000    0.7486    0.0000 C   0  0  0  0  0  0  0  0  0  0  0  0
    0.0000   -0.7486    0.0000 C   0  0  0  0  0  0  0  0  0  0  0  0
    1.2964   -1.4973    0.0000 C   0  0  0  0  0  0  0  0  0  0  0  0
    2.5929   -0.7486    0.0000 C   0  0  0  0  0  0  0  0  0  0  0  0
    2.5929    0.7486    0.0000 C   0  0  0  0  0  0  0  0  0  0  0  0
    1.2964    1.4973    0.0000 O   0  0  0  0  0  0  0  0  0  0  0  0
   -1.2907   -2.9981    0.0000 O   0  0  0  0  0  0  0  0  0  0  0  0
   -3.9091    1.5019    0.0000 O   0  0  0  0  0  0  0  0  0  0  0  0
    3.8926    1.4990    0.0000 C   0  0  0  0  0  0  0  0  0  0  0  0
    3.8951    2.9990    0.0000 C   0  0  0  0  0  0  0  0  0  0  0  0
    5.1953    3.7469    0.0000 C   0  0  0  0  0  0  0  0  0  0  0  0
    6.4931    2.9949    0.0000 C   0  0  0  0  0  0  0  0  0  0  0  0
    6.4907    1.4949    0.0000 C   0  0  0  0  0  0  0  0  0  0  0  0
    5.1905    0.7469    0.0000 C   0  0  0  0  0  0  0  0  0  0  0  0
    7.7878    0.7397    0.0000 O   0  0  0  0  0  0  0  0  0  0  0  0
    7.7956    3.7405    0.0000 O   0  0  0  0  0  0  0  0  0  0  0  0
    3.8911   -1.5017    0.0000 O   0  0  0  0  0  0  0  0  0  0  0  0
   -3.9072    2.7019    0.0000 C   0  0  0  0  0  0  0  0  0  0  0  0
    8.8331    3.1374    0.0000 C   0  0  0  0  0  0  0  0  0  0  0  0
    7.7841   -0.4603    0.0000 C   0  0  0  0  0  0  0  0  0  0  0  0
    1.2964   -2.6973    0.0000 O   0  0  0  0  0  0  0  0  0  0  0  0
   -2.3272   -3.6028    0.0000 C   0  0  0  0  0  0  0  0  0  0  0  0
    5.1946    5.2478    0.0000 O   0  0  0  0  0  0  0  0  0  0  0  0
    4.1555    5.8480    0.0000 C   0  0  0  0  0  0  0  0  0  0  0  0
    3.8890   -3.0026    0.0000 C   0  0  0  0  0  0  0  0  0  0  0  0
    5.1872   -3.7556    0.0000 C   0  0  0  0  0  0  0  0  0  0  0  0
    2.8487   -3.6008    0.0000 O   0  0  0  0  0  0  0  0  0  0  0  0
    5.1872   -5.2557    0.0000 C   0  0  0  0  0  0  0  0  0  0  0  0
    6.4863   -6.0057    0.0000 C   0  0  0  0  0  0  0  0  0  0  0  0
    7.7853   -5.2557    0.0000 C   0  0  0  0  0  0  0  0  0  0  0  0
    7.7853   -3.7557    0.0000 C   0  0  0  0  0  0  0  0  0  0  0  0
    6.4863   -3.0057    0.0000 C   0  0  0  0  0  0  0  0  0  0  0  0
    8.8245   -5.8558    0.0000 F   0  0  0  0  0  0  0  0  0  0  0  0
    9.0836   -3.0027    0.0000 N   0  0  0  0  0  0  0  0  0  0  0  0
    9.0815   -1.5018    0.0000 C   0  0  0  0  0  0  0  0  0  0  0  0
    8.0412   -0.9036    0.0000 O   0  0  0  0  0  0  0  0  0  0  0  0
   10.3797   -0.7488    0.0000 C   0  0  0  0  0  0  0  0  0  0  0  0
   10.3776    0.7520    0.0000 C   0  0  0  0  0  0  0  0  0  0  0  0
   11.6758    1.5051    0.0000 C   0  0  0  0  0  0  0  0  0  0  0  0
   11.6759    3.0051    0.0000 C   0  0  0  0  0  0  0  0  0  0  0  0
   12.9749    3.7551    0.0000 C   0  0  0  0  0  0  0  0  0  0  0  0
   14.2740    3.0051    0.0000 C   0  0  0  0  0  0  0  0  0  0  0  0
   14.2740    1.5051    0.0000 C   0  0  0  0  0  0  0  0  0  0  0  0
   12.9749    0.7551    0.0000 C   0  0  0  0  0  0  0  0  0  0  0  0
   12.9718    5.2560    0.0000 O   0  0  0  0  0  0  0  0  0  0  0  0
   11.9318    5.8545    0.0000 C   0  0  0  0  0  0  0  0  0  0  0  0
   15.5753    3.7529    0.0000 O   0  0  0  0  0  0  0  0  0  0  0  0
   16.6136    3.1514    0.0000 C   0  0  0  0  0  0  0  0  0  0  0  0
  1  2  2  0
  2  3  1  0
  3  6  2  0
  5  4  2  0
  4  1  1  0
  5  6  1  0
  5 10  1  0
  6  7  1  0
  7  8  1  0
  8  9  1  0
  9 10  1  0
  3 11  1  0
  1 12  1  0
 13 14  2  0
 14 15  1  0
 15 16  2  0
 16 17  1  0
 17 18  2  0
 18 13  1  0
  9 13  1  0
 17 19  1  0
 16 20  1  0
  8 21  1  0
 12 22  1  0
 20 23  1  0
 19 24  1  0
  7 25  2  0
 11 26  1  0
 27 28  1  0
 15 27  1  0
 21 29  1  0
 29 30  1  0
 29 31  2  0
 30 32  2  0
 32 33  1  0
 33 34  2  0
 34 35  1  0
 35 36  2  0
 36 30  1  0
 34 37  1  0
 35 38  1  0
 38 39  1  0
 39 40  2  0
 39 41  1  0
 41 42  2  3
 42 43  1  0
 43 44  2  0
 44 45  1  0
 45 46  2  0
 46 47  1  0
 47 48  2  0
 48 43  1  0
 49 50  1  0
 45 49  1  0
 51 52  1  0
 46 51  1  0
M  END
>  <Classification>  (355) 
1

>  <pchembl>  (355) 
7.84

>  <InChI_steorem>  (355) 
InChI=1S/C38H36FNO12/c1-44-23-18-28(47-4)33-29(19-23)51-35(22-16-30(48-5)36(50-7)31(17-22)49-6)37(34(33)42)52-38(43)21-10-11-24(39)25(15-21)40-32(41)13-9-20-8-12-26(45-2)27(14-20)46-3/h8-19,35,37H,1-7H3,(H,40,41)

>  <source>  (355) 
ChEMBL25

>  <source_id>  (355) 
25

>  <optional_reference>  (355) 
10.1021/acs.jmedchem.5b00085

>  <optional_origin>  (355) 
None

>  <target>  (355) 
MDR1

$$$$

     RDKit          2D

 53 57  0  0  0  0  0  0  0  0999 V2000
   -2.6111    0.7486    0.0000 C   0  0  0  0  0  0  0  0  0  0  0  0
   -2.6111   -0.7486    0.0000 C   0  0  0  0  0  0  0  0  0  0  0  0
   -1.2964   -1.4973    0.0000 C   0  0  0  0  0  0  0  0  0  0  0  0
   -1.2964    1.4973    0.0000 C   0  0  0  0  0  0  0  0  0  0  0  0
    0.0000    0.7486    0.0000 C   0  0  0  0  0  0  0  0  0  0  0  0
    0.0000   -0.7486    0.0000 C   0  0  0  0  0  0  0  0  0  0  0  0
    1.2964   -1.4973    0.0000 C   0  0  0  0  0  0  0  0  0  0  0  0
    2.5929   -0.7486    0.0000 C   0  0  0  0  0  0  0  0  0  0  0  0
    2.5929    0.7486    0.0000 C   0  0  0  0  0  0  0  0  0  0  0  0
    1.2964    1.4973    0.0000 O   0  0  0  0  0  0  0  0  0  0  0  0
   -1.2907   -2.9981    0.0000 O   0  0  0  0  0  0  0  0  0  0  0  0
   -3.9091    1.5019    0.0000 O   0  0  0  0  0  0  0  0  0  0  0  0
    3.8926    1.4990    0.0000 C   0  0  0  0  0  0  0  0  0  0  0  0
    3.8951    2.9990    0.0000 C   0  0  0  0  0  0  0  0  0  0  0  0
    5.1953    3.7469    0.0000 C   0  0  0  0  0  0  0  0  0  0  0  0
    6.4931    2.9949    0.0000 C   0  0  0  0  0  0  0  0  0  0  0  0
    6.4907    1.4949    0.0000 C   0  0  0  0  0  0  0  0  0  0  0  0
    5.1905    0.7469    0.0000 C   0  0  0  0  0  0  0  0  0  0  0  0
    7.7878    0.7397    0.0000 O   0  0  0  0  0  0  0  0  0  0  0  0
    7.7956    3.7405    0.0000 O   0  0  0  0  0  0  0  0  0  0  0  0
    5.1946    5.2478    0.0000 O   0  0  0  0  0  0  0  0  0  0  0  0
    3.8911   -1.5017    0.0000 O   0  0  0  0  0  0  0  0  0  0  0  0
   -3.9072    2.7019    0.0000 C   0  0  0  0  0  0  0  0  0  0  0  0
   -2.3272   -3.6028    0.0000 C   0  0  0  0  0  0  0  0  0  0  0  0
    4.1555    5.8480    0.0000 C   0  0  0  0  0  0  0  0  0  0  0  0
    8.8331    3.1374    0.0000 C   0  0  0  0  0  0  0  0  0  0  0  0
    7.7841   -0.4603    0.0000 C   0  0  0  0  0  0  0  0  0  0  0  0
    3.8890   -3.0026    0.0000 C   0  0  0  0  0  0  0  0  0  0  0  0
    2.8487   -3.6008    0.0000 O   0  0  0  0  0  0  0  0  0  0  0  0
    5.1872   -3.7556    0.0000 C   0  0  0  0  0  0  0  0  0  0  0  0
    5.1872   -5.2557    0.0000 C   0  0  0  0  0  0  0  0  0  0  0  0
    6.4863   -6.0057    0.0000 C   0  0  0  0  0  0  0  0  0  0  0  0
    7.7853   -5.2557    0.0000 C   0  0  0  0  0  0  0  0  0  0  0  0
    7.7853   -3.7557    0.0000 C   0  0  0  0  0  0  0  0  0  0  0  0
    6.4863   -3.0057    0.0000 C   0  0  0  0  0  0  0  0  0  0  0  0
    8.8245   -5.8558    0.0000 F   0  0  0  0  0  0  0  0  0  0  0  0
    9.0836   -3.0027    0.0000 N   0  0  0  0  0  0  0  0  0  0  0  0
    9.0815   -1.5018    0.0000 C   0  0  0  0  0  0  0  0  0  0  0  0
    8.0412   -0.9036    0.0000 O   0  0  0  0  0  0  0  0  0  0  0  0
   10.3797   -0.7488    0.0000 C   0  0  0  0  0  0  0  0  0  0  0  0
   10.3776    0.7520    0.0000 C   0  0  0  0  0  0  0  0  0  0  0  0
   11.6758    1.5051    0.0000 C   0  0  0  0  0  0  0  0  0  0  0  0
   11.6759    3.0051    0.0000 C   0  0  0  0  0  0  0  0  0  0  0  0
   12.9749    3.7551    0.0000 C   0  0  0  0  0  0  0  0  0  0  0  0
   14.2740    3.0051    0.0000 C   0  0  0  0  0  0  0  0  0  0  0  0
   14.2740    1.5051    0.0000 C   0  0  0  0  0  0  0  0  0  0  0  0
   12.9749    0.7551    0.0000 C   0  0  0  0  0  0  0  0  0  0  0  0
   15.5753    3.7529    0.0000 O   0  0  0  0  0  0  0  0  0  0  0  0
   16.6136    3.1514    0.0000 C   0  0  0  0  0  0  0  0  0  0  0  0
   12.9718    5.2560    0.0000 O   0  0  0  0  0  0  0  0  0  0  0  0
   11.9318    5.8545    0.0000 C   0  0  0  0  0  0  0  0  0  0  0  0
   15.5722    0.7520    0.0000 O   0  0  0  0  0  0  0  0  0  0  0  0
   15.5705   -0.4480    0.0000 C   0  0  0  0  0  0  0  0  0  0  0  0
  1  2  2  0
  2  3  1  0
  3  6  2  0
  5  4  2  0
  4  1  1  0
  5  6  1  0
  5 10  1  0
  6  7  1  0
  7  8  1  0
  8  9  1  0
  9 10  1  0
  3 11  1  0
  1 12  1  0
 13 14  2  0
 14 15  1  0
 15 16  2  0
 16 17  1  0
 17 18  2  0
 18 13  1  0
  9 13  1  0
 17 19  1  0
 16 20  1  0
 15 21  1  0
  8 22  1  0
 12 23  1  0
 11 24  1  0
 21 25  1  0
 20 26  1  0
 19 27  1  0
 22 28  1  0
 28 29  2  0
 28 30  1  0
 30 31  2  0
 31 32  1  0
 32 33  2  0
 33 34  1  0
 34 35  2  0
 35 30  1  0
 33 36  1  0
 34 37  1  0
 37 38  1  0
 38 39  2  0
 38 40  1  0
 40 41  2  3
 41 42  1  0
 42 43  2  0
 43 44  1  0
 44 45  2  0
 45 46  1  0
 46 47  2  0
 47 42  1  0
 48 49  1  0
 45 48  1  0
 50 51  1  0
 44 50  1  0
 52 53  1  0
 46 52  1  0
M  END
>  <Classification>  (356) 
1

>  <pchembl>  (356) 
8.38

>  <InChI_steorem>  (356) 
InChI=1S/C39H40FNO12/c1-44-24-18-28(45-2)25-20-34(36(52-29(25)19-24)23-16-32(48-5)38(51-8)33(17-23)49-6)53-39(43)22-10-11-26(40)27(15-22)41-35(42)12-9-21-13-30(46-3)37(50-7)31(14-21)47-4/h9-19,34,36H,20H2,1-8H3,(H,41,42)

>  <source>  (356) 
ChEMBL25

>  <source_id>  (356) 
25

>  <optional_reference>  (356) 
10.1021/acs.jmedchem.5b00085

>  <optional_origin>  (356) 
None

>  <target>  (356) 
MDR1

$$$$

     RDKit          2D

 54 58  0  0  0  0  0  0  0  0999 V2000
   -2.6111    0.7486    0.0000 C   0  0  0  0  0  0  0  0  0  0  0  0
   -2.6111   -0.7486    0.0000 C   0  0  0  0  0  0  0  0  0  0  0  0
   -1.2964   -1.4973    0.0000 C   0  0  0  0  0  0  0  0  0  0  0  0
   -1.2964    1.4973    0.0000 C   0  0  0  0  0  0  0  0  0  0  0  0
    0.0000    0.7486    0.0000 C   0  0  0  0  0  0  0  0  0  0  0  0
    0.0000   -0.7486    0.0000 C   0  0  0  0  0  0  0  0  0  0  0  0
    1.2964   -1.4973    0.0000 C   0  0  0  0  0  0  0  0  0  0  0  0
    2.5929   -0.7486    0.0000 C   0  0  0  0  0  0  0  0  0  0  0  0
    2.5929    0.7486    0.0000 C   0  0  0  0  0  0  0  0  0  0  0  0
    1.2964    1.4973    0.0000 O   0  0  0  0  0  0  0  0  0  0  0  0
   -1.2907   -2.9981    0.0000 O   0  0  0  0  0  0  0  0  0  0  0  0
   -3.9091    1.5019    0.0000 O   0  0  0  0  0  0  0  0  0  0  0  0
    3.8926    1.4990    0.0000 C   0  0  0  0  0  0  0  0  0  0  0  0
    3.8951    2.9990    0.0000 C   0  0  0  0  0  0  0  0  0  0  0  0
    5.1953    3.7469    0.0000 C   0  0  0  0  0  0  0  0  0  0  0  0
    6.4931    2.9949    0.0000 C   0  0  0  0  0  0  0  0  0  0  0  0
    6.4907    1.4949    0.0000 C   0  0  0  0  0  0  0  0  0  0  0  0
    5.1905    0.7469    0.0000 C   0  0  0  0  0  0  0  0  0  0  0  0
    7.7878    0.7397    0.0000 O   0  0  0  0  0  0  0  0  0  0  0  0
    7.7956    3.7405    0.0000 O   0  0  0  0  0  0  0  0  0  0  0  0
    3.8911   -1.5017    0.0000 O   0  0  0  0  0  0  0  0  0  0  0  0
   -3.9072    2.7019    0.0000 C   0  0  0  0  0  0  0  0  0  0  0  0
    8.8331    3.1374    0.0000 C   0  0  0  0  0  0  0  0  0  0  0  0
    7.7841   -0.4603    0.0000 C   0  0  0  0  0  0  0  0  0  0  0  0
    1.2964   -2.6973    0.0000 O   0  0  0  0  0  0  0  0  0  0  0  0
   -2.3272   -3.6028    0.0000 C   0  0  0  0  0  0  0  0  0  0  0  0
    5.1946    5.2478    0.0000 O   0  0  0  0  0  0  0  0  0  0  0  0
    4.1555    5.8480    0.0000 C   0  0  0  0  0  0  0  0  0  0  0  0
    3.8890   -3.0026    0.0000 C   0  0  0  0  0  0  0  0  0  0  0  0
    5.1872   -3.7556    0.0000 C   0  0  0  0  0  0  0  0  0  0  0  0
    2.8487   -3.6008    0.0000 O   0  0  0  0  0  0  0  0  0  0  0  0
    5.1872   -5.2557    0.0000 C   0  0  0  0  0  0  0  0  0  0  0  0
    6.4863   -6.0057    0.0000 C   0  0  0  0  0  0  0  0  0  0  0  0
    7.7853   -5.2557    0.0000 C   0  0  0  0  0  0  0  0  0  0  0  0
    7.7853   -3.7557    0.0000 C   0  0  0  0  0  0  0  0  0  0  0  0
    6.4863   -3.0057    0.0000 C   0  0  0  0  0  0  0  0  0  0  0  0
    8.8245   -5.8558    0.0000 F   0  0  0  0  0  0  0  0  0  0  0  0
    9.0836   -3.0027    0.0000 N   0  0  0  0  0  0  0  0  0  0  0  0
    9.0815   -1.5018    0.0000 C   0  0  0  0  0  0  0  0  0  0  0  0
    8.0412   -0.9036    0.0000 O   0  0  0  0  0  0  0  0  0  0  0  0
   10.3797   -0.7488    0.0000 C   0  0  0  0  0  0  0  0  0  0  0  0
   10.3776    0.7520    0.0000 C   0  0  0  0  0  0  0  0  0  0  0  0
   11.6758    1.5051    0.0000 C   0  0  0  0  0  0  0  0  0  0  0  0
   11.6759    3.0051    0.0000 C   0  0  0  0  0  0  0  0  0  0  0  0
   12.9749    3.7551    0.0000 C   0  0  0  0  0  0  0  0  0  0  0  0
   14.2740    3.0051    0.0000 C   0  0  0  0  0  0  0  0  0  0  0  0
   14.2740    1.5051    0.0000 C   0  0  0  0  0  0  0  0  0  0  0  0
   12.9749    0.7551    0.0000 C   0  0  0  0  0  0  0  0  0  0  0  0
   12.9718    5.2560    0.0000 O   0  0  0  0  0  0  0  0  0  0  0  0
   11.9318    5.8545    0.0000 C   0  0  0  0  0  0  0  0  0  0  0  0
   15.5753    3.7529    0.0000 O   0  0  0  0  0  0  0  0  0  0  0  0
   16.6136    3.1514    0.0000 C   0  0  0  0  0  0  0  0  0  0  0  0
   15.5722    0.7520    0.0000 O   0  0  0  0  0  0  0  0  0  0  0  0
   15.5705   -0.4480    0.0000 C   0  0  0  0  0  0  0  0  0  0  0  0
  1  2  2  0
  2  3  1  0
  3  6  2  0
  5  4  2  0
  4  1  1  0
  5  6  1  0
  5 10  1  0
  6  7  1  0
  7  8  1  0
  8  9  1  0
  9 10  1  0
  3 11  1  0
  1 12  1  0
 13 14  2  0
 14 15  1  0
 15 16  2  0
 16 17  1  0
 17 18  2  0
 18 13  1  0
  9 13  1  0
 17 19  1  0
 16 20  1  0
  8 21  1  0
 12 22  1  0
 20 23  1  0
 19 24  1  0
  7 25  2  0
 11 26  1  0
 27 28  1  0
 15 27  1  0
 21 29  1  0
 29 30  1  0
 29 31  2  0
 30 32  2  0
 32 33  1  0
 33 34  2  0
 34 35  1  0
 35 36  2  0
 36 30  1  0
 34 37  1  0
 35 38  1  0
 38 39  1  0
 39 40  2  0
 39 41  1  0
 41 42  2  3
 42 43  1  0
 43 44  2  0
 44 45  1  0
 45 46  2  0
 46 47  1  0
 47 48  2  0
 48 43  1  0
 49 50  1  0
 45 49  1  0
 51 52  1  0
 46 51  1  0
 53 54  1  0
 47 53  1  0
M  END
>  <Classification>  (357) 
1

>  <pchembl>  (357) 
7.56

>  <InChI_steorem>  (357) 
InChI=1S/C39H38FNO13/c1-45-23-18-26(46-2)33-27(19-23)53-35(22-16-30(49-5)37(52-8)31(17-22)50-6)38(34(33)43)54-39(44)21-10-11-24(40)25(15-21)41-32(42)12-9-20-13-28(47-3)36(51-7)29(14-20)48-4/h9-19,35,38H,1-8H3,(H,41,42)

>  <source>  (357) 
ChEMBL25

>  <source_id>  (357) 
25

>  <optional_reference>  (357) 
10.1021/acs.jmedchem.5b00085

>  <optional_origin>  (357) 
None

>  <target>  (357) 
MDR1

$$$$

     RDKit          2D

 57 62  0  0  0  0  0  0  0  0999 V2000
   -2.6111    0.7486    0.0000 C   0  0  0  0  0  0  0  0  0  0  0  0
   -2.6111   -0.7486    0.0000 C   0  0  0  0  0  0  0  0  0  0  0  0
   -1.2964   -1.4973    0.0000 C   0  0  0  0  0  0  0  0  0  0  0  0
   -1.2964    1.4973    0.0000 C   0  0  0  0  0  0  0  0  0  0  0  0
    0.0000    0.7486    0.0000 C   0  0  0  0  0  0  0  0  0  0  0  0
    0.0000   -0.7486    0.0000 C   0  0  0  0  0  0  0  0  0  0  0  0
    1.2964   -1.4973    0.0000 C   0  0  0  0  0  0  0  0  0  0  0  0
    2.5929   -0.7486    0.0000 C   0  0  0  0  0  0  0  0  0  0  0  0
    2.5929    0.7486    0.0000 C   0  0  0  0  0  0  0  0  0  0  0  0
    1.2964    1.4973    0.0000 O   0  0  0  0  0  0  0  0  0  0  0  0
   -1.2907   -2.9981    0.0000 O   0  0  0  0  0  0  0  0  0  0  0  0
   -3.9091    1.5019    0.0000 O   0  0  0  0  0  0  0  0  0  0  0  0
    3.8926    1.4990    0.0000 C   0  0  0  0  0  0  0  0  0  0  0  0
    3.8951    2.9990    0.0000 C   0  0  0  0  0  0  0  0  0  0  0  0
    5.1953    3.7469    0.0000 C   0  0  0  0  0  0  0  0  0  0  0  0
    6.4931    2.9949    0.0000 C   0  0  0  0  0  0  0  0  0  0  0  0
    6.4907    1.4949    0.0000 C   0  0  0  0  0  0  0  0  0  0  0  0
    5.1905    0.7469    0.0000 C   0  0  0  0  0  0  0  0  0  0  0  0
    7.7878    0.7397    0.0000 O   0  0  0  0  0  0  0  0  0  0  0  0
    7.7956    3.7405    0.0000 O   0  0  0  0  0  0  0  0  0  0  0  0
    5.1946    5.2478    0.0000 O   0  0  0  0  0  0  0  0  0  0  0  0
    3.8911   -1.5017    0.0000 O   0  0  0  0  0  0  0  0  0  0  0  0
   -3.9072    2.7019    0.0000 C   0  0  0  0  0  0  0  0  0  0  0  0
   -2.3272   -3.6028    0.0000 C   0  0  0  0  0  0  0  0  0  0  0  0
    4.1555    5.8480    0.0000 C   0  0  0  0  0  0  0  0  0  0  0  0
    8.8331    3.1374    0.0000 C   0  0  0  0  0  0  0  0  0  0  0  0
    7.7841   -0.4603    0.0000 C   0  0  0  0  0  0  0  0  0  0  0  0
    3.8890   -3.0026    0.0000 C   0  0  0  0  0  0  0  0  0  0  0  0
    2.8487   -3.6008    0.0000 O   0  0  0  0  0  0  0  0  0  0  0  0
    5.1872   -3.7556    0.0000 C   0  0  0  0  0  0  0  0  0  0  0  0
    5.1872   -5.2557    0.0000 C   0  0  0  0  0  0  0  0  0  0  0  0
    6.4863   -6.0057    0.0000 C   0  0  0  0  0  0  0  0  0  0  0  0
    7.7853   -5.2557    0.0000 C   0  0  0  0  0  0  0  0  0  0  0  0
    7.7853   -3.7557    0.0000 C   0  0  0  0  0  0  0  0  0  0  0  0
    6.4863   -3.0057    0.0000 C   0  0  0  0  0  0  0  0  0  0  0  0
    8.8245   -5.8558    0.0000 F   0  0  0  0  0  0  0  0  0  0  0  0
    9.0836   -3.0027    0.0000 N   0  0  0  0  0  0  0  0  0  0  0  0
    9.0815   -1.5018    0.0000 C   0  0  0  0  0  0  0  0  0  0  0  0
   10.3797   -0.7488    0.0000 C   0  0  0  0  0  0  0  0  0  0  0  0
    8.0412   -0.9036    0.0000 O   0  0  0  0  0  0  0  0  0  0  0  0
   10.3798    0.7512    0.0000 C   0  0  0  0  0  0  0  0  0  0  0  0
   11.6788    1.5012    0.0000 C   0  0  0  0  0  0  0  0  0  0  0  0
   12.9779    0.7512    0.0000 C   0  0  0  0  0  0  0  0  0  0  0  0
   12.9779   -0.7488    0.0000 C   0  0  0  0  0  0  0  0  0  0  0  0
   11.6788   -1.4988    0.0000 C   0  0  0  0  0  0  0  0  0  0  0  0
   14.0171    1.3512    0.0000 F   0  0  0  0  0  0  0  0  0  0  0  0
   14.2761   -1.5018    0.0000 N   0  0  0  0  0  0  0  0  0  0  0  0
   14.2739   -3.0027    0.0000 C   0  0  0  0  0  0  0  0  0  0  0  0
   15.5721   -3.7558    0.0000 C   0  0  0  0  0  0  0  0  0  0  0  0
   13.2337   -3.6009    0.0000 O   0  0  0  0  0  0  0  0  0  0  0  0
   15.5722   -5.2558    0.0000 C   0  0  0  0  0  0  0  0  0  0  0  0
   16.8712   -6.0058    0.0000 C   0  0  0  0  0  0  0  0  0  0  0  0
   18.1703   -5.2558    0.0000 C   0  0  0  0  0  0  0  0  0  0  0  0
   18.1703   -3.7558    0.0000 C   0  0  0  0  0  0  0  0  0  0  0  0
   16.8713   -3.0058    0.0000 C   0  0  0  0  0  0  0  0  0  0  0  0
   19.4716   -6.0036    0.0000 O   0  0  0  0  0  0  0  0  0  0  0  0
   20.5100   -5.4021    0.0000 C   0  0  0  0  0  0  0  0  0  0  0  0
  1  2  2  0
  2  3  1  0
  3  6  2  0
  5  4  2  0
  4  1  1  0
  5  6  1  0
  5 10  1  0
  6  7  1  0
  7  8  1  0
  8  9  1  0
  9 10  1  0
  3 11  1  0
  1 12  1  0
 13 14  2  0
 14 15  1  0
 15 16  2  0
 16 17  1  0
 17 18  2  0
 18 13  1  0
  9 13  1  0
 17 19  1  0
 16 20  1  0
 15 21  1  0
  8 22  1  0
 12 23  1  0
 11 24  1  0
 21 25  1  0
 20 26  1  0
 19 27  1  0
 22 28  1  0
 28 29  2  0
 28 30  1  0
 30 31  2  0
 31 32  1  0
 32 33  2  0
 33 34  1  0
 34 35  2  0
 35 30  1  0
 33 36  1  0
 34 37  1  0
 37 38  1  0
 38 39  1  0
 38 40  2  0
 39 41  2  0
 41 42  1  0
 42 43  2  0
 43 44  1  0
 44 45  2  0
 45 39  1  0
 43 46  1  0
 44 47  1  0
 47 48  1  0
 48 49  1  0
 48 50  2  0
 49 51  2  0
 51 52  1  0
 52 53  2  0
 53 54  1  0
 54 55  2  0
 55 49  1  0
 56 57  1  0
 53 56  1  0
M  END
>  <Classification>  (358) 
1

>  <pchembl>  (358) 
7.8

>  <InChI_steorem>  (358) 
InChI=1S/C42H38F2N2O11/c1-50-26-11-7-22(8-12-26)40(47)45-31-15-23(9-13-29(31)43)41(48)46-32-16-24(10-14-30(32)44)42(49)57-37-21-28-33(52-3)19-27(51-2)20-34(28)56-38(37)25-17-35(53-4)39(55-6)36(18-25)54-5/h7-20,37-38H,21H2,1-6H3,(H,45,47)(H,46,48)

>  <source>  (358) 
ChEMBL25

>  <source_id>  (358) 
25

>  <optional_reference>  (358) 
10.1021/acs.jmedchem.5b00085

>  <optional_origin>  (358) 
None

>  <target>  (358) 
MDR1

$$$$

     RDKit          2D

 59 64  0  0  0  0  0  0  0  0999 V2000
   -2.6111    0.7486    0.0000 C   0  0  0  0  0  0  0  0  0  0  0  0
   -2.6111   -0.7486    0.0000 C   0  0  0  0  0  0  0  0  0  0  0  0
   -1.2964   -1.4973    0.0000 C   0  0  0  0  0  0  0  0  0  0  0  0
   -1.2964    1.4973    0.0000 C   0  0  0  0  0  0  0  0  0  0  0  0
    0.0000    0.7486    0.0000 C   0  0  0  0  0  0  0  0  0  0  0  0
    0.0000   -0.7486    0.0000 C   0  0  0  0  0  0  0  0  0  0  0  0
    1.2964   -1.4973    0.0000 C   0  0  0  0  0  0  0  0  0  0  0  0
    2.5929   -0.7486    0.0000 C   0  0  0  0  0  0  0  0  0  0  0  0
    2.5929    0.7486    0.0000 C   0  0  0  0  0  0  0  0  0  0  0  0
    1.2964    1.4973    0.0000 O   0  0  0  0  0  0  0  0  0  0  0  0
   -1.2907   -2.9981    0.0000 O   0  0  0  0  0  0  0  0  0  0  0  0
   -3.9091    1.5019    0.0000 O   0  0  0  0  0  0  0  0  0  0  0  0
    3.8926    1.4990    0.0000 C   0  0  0  0  0  0  0  0  0  0  0  0
    3.8951    2.9990    0.0000 C   0  0  0  0  0  0  0  0  0  0  0  0
    5.1953    3.7469    0.0000 C   0  0  0  0  0  0  0  0  0  0  0  0
    6.4931    2.9949    0.0000 C   0  0  0  0  0  0  0  0  0  0  0  0
    6.4907    1.4949    0.0000 C   0  0  0  0  0  0  0  0  0  0  0  0
    5.1905    0.7469    0.0000 C   0  0  0  0  0  0  0  0  0  0  0  0
    7.7878    0.7397    0.0000 O   0  0  0  0  0  0  0  0  0  0  0  0
    7.7956    3.7405    0.0000 O   0  0  0  0  0  0  0  0  0  0  0  0
    5.1946    5.2478    0.0000 O   0  0  0  0  0  0  0  0  0  0  0  0
    3.8911   -1.5017    0.0000 O   0  0  0  0  0  0  0  0  0  0  0  0
   -3.9072    2.7019    0.0000 C   0  0  0  0  0  0  0  0  0  0  0  0
   -2.3272   -3.6028    0.0000 C   0  0  0  0  0  0  0  0  0  0  0  0
    4.1555    5.8480    0.0000 C   0  0  0  0  0  0  0  0  0  0  0  0
    8.8331    3.1374    0.0000 C   0  0  0  0  0  0  0  0  0  0  0  0
    7.7841   -0.4603    0.0000 C   0  0  0  0  0  0  0  0  0  0  0  0
    3.8890   -3.0026    0.0000 C   0  0  0  0  0  0  0  0  0  0  0  0
    2.8487   -3.6008    0.0000 O   0  0  0  0  0  0  0  0  0  0  0  0
    5.1872   -3.7556    0.0000 C   0  0  0  0  0  0  0  0  0  0  0  0
    5.1872   -5.2557    0.0000 C   0  0  0  0  0  0  0  0  0  0  0  0
    6.4863   -6.0057    0.0000 C   0  0  0  0  0  0  0  0  0  0  0  0
    7.7853   -5.2557    0.0000 C   0  0  0  0  0  0  0  0  0  0  0  0
    7.7853   -3.7557    0.0000 C   0  0  0  0  0  0  0  0  0  0  0  0
    6.4863   -3.0057    0.0000 C   0  0  0  0  0  0  0  0  0  0  0  0
    8.8245   -5.8558    0.0000 F   0  0  0  0  0  0  0  0  0  0  0  0
    9.0836   -3.0027    0.0000 N   0  0  0  0  0  0  0  0  0  0  0  0
    9.0815   -1.5018    0.0000 C   0  0  0  0  0  0  0  0  0  0  0  0
   10.3797   -0.7488    0.0000 C   0  0  0  0  0  0  0  0  0  0  0  0
    8.0412   -0.9036    0.0000 O   0  0  0  0  0  0  0  0  0  0  0  0
   10.3798    0.7512    0.0000 C   0  0  0  0  0  0  0  0  0  0  0  0
   11.6788    1.5012    0.0000 C   0  0  0  0  0  0  0  0  0  0  0  0
   12.9779    0.7512    0.0000 C   0  0  0  0  0  0  0  0  0  0  0  0
   12.9779   -0.7488    0.0000 C   0  0  0  0  0  0  0  0  0  0  0  0
   11.6788   -1.4988    0.0000 C   0  0  0  0  0  0  0  0  0  0  0  0
   14.0171    1.3512    0.0000 F   0  0  0  0  0  0  0  0  0  0  0  0
   14.2761   -1.5018    0.0000 N   0  0  0  0  0  0  0  0  0  0  0  0
   14.2739   -3.0027    0.0000 C   0  0  0  0  0  0  0  0  0  0  0  0
   15.5721   -3.7558    0.0000 C   0  0  0  0  0  0  0  0  0  0  0  0
   13.2337   -3.6009    0.0000 O   0  0  0  0  0  0  0  0  0  0  0  0
   15.5722   -5.2558    0.0000 C   0  0  0  0  0  0  0  0  0  0  0  0
   16.8712   -6.0058    0.0000 C   0  0  0  0  0  0  0  0  0  0  0  0
   18.1703   -5.2558    0.0000 C   0  0  0  0  0  0  0  0  0  0  0  0
   18.1703   -3.7558    0.0000 C   0  0  0  0  0  0  0  0  0  0  0  0
   16.8713   -3.0058    0.0000 C   0  0  0  0  0  0  0  0  0  0  0  0
   19.4685   -6.0090    0.0000 O   0  0  0  0  0  0  0  0  0  0  0  0
   19.4667   -7.2090    0.0000 C   0  0  0  0  0  0  0  0  0  0  0  0
   19.4685   -3.0028    0.0000 O   0  0  0  0  0  0  0  0  0  0  0  0
   19.4669   -1.8028    0.0000 C   0  0  0  0  0  0  0  0  0  0  0  0
  1  2  2  0
  2  3  1  0
  3  6  2  0
  5  4  2  0
  4  1  1  0
  5  6  1  0
  5 10  1  0
  6  7  1  0
  7  8  1  0
  8  9  1  0
  9 10  1  0
  3 11  1  0
  1 12  1  0
 13 14  2  0
 14 15  1  0
 15 16  2  0
 16 17  1  0
 17 18  2  0
 18 13  1  0
  9 13  1  0
 17 19  1  0
 16 20  1  0
 15 21  1  0
  8 22  1  0
 12 23  1  0
 11 24  1  0
 21 25  1  0
 20 26  1  0
 19 27  1  0
 22 28  1  0
 28 29  2  0
 28 30  1  0
 30 31  2  0
 31 32  1  0
 32 33  2  0
 33 34  1  0
 34 35  2  0
 35 30  1  0
 33 36  1  0
 34 37  1  0
 37 38  1  0
 38 39  1  0
 38 40  2  0
 39 41  2  0
 41 42  1  0
 42 43  2  0
 43 44  1  0
 44 45  2  0
 45 39  1  0
 43 46  1  0
 44 47  1  0
 47 48  1  0
 48 49  1  0
 48 50  2  0
 49 51  2  0
 51 52  1  0
 52 53  2  0
 53 54  1  0
 54 55  2  0
 55 49  1  0
 56 57  1  0
 53 56  1  0
 58 59  1  0
 54 58  1  0
M  END
>  <Classification>  (359) 
1

>  <pchembl>  (359) 
7.87

>  <InChI_steorem>  (359) 
InChI=1S/C43H40F2N2O12/c1-51-26-19-33(53-3)27-21-38(39(58-34(27)20-26)25-17-36(55-5)40(57-7)37(18-25)56-6)59-43(50)24-9-12-29(45)31(15-24)47-41(48)22-8-11-28(44)30(14-22)46-42(49)23-10-13-32(52-2)35(16-23)54-4/h8-20,38-39H,21H2,1-7H3,(H,46,49)(H,47,48)

>  <source>  (359) 
ChEMBL25

>  <source_id>  (359) 
25

>  <optional_reference>  (359) 
10.1021/acs.jmedchem.5b00085

>  <optional_origin>  (359) 
None

>  <target>  (359) 
MDR1

$$$$

     RDKit          2D

 61 66  0  0  0  0  0  0  0  0999 V2000
   -2.6111    0.7486    0.0000 C   0  0  0  0  0  0  0  0  0  0  0  0
   -2.6111   -0.7486    0.0000 C   0  0  0  0  0  0  0  0  0  0  0  0
   -1.2964   -1.4973    0.0000 C   0  0  0  0  0  0  0  0  0  0  0  0
   -1.2964    1.4973    0.0000 C   0  0  0  0  0  0  0  0  0  0  0  0
    0.0000    0.7486    0.0000 C   0  0  0  0  0  0  0  0  0  0  0  0
    0.0000   -0.7486    0.0000 C   0  0  0  0  0  0  0  0  0  0  0  0
    1.2964   -1.4973    0.0000 C   0  0  0  0  0  0  0  0  0  0  0  0
    2.5929   -0.7486    0.0000 C   0  0  0  0  0  0  0  0  0  0  0  0
    2.5929    0.7486    0.0000 C   0  0  0  0  0  0  0  0  0  0  0  0
    1.2964    1.4973    0.0000 O   0  0  0  0  0  0  0  0  0  0  0  0
   -1.2907   -2.9981    0.0000 O   0  0  0  0  0  0  0  0  0  0  0  0
   -3.9091    1.5019    0.0000 O   0  0  0  0  0  0  0  0  0  0  0  0
    3.8926    1.4990    0.0000 C   0  0  0  0  0  0  0  0  0  0  0  0
    3.8951    2.9990    0.0000 C   0  0  0  0  0  0  0  0  0  0  0  0
    5.1953    3.7469    0.0000 C   0  0  0  0  0  0  0  0  0  0  0  0
    6.4931    2.9949    0.0000 C   0  0  0  0  0  0  0  0  0  0  0  0
    6.4907    1.4949    0.0000 C   0  0  0  0  0  0  0  0  0  0  0  0
    5.1905    0.7469    0.0000 C   0  0  0  0  0  0  0  0  0  0  0  0
    7.7878    0.7397    0.0000 O   0  0  0  0  0  0  0  0  0  0  0  0
    7.7956    3.7405    0.0000 O   0  0  0  0  0  0  0  0  0  0  0  0
    5.1946    5.2478    0.0000 O   0  0  0  0  0  0  0  0  0  0  0  0
    3.8911   -1.5017    0.0000 O   0  0  0  0  0  0  0  0  0  0  0  0
   -3.9072    2.7019    0.0000 C   0  0  0  0  0  0  0  0  0  0  0  0
   -2.3272   -3.6028    0.0000 C   0  0  0  0  0  0  0  0  0  0  0  0
    4.1555    5.8480    0.0000 C   0  0  0  0  0  0  0  0  0  0  0  0
    8.8331    3.1374    0.0000 C   0  0  0  0  0  0  0  0  0  0  0  0
    7.7841   -0.4603    0.0000 C   0  0  0  0  0  0  0  0  0  0  0  0
    3.8890   -3.0026    0.0000 C   0  0  0  0  0  0  0  0  0  0  0  0
    2.8487   -3.6008    0.0000 O   0  0  0  0  0  0  0  0  0  0  0  0
    5.1872   -3.7556    0.0000 C   0  0  0  0  0  0  0  0  0  0  0  0
    5.1872   -5.2557    0.0000 C   0  0  0  0  0  0  0  0  0  0  0  0
    6.4863   -6.0057    0.0000 C   0  0  0  0  0  0  0  0  0  0  0  0
    7.7853   -5.2557    0.0000 C   0  0  0  0  0  0  0  0  0  0  0  0
    7.7853   -3.7557    0.0000 C   0  0  0  0  0  0  0  0  0  0  0  0
    6.4863   -3.0057    0.0000 C   0  0  0  0  0  0  0  0  0  0  0  0
    8.8245   -5.8558    0.0000 F   0  0  0  0  0  0  0  0  0  0  0  0
    9.0836   -3.0027    0.0000 N   0  0  0  0  0  0  0  0  0  0  0  0
    9.0815   -1.5018    0.0000 C   0  0  0  0  0  0  0  0  0  0  0  0
   10.3797   -0.7488    0.0000 C   0  0  0  0  0  0  0  0  0  0  0  0
    8.0412   -0.9036    0.0000 O   0  0  0  0  0  0  0  0  0  0  0  0
   10.3798    0.7512    0.0000 C   0  0  0  0  0  0  0  0  0  0  0  0
   11.6788    1.5012    0.0000 C   0  0  0  0  0  0  0  0  0  0  0  0
   12.9779    0.7512    0.0000 C   0  0  0  0  0  0  0  0  0  0  0  0
   12.9779   -0.7488    0.0000 C   0  0  0  0  0  0  0  0  0  0  0  0
   11.6788   -1.4988    0.0000 C   0  0  0  0  0  0  0  0  0  0  0  0
   14.0171    1.3512    0.0000 F   0  0  0  0  0  0  0  0  0  0  0  0
   14.2761   -1.5018    0.0000 N   0  0  0  0  0  0  0  0  0  0  0  0
   14.2739   -3.0027    0.0000 C   0  0  0  0  0  0  0  0  0  0  0  0
   15.5721   -3.7558    0.0000 C   0  0  0  0  0  0  0  0  0  0  0  0
   13.2337   -3.6009    0.0000 O   0  0  0  0  0  0  0  0  0  0  0  0
   15.5722   -5.2558    0.0000 C   0  0  0  0  0  0  0  0  0  0  0  0
   16.8712   -6.0058    0.0000 C   0  0  0  0  0  0  0  0  0  0  0  0
   18.1703   -5.2558    0.0000 C   0  0  0  0  0  0  0  0  0  0  0  0
   18.1703   -3.7558    0.0000 C   0  0  0  0  0  0  0  0  0  0  0  0
   16.8713   -3.0058    0.0000 C   0  0  0  0  0  0  0  0  0  0  0  0
   19.4716   -6.0036    0.0000 O   0  0  0  0  0  0  0  0  0  0  0  0
   20.5100   -5.4021    0.0000 C   0  0  0  0  0  0  0  0  0  0  0  0
   19.4685   -3.0028    0.0000 O   0  0  0  0  0  0  0  0  0  0  0  0
   19.4669   -1.8028    0.0000 C   0  0  0  0  0  0  0  0  0  0  0  0
   16.8681   -7.5066    0.0000 O   0  0  0  0  0  0  0  0  0  0  0  0
   15.8280   -8.1051    0.0000 C   0  0  0  0  0  0  0  0  0  0  0  0
  1  2  2  0
  2  3  1  0
  3  6  2  0
  5  4  2  0
  4  1  1  0
  5  6  1  0
  5 10  1  0
  6  7  1  0
  7  8  1  0
  8  9  1  0
  9 10  1  0
  3 11  1  0
  1 12  1  0
 13 14  2  0
 14 15  1  0
 15 16  2  0
 16 17  1  0
 17 18  2  0
 18 13  1  0
  9 13  1  0
 17 19  1  0
 16 20  1  0
 15 21  1  0
  8 22  1  0
 12 23  1  0
 11 24  1  0
 21 25  1  0
 20 26  1  0
 19 27  1  0
 22 28  1  0
 28 29  2  0
 28 30  1  0
 30 31  2  0
 31 32  1  0
 32 33  2  0
 33 34  1  0
 34 35  2  0
 35 30  1  0
 33 36  1  0
 34 37  1  0
 37 38  1  0
 38 39  1  0
 38 40  2  0
 39 41  2  0
 41 42  1  0
 42 43  2  0
 43 44  1  0
 44 45  2  0
 45 39  1  0
 43 46  1  0
 44 47  1  0
 47 48  1  0
 48 49  1  0
 48 50  2  0
 49 51  2  0
 51 52  1  0
 52 53  2  0
 53 54  1  0
 54 55  2  0
 55 49  1  0
 56 57  1  0
 53 56  1  0
 58 59  1  0
 54 58  1  0
 60 61  1  0
 52 60  1  0
M  END
>  <Classification>  (360) 
1

>  <pchembl>  (360) 
7.87

>  <InChI_steorem>  (360) 
InChI=1S/C44H42F2N2O13/c1-52-26-19-32(53-2)27-21-38(39(60-33(27)20-26)24-15-34(54-3)40(58-7)35(16-24)55-4)61-44(51)23-10-12-29(46)31(14-23)47-42(49)22-9-11-28(45)30(13-22)48-43(50)25-17-36(56-5)41(59-8)37(18-25)57-6/h9-20,38-39H,21H2,1-8H3,(H,47,49)(H,48,50)

>  <source>  (360) 
ChEMBL25

>  <source_id>  (360) 
25

>  <optional_reference>  (360) 
10.1021/acs.jmedchem.5b00085

>  <optional_origin>  (360) 
None

>  <target>  (360) 
MDR1

$$$$

     RDKit          2D

 32 35  0  0  0  0  0  0  0  0999 V2000
   -2.6111    0.7486    0.0000 C   0  0  0  0  0  0  0  0  0  0  0  0
   -2.6111   -0.7486    0.0000 C   0  0  0  0  0  0  0  0  0  0  0  0
   -1.2964   -1.4973    0.0000 C   0  0  0  0  0  0  0  0  0  0  0  0
   -1.2964    1.4973    0.0000 C   0  0  0  0  0  0  0  0  0  0  0  0
    0.0000    0.7486    0.0000 C   0  0  0  0  0  0  0  0  0  0  0  0
    0.0000   -0.7486    0.0000 C   0  0  0  0  0  0  0  0  0  0  0  0
    1.2964   -1.4973    0.0000 N   0  0  0  0  0  0  0  0  0  0  0  0
    2.5929   -0.7486    0.0000 C   0  0  0  0  0  0  0  0  0  0  0  0
    2.5929    0.7486    0.0000 C   0  0  0  0  0  0  0  0  0  0  0  0
    1.2964    1.4973    0.0000 C   0  0  0  0  0  0  0  0  0  0  0  0
    3.8942    1.4964    0.0000 C   0  0  0  0  0  0  0  0  0  0  0  0
    5.1929    0.7441    0.0000 O   0  0  0  0  0  0  0  0  0  0  0  0
    3.8963    2.6964    0.0000 O   0  0  0  0  0  0  0  0  0  0  0  0
    6.4942    1.4919    0.0000 C   0  0  0  0  0  0  0  0  0  0  0  0
    7.5325    0.8904    0.0000 C   0  0  0  0  0  0  0  0  0  0  0  0
    1.2964    2.9980    0.0000 C   0  0  0  0  0  0  0  0  0  0  0  0
    2.5942    3.7503    0.0000 C   0  0  0  0  0  0  0  0  0  0  0  0
    2.5918    5.2503    0.0000 C   0  0  0  0  0  0  0  0  0  0  0  0
    1.2915    5.9981    0.0000 C   0  0  0  0  0  0  0  0  0  0  0  0
   -0.0063    5.2460    0.0000 C   0  0  0  0  0  0  0  0  0  0  0  0
   -0.0038    3.7460    0.0000 C   0  0  0  0  0  0  0  0  0  0  0  0
    1.2995   -2.9981    0.0000 C   0  0  0  0  0  0  0  0  0  0  0  0
    2.6056   -5.2467    0.0000 C   0  0  0  0  0  0  0  0  0  0  0  0
    2.6003   -3.7467    0.0000 C   0  0  0  0  0  0  0  0  0  0  0  0
    3.8969   -2.9922    0.0000 C   0  0  0  0  0  0  0  0  0  0  0  0
    5.1985   -3.7377    0.0000 C   0  0  0  0  0  0  0  0  0  0  0  0
    5.2037   -5.2377    0.0000 C   0  0  0  0  0  0  0  0  0  0  0  0
    3.9072   -5.9922    0.0000 C   0  0  0  0  0  0  0  0  0  0  0  0
   -1.3088    5.9916    0.0000 O   0  0  0  0  0  0  0  0  0  0  0  0
   -2.3462    5.3884    0.0000 C   0  0  0  0  0  0  0  0  0  0  0  0
    1.2921    7.4990    0.0000 O   0  0  0  0  0  0  0  0  0  0  0  0
    2.3312    8.0992    0.0000 C   0  0  0  0  0  0  0  0  0  0  0  0
  1  2  2  0
  2  3  1  0
  3  6  2  0
  5  4  2  0
  4  1  1  0
  5  6  1  0
  5 10  1  0
  6  7  1  0
  7  8  1  0
  8  9  2  0
  9 10  1  0
 11 12  1  0
 11 13  2  0
  9 11  1  0
 12 14  1  0
 14 15  1  0
 16 17  2  0
 17 18  1  0
 18 19  2  0
 19 20  1  0
 20 21  2  0
 21 16  1  0
 10 16  1  0
 24 22  1  0
 28 23  2  0
 23 24  1  0
 24 25  2  0
 25 26  1  0
 26 27  2  0
 27 28  1  0
  7 22  1  0
 29 30  1  0
 20 29  1  0
 31 32  1  0
 19 31  1  0
M  END
>  <Classification>  (361) 
1

>  <pchembl>  (361) 
6.41

>  <InChI_steorem>  (361) 
InChI=1S/C27H27NO4/c1-4-32-27(29)22-18-28(17-19-10-6-5-7-11-19)23-13-9-8-12-21(23)26(22)20-14-15-24(30-2)25(16-20)31-3/h5-16,18,26H,4,17H2,1-3H3

>  <source>  (361) 
ChEMBL25

>  <source_id>  (361) 
25

>  <optional_reference>  (361) 
10.1016/j.bmcl.2015.05.018

>  <optional_origin>  (361) 
None

>  <target>  (361) 
MDR1

$$$$

     RDKit          2D

 22 24  0  0  0  0  0  0  0  0999 V2000
    0.0000   -1.5002    0.0000 C   0  0  0  0  0  0  0  0  0  0  0  0
    0.0000    1.5002    0.0000 C   0  0  0  0  0  0  0  0  0  0  0  0
   -1.2989   -0.7501    0.0000 C   0  0  0  0  0  0  0  0  0  0  0  0
   -1.2989    0.7501    0.0000 C   0  0  0  0  0  0  0  0  0  0  0  0
   -2.5978    1.5002    0.0000 O   0  0  0  0  0  0  0  0  0  0  0  0
   -3.8968    0.7501    0.0000 C   0  0  0  0  0  0  0  0  0  0  0  0
   -3.8968   -0.7501    0.0000 C   0  0  0  0  0  0  0  0  0  0  0  0
   -2.5978   -1.5002    0.0000 C   0  0  0  0  0  0  0  0  0  0  0  0
    1.2806    0.7501    0.0000 C   0  0  0  0  0  0  0  0  0  0  0  0
    1.2806   -0.7501    0.0000 C   0  0  0  0  0  0  0  0  0  0  0  0
    2.5978   -1.5002    0.0000 C   0  0  0  0  0  0  0  0  0  0  0  0
    3.8968   -0.7501    0.0000 C   0  0  0  0  0  0  0  0  0  0  0  0
    3.8968    0.7501    0.0000 C   0  0  0  0  0  0  0  0  0  0  0  0
    2.5978    1.5002    0.0000 O   0  0  0  0  0  0  0  0  0  0  0  0
    5.1965   -1.5005    0.0000 C   0  0  0  0  0  0  0  0  0  0  0  0
    5.1975   -3.0013    0.0000 C   0  0  0  0  0  0  0  0  0  0  0  0
    6.2367   -3.6013    0.0000 C   0  0  0  0  0  0  0  0  0  0  0  0
    6.2356   -0.9002    0.0000 C   0  0  0  0  0  0  0  0  0  0  0  0
    6.2360   -2.1000    0.0000 C   0  0  0  0  0  0  0  0  0  0  0  0
   -4.9215    0.1257    0.0000 C   0  0  0  0  0  0  0  0  0  0  0  0
   -3.8686    1.9498    0.0000 C   0  0  0  0  0  0  0  0  0  0  0  0
    4.9360    1.3500    0.0000 O   0  0  0  0  0  0  0  0  0  0  0  0
  3  1  2  0
  1 10  1  0
  9  2  1  0
  2  4  2  0
  3  4  1  0
  3  8  1  0
  4  5  1  0
  5  6  1  0
  6  7  1  0
  7  8  2  0
  9 10  2  0
  9 14  1  0
 10 11  1  0
 11 12  2  0
 12 13  1  0
 13 14  1  0
 12 15  1  0
 15 16  1  0
 16 17  2  0
 15 18  1  0
 15 19  1  0
  6 20  1  0
  6 21  1  0
 13 22  2  0
M  END
>  <Classification>  (362) 
0

>  <pchembl>  (362) 
4.82

>  <InChI_steorem>  (362) 
InChI=1S/C19H20O3/c1-6-18(2,3)14-10-13-9-12-7-8-19(4,5)22-16(12)11-15(13)21-17(14)20/h6-11H,1H2,2-5H3

>  <source>  (362) 
ChEMBL25

>  <source_id>  (362) 
25

>  <optional_reference>  (362) 
10.1039/C4MD00196F

>  <optional_origin>  (362) 
None

>  <target>  (362) 
MDR1

$$$$

     RDKit          2D

 24 25  0  0  0  0  0  0  0  0999 V2000
   -2.6111    0.7486    0.0000 C   0  0  0  0  0  0  0  0  0  0  0  0
   -2.6111   -0.7486    0.0000 C   0  0  0  0  0  0  0  0  0  0  0  0
   -1.2964   -1.4973    0.0000 C   0  0  0  0  0  0  0  0  0  0  0  0
   -1.2964    1.4973    0.0000 O   0  0  0  0  0  0  0  0  0  0  0  0
    0.0000    0.7486    0.0000 C   0  0  0  0  0  0  0  0  0  0  0  0
    0.0000   -0.7486    0.0000 C   0  0  0  0  0  0  0  0  0  0  0  0
    1.2964   -1.4973    0.0000 C   0  0  0  0  0  0  0  0  0  0  0  0
    2.5929   -0.7486    0.0000 C   0  0  0  0  0  0  0  0  0  0  0  0
   -3.6486    1.3517    0.0000 O   0  0  0  0  0  0  0  0  0  0  0  0
    1.2964    1.4973    0.0000 C   0  0  0  0  0  0  0  0  0  0  0  0
    2.5929    0.7486    0.0000 C   0  0  0  0  0  0  0  0  0  0  0  0
    3.8942    1.4964    0.0000 O   0  0  0  0  0  0  0  0  0  0  0  0
    1.2995    2.9981    0.0000 C   0  0  0  0  0  0  0  0  0  0  0  0
    2.6003    3.7467    0.0000 C   0  0  0  0  0  0  0  0  0  0  0  0
    2.6034    5.2475    0.0000 C   0  0  0  0  0  0  0  0  0  0  0  0
    3.6435    5.8460    0.0000 C   0  0  0  0  0  0  0  0  0  0  0  0
    1.5652    5.8493    0.0000 C   0  0  0  0  0  0  0  0  0  0  0  0
    1.2995   -2.9981    0.0000 O   0  0  0  0  0  0  0  0  0  0  0  0
    2.6003   -3.7467    0.0000 C   0  0  0  0  0  0  0  0  0  0  0  0
    2.6028   -4.9467    0.0000 O   0  0  0  0  0  0  0  0  0  0  0  0
    3.6385   -3.1449    0.0000 C   0  0  0  0  0  0  0  0  0  0  0  0
    5.1929    0.7441    0.0000 C   0  0  0  0  0  0  0  0  0  0  0  0
    5.1908   -0.4559    0.0000 C   0  0  0  0  0  0  0  0  0  0  0  0
    6.2333    1.3420    0.0000 O   0  0  0  0  0  0  0  0  0  0  0  0
  1  2  1  0
  1  4  1  0
  2  3  2  0
  3  6  1  0
  5  4  1  0
  5  6  2  0
  6  7  1  0
  7  8  2  0
  8 11  1  0
 10  5  1  0
  1  9  2  0
 10 11  2  0
 11 12  1  0
 10 13  1  0
 13 14  1  0
 14 15  2  3
 15 16  1  0
 15 17  1  0
  7 18  1  0
 18 19  1  0
 19 20  2  0
 19 21  1  0
 12 22  1  0
 22 23  1  0
 22 24  2  0
M  END
>  <Classification>  (363) 
0

>  <pchembl>  (363) 
4.36

>  <InChI_steorem>  (363) 
InChI=1S/C18H18O6/c1-10(2)5-6-13-15(22-11(3)19)9-16(23-12(4)20)14-7-8-17(21)24-18(13)14/h5,7-9H,6H2,1-4H3

>  <source>  (363) 
ChEMBL25

>  <source_id>  (363) 
25

>  <optional_reference>  (363) 
10.1039/C4MD00196F

>  <optional_origin>  (363) 
None

>  <target>  (363) 
MDR1

$$$$

     RDKit          2D

 30 33  0  0  0  0  0  0  0  0999 V2000
   -2.6111    0.7486    0.0000 C   0  0  0  0  0  0  0  0  0  0  0  0
   -2.6111   -0.7486    0.0000 C   0  0  0  0  0  0  0  0  0  0  0  0
   -1.2964   -1.4973    0.0000 C   0  0  0  0  0  0  0  0  0  0  0  0
   -1.2964    1.4973    0.0000 C   0  0  0  0  0  0  0  0  0  0  0  0
    0.0000    0.7486    0.0000 C   0  0  0  0  0  0  0  0  0  0  0  0
    0.0000   -0.7486    0.0000 C   0  0  0  0  0  0  0  0  0  0  0  0
    1.2964   -1.4973    0.0000 N   0  0  0  0  0  0  0  0  0  0  0  0
    2.5929   -0.7486    0.0000 C   0  0  0  0  0  0  0  0  0  0  0  0
    2.5929    0.7486    0.0000 C   0  0  0  0  0  0  0  0  0  0  0  0
    1.2964    1.4973    0.0000 C   0  0  0  0  0  0  0  0  0  0  0  0
    3.8942    1.4964    0.0000 C   0  0  0  0  0  0  0  0  0  0  0  0
    5.1929    0.7441    0.0000 O   0  0  0  0  0  0  0  0  0  0  0  0
    3.8963    2.6964    0.0000 O   0  0  0  0  0  0  0  0  0  0  0  0
    6.4942    1.4919    0.0000 C   0  0  0  0  0  0  0  0  0  0  0  0
    7.5325    0.8904    0.0000 C   0  0  0  0  0  0  0  0  0  0  0  0
    1.2964    2.9980    0.0000 C   0  0  0  0  0  0  0  0  0  0  0  0
    2.5942    3.7503    0.0000 C   0  0  0  0  0  0  0  0  0  0  0  0
    2.5918    5.2503    0.0000 C   0  0  0  0  0  0  0  0  0  0  0  0
    1.2915    5.9981    0.0000 C   0  0  0  0  0  0  0  0  0  0  0  0
   -0.0063    5.2460    0.0000 C   0  0  0  0  0  0  0  0  0  0  0  0
   -0.0038    3.7460    0.0000 C   0  0  0  0  0  0  0  0  0  0  0  0
    1.2995   -2.9981    0.0000 C   0  0  0  0  0  0  0  0  0  0  0  0
    2.6056   -5.2467    0.0000 C   0  0  0  0  0  0  0  0  0  0  0  0
    2.6003   -3.7467    0.0000 C   0  0  0  0  0  0  0  0  0  0  0  0
    3.8969   -2.9922    0.0000 C   0  0  0  0  0  0  0  0  0  0  0  0
    5.1985   -3.7377    0.0000 C   0  0  0  0  0  0  0  0  0  0  0  0
    5.2037   -5.2377    0.0000 C   0  0  0  0  0  0  0  0  0  0  0  0
    3.9072   -5.9922    0.0000 C   0  0  0  0  0  0  0  0  0  0  0  0
    3.8887    6.0055    0.0000 O   0  0  0  0  0  0  0  0  0  0  0  0
    3.8850    7.2055    0.0000 C   0  0  0  0  0  0  0  0  0  0  0  0
  1  2  2  0
  2  3  1  0
  3  6  2  0
  5  4  2  0
  4  1  1  0
  5  6  1  0
  5 10  1  0
  6  7  1  0
  7  8  1  0
  8  9  2  0
  9 10  1  0
 11 12  1  0
 11 13  2  0
  9 11  1  0
 12 14  1  0
 14 15  1  0
 16 17  2  0
 17 18  1  0
 18 19  2  0
 19 20  1  0
 20 21  2  0
 21 16  1  0
 10 16  1  0
 24 22  1  0
 28 23  2  0
 23 24  1  0
 24 25  2  0
 25 26  1  0
 26 27  2  0
 27 28  1  0
  7 22  1  0
 29 30  1  0
 18 29  1  0
M  END
>  <Classification>  (364) 
1

>  <pchembl>  (364) 
6.07

>  <InChI_steorem>  (364) 
InChI=1S/C26H25NO3/c1-3-30-26(28)23-18-27(17-19-10-5-4-6-11-19)24-15-8-7-14-22(24)25(23)20-12-9-13-21(16-20)29-2/h4-16,18,25H,3,17H2,1-2H3

>  <source>  (364) 
ChEMBL25

>  <source_id>  (364) 
25

>  <optional_reference>  (364) 
10.1016/j.bmcl.2015.05.018

>  <optional_origin>  (364) 
None

>  <target>  (364) 
MDR1

$$$$

     RDKit          2D

 31 33  0  0  0  0  0  0  0  0999 V2000
   -3.4277    0.0000    0.0000 C   0  0  0  0  0  0  0  0  0  0  0  0
   -3.4277   -1.5498    0.0000 C   0  0  0  0  0  0  0  0  0  0  0  0
   -2.1332   -2.2973    0.0000 C   0  0  0  0  0  0  0  0  0  0  0  0
   -2.1332    0.6928    0.0000 O   0  0  0  0  0  0  0  0  0  0  0  0
   -0.8205    0.0000    0.0000 C   0  0  0  0  0  0  0  0  0  0  0  0
   -0.8205   -1.5498    0.0000 C   0  0  0  0  0  0  0  0  0  0  0  0
    0.4558   -2.2973    0.0000 C   0  0  0  0  0  0  0  0  0  0  0  0
    1.7503   -1.5498    0.0000 C   0  0  0  0  0  0  0  0  0  0  0  0
   -4.4571    0.6166    0.0000 O   0  0  0  0  0  0  0  0  0  0  0  0
    0.4558    0.6928    0.0000 C   0  0  0  0  0  0  0  0  0  0  0  0
    1.7503    0.0000    0.0000 C   0  0  0  0  0  0  0  0  0  0  0  0
    3.0631    0.6928    0.0000 O   0  0  0  0  0  0  0  0  0  0  0  0
    3.0631    2.1879    0.0000 C   0  0  0  0  0  0  0  0  0  0  0  0
    1.7503    2.9537    0.0000 C   0  0  0  0  0  0  0  0  0  0  0  0
    0.4558    2.1879    0.0000 C   0  0  0  0  0  0  0  0  0  0  0  0
    1.7385    4.4541    0.0000 O   0  0  0  0  0  0  0  0  0  0  0  0
    3.0319    5.2155    0.0000 C   0  0  0  0  0  0  0  0  0  0  0  0
    3.0201    6.7163    0.0000 C   0  0  0  0  0  0  0  0  0  0  0  0
    4.0759    4.6240    0.0000 O   0  0  0  0  0  0  0  0  0  0  0  0
    4.3135    7.4776    0.0000 C   0  0  0  0  0  0  0  0  0  0  0  0
    1.9761    7.3078    0.0000 C   0  0  0  0  0  0  0  0  0  0  0  0
    4.3041    8.6776    0.0000 C   0  0  0  0  0  0  0  0  0  0  0  0
    3.0372    3.3876    0.0000 C   0  0  0  0  0  0  0  0  0  0  0  0
    4.0864    1.5612    0.0000 C   0  0  0  0  0  0  0  0  0  0  0  0
   -0.8477    2.9320    0.0000 O   0  0  0  0  0  0  0  0  0  0  0  0
   -0.8560    4.4328    0.0000 C   0  0  0  0  0  0  0  0  0  0  0  0
   -2.1595    5.1769    0.0000 C   0  0  0  0  0  0  0  0  0  0  0  0
    0.1800    5.0383    0.0000 O   0  0  0  0  0  0  0  0  0  0  0  0
   -3.1955    4.5714    0.0000 C   0  0  0  0  0  0  0  0  0  0  0  0
   -2.1678    6.6777    0.0000 C   0  0  0  0  0  0  0  0  0  0  0  0
   -3.2099    7.2726    0.0000 C   0  0  0  0  0  0  0  0  0  0  0  0
  1  2  1  0
  1  4  1  0
  2  3  2  0
  3  6  1  0
  5  4  1  0
  5  6  2  0
  6  7  1  0
  7  8  2  0
  8 11  1  0
 10  5  1  0
  1  9  2  0
 10 11  2  0
 10 15  1  0
 11 12  1  0
 12 13  1  0
 13 14  1  0
 14 15  1  0
 14 16  1  0
 16 17  1  0
 17 18  1  0
 17 19  2  0
 18 20  2  3
 18 21  1  0
 20 22  1  0
 13 23  1  0
 13 24  1  0
 15 25  1  0
 25 26  1  0
 26 27  1  0
 26 28  2  0
 27 29  1  0
 27 30  2  3
 30 31  1  0
M  END
>  <Classification>  (365) 
0

>  <pchembl>  (365) 
4.8

>  <InChI_steorem>  (365) 
InChI=1S/C24H26O7/c1-7-13(3)22(26)29-20-18-16(11-9-15-10-12-17(25)28-19(15)18)31-24(5,6)21(20)30-23(27)14(4)8-2/h7-12,20-21H,1-6H3

>  <source>  (365) 
ChEMBL25

>  <source_id>  (365) 
25

>  <optional_reference>  (365) 
10.1039/C4MD00196F

>  <optional_origin>  (365) 
None

>  <target>  (365) 
MDR1

$$$$

     RDKit          2D

 40 43  0  0  0  0  0  0  0  0999 V2000
    4.2010   -3.2956    0.0000 C   0  0  0  0  0  0  0  0  0  0  0  0
    4.9531   -1.9978    0.0000 N   0  0  0  0  0  0  0  0  0  0  0  0
    3.9511   -0.8815    0.0000 C   0  0  0  0  0  0  0  0  0  0  0  0
    2.5987   -1.5004    0.0000 C   0  0  0  0  0  0  0  0  0  0  0  0
    2.7343   -2.9815    0.0000 C   0  0  0  0  0  0  0  0  0  0  0  0
    4.6873   -4.3927    0.0000 O   0  0  0  0  0  0  0  0  0  0  0  0
    4.1955    0.2934    0.0000 O   0  0  0  0  0  0  0  0  0  0  0  0
    1.2990   -0.7500    0.0000 C   0  0  0  0  0  0  0  0  0  0  0  0
    1.2990    0.7500    0.0000 C   0  0  0  0  0  0  0  0  0  0  0  0
    0.0000    1.5000    0.0000 C   0  0  0  0  0  0  0  0  0  0  0  0
   -1.2990    0.7500    0.0000 C   0  0  0  0  0  0  0  0  0  0  0  0
   -1.2990   -0.7500    0.0000 C   0  0  0  0  0  0  0  0  0  0  0  0
    0.0000   -1.5000    0.0000 C   0  0  0  0  0  0  0  0  0  0  0  0
    1.6115   -3.9772    0.0000 C   0  0  0  0  0  0  0  0  0  0  0  0
    0.1606   -3.6178    0.0000 C   0  0  0  0  0  0  0  0  0  0  0  0
   -0.8791   -4.6991    0.0000 C   0  0  0  0  0  0  0  0  0  0  0  0
   -0.4625   -6.1401    0.0000 C   0  0  0  0  0  0  0  0  0  0  0  0
    0.9937   -6.4998    0.0000 C   0  0  0  0  0  0  0  0  0  0  0  0
    2.0333   -5.4186    0.0000 C   0  0  0  0  0  0  0  0  0  0  0  0
    0.0031    3.0008    0.0000 O   0  0  0  0  0  0  0  0  0  0  0  0
    1.0432    3.5994    0.0000 C   0  0  0  0  0  0  0  0  0  0  0  0
   -2.6003    1.4977    0.0000 O   0  0  0  0  0  0  0  0  0  0  0  0
   -3.6387    0.8962    0.0000 C   0  0  0  0  0  0  0  0  0  0  0  0
    1.4134   -7.9408    0.0000 O   0  0  0  0  0  0  0  0  0  0  0  0
    2.5788   -8.2269    0.0000 C   0  0  0  0  0  0  0  0  0  0  0  0
   -1.5050   -7.2198    0.0000 O   0  0  0  0  0  0  0  0  0  0  0  0
   -2.6696   -6.9303    0.0000 C   0  0  0  0  0  0  0  0  0  0  0  0
    6.4430   -1.8404    0.0000 C   0  0  0  0  0  0  0  0  0  0  0  0
    7.1485   -2.8111    0.0000 O   0  0  0  0  0  0  0  0  0  0  0  0
    7.0537   -0.4695    0.0000 C   0  0  0  0  0  0  0  0  0  0  0  0
    8.5452   -0.3097    0.0000 C   0  0  0  0  0  0  0  0  0  0  0  0
    9.1527    1.0617    0.0000 C   0  0  0  0  0  0  0  0  0  0  0  0
    8.2687    2.2736    0.0000 C   0  0  0  0  0  0  0  0  0  0  0  0
    6.7772    2.1140    0.0000 C   0  0  0  0  0  0  0  0  0  0  0  0
    6.1697    0.7425    0.0000 C   0  0  0  0  0  0  0  0  0  0  0  0
    9.4322   -1.5204    0.0000 O   0  0  0  0  0  0  0  0  0  0  0  0
   10.6252   -1.3910    0.0000 C   0  0  0  0  0  0  0  0  0  0  0  0
    8.8793    3.6446    0.0000 O   0  0  0  0  0  0  0  0  0  0  0  0
   10.0727    3.7706    0.0000 C   0  0  0  0  0  0  0  0  0  0  0  0
    6.0700    3.0834    0.0000 Br  0  0  0  0  0  0  0  0  0  0  0  0
  1  2  1  0
  2  3  1  0
  3  4  1  0
  4  5  2  0
  5  1  1  0
  1  6  2  0
  3  7  2  0
  8  9  2  0
  9 10  1  0
 10 11  2  0
 11 12  1  0
 12 13  2  0
 13  8  1  0
  4  8  1  0
 14 15  2  0
 15 16  1  0
 16 17  2  0
 17 18  1  0
 18 19  2  0
 19 14  1  0
  5 14  1  0
 20 21  1  0
 10 20  1  0
 22 23  1  0
 11 22  1  0
 24 25  1  0
 18 24  1  0
 26 27  1  0
 17 26  1  0
  2 28  1  0
 28 29  2  0
 28 30  1  0
 30 31  2  0
 31 32  1  0
 32 33  2  0
 33 34  1  0
 34 35  2  0
 35 30  1  0
 36 37  1  0
 31 36  1  0
 38 39  1  0
 33 38  1  0
 34 40  1  0
M  END
>  <Classification>  (366) 
1

>  <pchembl>  (366) 
7.97

>  <InChI_steorem>  (366) 
InChI=1S/C29H26BrNO9/c1-35-19-9-7-15(11-23(19)39-5)25-26(16-8-10-20(36-2)24(12-16)40-6)29(34)31(28(25)33)27(32)17-13-18(30)22(38-4)14-21(17)37-3/h7-14H,1-6H3

>  <source>  (366) 
ChEMBL25

>  <source_id>  (366) 
25

>  <optional_reference>  (366) 
10.1016/j.bmc.2015.07.027

>  <optional_origin>  (366) 
None

>  <target>  (366) 
MDR1

$$$$

     RDKit          2D

 40 44  0  0  0  0  0  0  0  0999 V2000
   -5.0779    5.2168    0.0000 C   0  0  0  0  0  0  0  0  0  0  0  0
   -4.9300    3.7369    0.0000 N   0  0  0  0  0  0  0  0  0  0  0  0
   -6.2772    3.1068    0.0000 C   0  0  0  0  0  0  0  0  0  0  0  0
   -7.2884    4.2146    0.0000 C   0  0  0  0  0  0  0  0  0  0  0  0
   -6.5472    5.5187    0.0000 C   0  0  0  0  0  0  0  0  0  0  0  0
   -4.1868    6.0205    0.0000 O   0  0  0  0  0  0  0  0  0  0  0  0
   -6.5117    1.9299    0.0000 O   0  0  0  0  0  0  0  0  0  0  0  0
   -8.7798    4.0476    0.0000 C   0  0  0  0  0  0  0  0  0  0  0  0
   -9.4792    2.7263    0.0000 C   0  0  0  0  0  0  0  0  0  0  0  0
  -10.9782    2.6720    0.0000 C   0  0  0  0  0  0  0  0  0  0  0  0
  -11.7747    3.9431    0.0000 C   0  0  0  0  0  0  0  0  0  0  0  0
  -11.0722    5.2684    0.0000 C   0  0  0  0  0  0  0  0  0  0  0  0
   -9.5732    5.3227    0.0000 C   0  0  0  0  0  0  0  0  0  0  0  0
   -7.1669    6.8856    0.0000 C   0  0  0  0  0  0  0  0  0  0  0  0
   -8.6397    7.1424    0.0000 C   0  0  0  0  0  0  0  0  0  0  0  0
   -9.1545    8.5513    0.0000 C   0  0  0  0  0  0  0  0  0  0  0  0
   -8.1918    9.7016    0.0000 C   0  0  0  0  0  0  0  0  0  0  0  0
   -6.7143    9.4430    0.0000 C   0  0  0  0  0  0  0  0  0  0  0  0
   -6.1995    8.0341    0.0000 C   0  0  0  0  0  0  0  0  0  0  0  0
  -11.6784    1.3445    0.0000 O   0  0  0  0  0  0  0  0  0  0  0  0
  -11.0398    0.3286    0.0000 C   0  0  0  0  0  0  0  0  0  0  0  0
  -13.2747    3.8919    0.0000 O   0  0  0  0  0  0  0  0  0  0  0  0
  -13.9105    4.9096    0.0000 C   0  0  0  0  0  0  0  0  0  0  0  0
   -5.7487   10.5920    0.0000 O   0  0  0  0  0  0  0  0  0  0  0  0
   -4.5669   10.3834    0.0000 C   0  0  0  0  0  0  0  0  0  0  0  0
   -8.7099   11.1102    0.0000 O   0  0  0  0  0  0  0  0  0  0  0  0
   -9.8922   11.3154    0.0000 C   0  0  0  0  0  0  0  0  0  0  0  0
   -3.6267    2.9927    0.0000 C   0  0  0  0  0  0  0  0  0  0  0  0
   -2.5905    3.5979    0.0000 O   0  0  0  0  0  0  0  0  0  0  0  0
   -3.6187    1.4919    0.0000 N   0  0  0  0  0  0  0  0  0  0  0  0
   -2.3155    0.7475    0.0000 C   0  0  0  0  0  0  0  0  0  0  0  0
   -2.3155   -0.7475    0.0000 C   0  0  0  0  0  0  0  0  0  0  0  0
   -1.0028   -1.5132    0.0000 C   0  0  0  0  0  0  0  0  0  0  0  0
   -1.0028    1.5132    0.0000 C   0  0  0  0  0  0  0  0  0  0  0  0
    0.2917    0.7475    0.0000 C   0  0  0  0  0  0  0  0  0  0  0  0
    0.2917   -0.7475    0.0000 C   0  0  0  0  0  0  0  0  0  0  0  0
    1.7138   -1.2033    0.0000 C   0  0  0  0  0  0  0  0  0  0  0  0
    2.5889    0.0182    0.0000 O   0  0  0  0  0  0  0  0  0  0  0  0
    1.7138    1.2033    0.0000 C   0  0  0  0  0  0  0  0  0  0  0  0
    2.0825    2.3453    0.0000 O   0  0  0  0  0  0  0  0  0  0  0  0
  1  2  1  0
  2  3  1  0
  3  4  1  0
  4  5  2  0
  5  1  1  0
  1  6  2  0
  3  7  2  0
  8  9  2  0
  9 10  1  0
 10 11  2  0
 11 12  1  0
 12 13  2  0
 13  8  1  0
  4  8  1  0
 14 15  2  0
 15 16  1  0
 16 17  2  0
 17 18  1  0
 18 19  2  0
 19 14  1  0
  5 14  1  0
 20 21  1  0
 10 20  1  0
 22 23  1  0
 11 22  1  0
 24 25  1  0
 18 24  1  0
 26 27  1  0
 17 26  1  0
  2 28  1  0
 28 29  2  0
 28 30  1  0
 30 31  1  0
 31 32  2  0
 32 33  1  0
 33 36  2  0
 35 34  2  0
 34 31  1  0
 35 36  1  0
 36 37  1  0
 37 38  1  0
 38 39  1  0
 39 35  1  0
 39 40  2  0
M  END
>  <Classification>  (367) 
1

>  <pchembl>  (367) 
6.9

>  <InChI_steorem>  (367) 
InChI=1S/C29H24N2O9/c1-36-20-9-6-15(11-22(20)38-3)24-25(16-7-10-21(37-2)23(12-16)39-4)27(33)31(26(24)32)29(35)30-18-8-5-17-14-40-28(34)19(17)13-18/h5-13H,14H2,1-4H3,(H,30,35)

>  <source>  (367) 
ChEMBL25

>  <source_id>  (367) 
25

>  <optional_reference>  (367) 
10.1016/j.bmc.2015.07.027

>  <optional_origin>  (367) 
None

>  <target>  (367) 
MDR1

$$$$

     RDKit          2D

 44 48  0  0  0  0  0  0  0  0999 V2000
   -5.0779    5.2168    0.0000 C   0  0  0  0  0  0  0  0  0  0  0  0
   -4.9300    3.7369    0.0000 N   0  0  0  0  0  0  0  0  0  0  0  0
   -6.2772    3.1068    0.0000 C   0  0  0  0  0  0  0  0  0  0  0  0
   -7.2884    4.2146    0.0000 C   0  0  0  0  0  0  0  0  0  0  0  0
   -6.5472    5.5187    0.0000 C   0  0  0  0  0  0  0  0  0  0  0  0
   -4.1868    6.0205    0.0000 O   0  0  0  0  0  0  0  0  0  0  0  0
   -6.5117    1.9299    0.0000 O   0  0  0  0  0  0  0  0  0  0  0  0
   -8.7798    4.0476    0.0000 C   0  0  0  0  0  0  0  0  0  0  0  0
   -9.4792    2.7263    0.0000 C   0  0  0  0  0  0  0  0  0  0  0  0
  -10.9782    2.6720    0.0000 C   0  0  0  0  0  0  0  0  0  0  0  0
  -11.7747    3.9431    0.0000 C   0  0  0  0  0  0  0  0  0  0  0  0
  -11.0722    5.2684    0.0000 C   0  0  0  0  0  0  0  0  0  0  0  0
   -9.5732    5.3227    0.0000 C   0  0  0  0  0  0  0  0  0  0  0  0
   -7.1669    6.8856    0.0000 C   0  0  0  0  0  0  0  0  0  0  0  0
   -8.6397    7.1424    0.0000 C   0  0  0  0  0  0  0  0  0  0  0  0
   -9.1545    8.5513    0.0000 C   0  0  0  0  0  0  0  0  0  0  0  0
   -8.1918    9.7016    0.0000 C   0  0  0  0  0  0  0  0  0  0  0  0
   -6.7143    9.4430    0.0000 C   0  0  0  0  0  0  0  0  0  0  0  0
   -6.1995    8.0341    0.0000 C   0  0  0  0  0  0  0  0  0  0  0  0
  -11.6784    1.3445    0.0000 O   0  0  0  0  0  0  0  0  0  0  0  0
  -11.0398    0.3286    0.0000 C   0  0  0  0  0  0  0  0  0  0  0  0
  -13.2747    3.8919    0.0000 O   0  0  0  0  0  0  0  0  0  0  0  0
  -13.9105    4.9096    0.0000 C   0  0  0  0  0  0  0  0  0  0  0  0
   -5.7487   10.5920    0.0000 O   0  0  0  0  0  0  0  0  0  0  0  0
   -4.5669   10.3834    0.0000 C   0  0  0  0  0  0  0  0  0  0  0  0
   -8.7099   11.1102    0.0000 O   0  0  0  0  0  0  0  0  0  0  0  0
   -9.8922   11.3154    0.0000 C   0  0  0  0  0  0  0  0  0  0  0  0
   -3.6267    2.9927    0.0000 C   0  0  0  0  0  0  0  0  0  0  0  0
   -2.5905    3.5979    0.0000 O   0  0  0  0  0  0  0  0  0  0  0  0
   -3.6187    1.4919    0.0000 N   0  0  0  0  0  0  0  0  0  0  0  0
   -2.3155    0.7475    0.0000 C   0  0  0  0  0  0  0  0  0  0  0  0
   -2.3155   -0.7475    0.0000 C   0  0  0  0  0  0  0  0  0  0  0  0
   -1.0028   -1.5132    0.0000 C   0  0  0  0  0  0  0  0  0  0  0  0
   -1.0028    1.5132    0.0000 C   0  0  0  0  0  0  0  0  0  0  0  0
    0.2917    0.7475    0.0000 C   0  0  0  0  0  0  0  0  0  0  0  0
    0.2917   -0.7475    0.0000 C   0  0  0  0  0  0  0  0  0  0  0  0
    1.7138   -1.2033    0.0000 C   0  0  0  0  0  0  0  0  0  0  0  0
    2.5889    0.0182    0.0000 O   0  0  0  0  0  0  0  0  0  0  0  0
    1.7138    1.2033    0.0000 C   0  0  0  0  0  0  0  0  0  0  0  0
    2.0825    2.3453    0.0000 O   0  0  0  0  0  0  0  0  0  0  0  0
    2.1855   -2.6254    0.0000 C   0  0  0  0  0  0  0  0  0  0  0  0
    3.6552   -2.9294    0.0000 C   0  0  0  0  0  0  0  0  0  0  0  0
    4.1277   -4.3539    0.0000 C   0  0  0  0  0  0  0  0  0  0  0  0
    5.3028   -4.5970    0.0000 C   0  0  0  0  0  0  0  0  0  0  0  0
  1  2  1  0
  2  3  1  0
  3  4  1  0
  4  5  2  0
  5  1  1  0
  1  6  2  0
  3  7  2  0
  8  9  2  0
  9 10  1  0
 10 11  2  0
 11 12  1  0
 12 13  2  0
 13  8  1  0
  4  8  1  0
 14 15  2  0
 15 16  1  0
 16 17  2  0
 17 18  1  0
 18 19  2  0
 19 14  1  0
  5 14  1  0
 20 21  1  0
 10 20  1  0
 22 23  1  0
 11 22  1  0
 24 25  1  0
 18 24  1  0
 26 27  1  0
 17 26  1  0
  2 28  1  0
 28 29  2  0
 28 30  1  0
 30 31  1  0
 31 32  2  0
 32 33  1  0
 33 36  2  0
 35 34  2  0
 34 31  1  0
 35 36  1  0
 36 37  1  0
 37 38  1  0
 38 39  1  0
 39 35  1  0
 39 40  2  0
 37 41  1  0
 41 42  1  0
 42 43  1  0
 43 44  1  0
M  END
>  <Classification>  (368) 
1

>  <pchembl>  (368) 
7.24

>  <InChI_steorem>  (368) 
InChI=1S/C33H32N2O9/c1-6-7-8-23-21-12-11-20(17-22(21)32(38)44-23)34-33(39)35-30(36)28(18-9-13-24(40-2)26(15-18)42-4)29(31(35)37)19-10-14-25(41-3)27(16-19)43-5/h9-17,23H,6-8H2,1-5H3,(H,34,39)

>  <source>  (368) 
ChEMBL25

>  <source_id>  (368) 
25

>  <optional_reference>  (368) 
10.1016/j.bmc.2015.07.027

>  <optional_origin>  (368) 
None

>  <target>  (368) 
MDR1

$$$$

     RDKit          2D

 46 50  0  0  0  0  0  0  0  0999 V2000
    4.2010   -3.2956    0.0000 C   0  0  0  0  0  0  0  0  0  0  0  0
    4.9531   -1.9978    0.0000 N   0  0  0  0  0  0  0  0  0  0  0  0
    3.9511   -0.8815    0.0000 C   0  0  0  0  0  0  0  0  0  0  0  0
    2.5987   -1.5004    0.0000 C   0  0  0  0  0  0  0  0  0  0  0  0
    2.7343   -2.9815    0.0000 C   0  0  0  0  0  0  0  0  0  0  0  0
    4.6873   -4.3927    0.0000 O   0  0  0  0  0  0  0  0  0  0  0  0
    4.1955    0.2934    0.0000 O   0  0  0  0  0  0  0  0  0  0  0  0
    1.2990   -0.7500    0.0000 C   0  0  0  0  0  0  0  0  0  0  0  0
    1.2990    0.7500    0.0000 C   0  0  0  0  0  0  0  0  0  0  0  0
    0.0000    1.5000    0.0000 C   0  0  0  0  0  0  0  0  0  0  0  0
   -1.2990    0.7500    0.0000 C   0  0  0  0  0  0  0  0  0  0  0  0
   -1.2990   -0.7500    0.0000 C   0  0  0  0  0  0  0  0  0  0  0  0
    0.0000   -1.5000    0.0000 C   0  0  0  0  0  0  0  0  0  0  0  0
    1.6115   -3.9772    0.0000 C   0  0  0  0  0  0  0  0  0  0  0  0
    0.1606   -3.6178    0.0000 C   0  0  0  0  0  0  0  0  0  0  0  0
   -0.8791   -4.6991    0.0000 C   0  0  0  0  0  0  0  0  0  0  0  0
   -0.4625   -6.1401    0.0000 C   0  0  0  0  0  0  0  0  0  0  0  0
    0.9937   -6.4998    0.0000 C   0  0  0  0  0  0  0  0  0  0  0  0
    2.0333   -5.4186    0.0000 C   0  0  0  0  0  0  0  0  0  0  0  0
    0.0031    3.0008    0.0000 O   0  0  0  0  0  0  0  0  0  0  0  0
    1.0432    3.5994    0.0000 C   0  0  0  0  0  0  0  0  0  0  0  0
   -2.6003    1.4977    0.0000 O   0  0  0  0  0  0  0  0  0  0  0  0
   -3.6387    0.8962    0.0000 C   0  0  0  0  0  0  0  0  0  0  0  0
    1.4134   -7.9408    0.0000 O   0  0  0  0  0  0  0  0  0  0  0  0
    2.5788   -8.2269    0.0000 C   0  0  0  0  0  0  0  0  0  0  0  0
   -1.5050   -7.2198    0.0000 O   0  0  0  0  0  0  0  0  0  0  0  0
   -2.6696   -6.9303    0.0000 C   0  0  0  0  0  0  0  0  0  0  0  0
    6.4430   -1.8404    0.0000 C   0  0  0  0  0  0  0  0  0  0  0  0
    7.1485   -2.8111    0.0000 O   0  0  0  0  0  0  0  0  0  0  0  0
    7.0537   -0.4695    0.0000 C   0  0  0  0  0  0  0  0  0  0  0  0
    8.5452   -0.3097    0.0000 C   0  0  0  0  0  0  0  0  0  0  0  0
    9.1527    1.0617    0.0000 C   0  0  0  0  0  0  0  0  0  0  0  0
    8.2687    2.2736    0.0000 C   0  0  0  0  0  0  0  0  0  0  0  0
    6.7772    2.1140    0.0000 C   0  0  0  0  0  0  0  0  0  0  0  0
    6.1697    0.7425    0.0000 C   0  0  0  0  0  0  0  0  0  0  0  0
    5.8902    3.3247    0.0000 N   0  0  0  0  0  0  0  0  0  0  0  0
    4.6972    3.1953    0.0000 O   0  0  0  0  0  0  0  0  0  0  0  0
    6.3743    4.4227    0.0000 O   0  0  0  0  0  0  0  0  0  0  0  0
    8.8793    3.6446    0.0000 O   0  0  0  0  0  0  0  0  0  0  0  0
   10.3719    3.8022    0.0000 C   0  0  0  0  0  0  0  0  0  0  0  0
   10.9825    5.1731    0.0000 C   0  0  0  0  0  0  0  0  0  0  0  0
   12.4741    5.3328    0.0000 C   0  0  0  0  0  0  0  0  0  0  0  0
   13.0816    6.7043    0.0000 C   0  0  0  0  0  0  0  0  0  0  0  0
   12.1976    7.9161    0.0000 C   0  0  0  0  0  0  0  0  0  0  0  0
   10.7061    7.7565    0.0000 C   0  0  0  0  0  0  0  0  0  0  0  0
   10.0986    6.3851    0.0000 C   0  0  0  0  0  0  0  0  0  0  0  0
  1  2  1  0
  2  3  1  0
  3  4  1  0
  4  5  2  0
  5  1  1  0
  1  6  2  0
  3  7  2  0
  8  9  2  0
  9 10  1  0
 10 11  2  0
 11 12  1  0
 12 13  2  0
 13  8  1  0
  4  8  1  0
 14 15  2  0
 15 16  1  0
 16 17  2  0
 17 18  1  0
 18 19  2  0
 19 14  1  0
  5 14  1  0
 20 21  1  0
 10 20  1  0
 22 23  1  0
 11 22  1  0
 24 25  1  0
 18 24  1  0
 26 27  1  0
 17 26  1  0
  2 28  1  0
 28 29  2  0
 28 30  1  0
 30 31  2  0
 31 32  1  0
 32 33  2  0
 33 34  1  0
 34 35  2  0
 35 30  1  0
 36 37  2  0
 36 38  1  0
 34 36  1  0
 33 39  1  0
 39 40  1  0
 40 41  1  0
 41 42  2  0
 42 43  1  0
 43 44  2  0
 44 45  1  0
 45 46  2  0
 46 41  1  0
M  CHG  2  36   1  38  -1
M  END
>  <Classification>  (369) 
1

>  <pchembl>  (369) 
7.87

>  <InChI_steorem>  (369) 
InChI=1S/C34H28N2O10/c1-42-26-14-10-21(17-28(26)44-3)30-31(22-11-15-27(43-2)29(18-22)45-4)34(39)35(33(30)38)32(37)23-12-13-25(24(16-23)36(40)41)46-19-20-8-6-5-7-9-20/h5-18H,19H2,1-4H3

>  <source>  (369) 
ChEMBL25

>  <source_id>  (369) 
25

>  <optional_reference>  (369) 
10.1016/j.bmc.2015.07.027

>  <optional_origin>  (369) 
None

>  <target>  (369) 
MDR1

$$$$

     RDKit          2D

 46 50  0  0  0  0  0  0  0  0999 V2000
    4.2010   -3.2956    0.0000 C   0  0  0  0  0  0  0  0  0  0  0  0
    4.9531   -1.9978    0.0000 N   0  0  0  0  0  0  0  0  0  0  0  0
    3.9511   -0.8815    0.0000 C   0  0  0  0  0  0  0  0  0  0  0  0
    2.5987   -1.5004    0.0000 C   0  0  0  0  0  0  0  0  0  0  0  0
    2.7343   -2.9815    0.0000 C   0  0  0  0  0  0  0  0  0  0  0  0
    4.6873   -4.3927    0.0000 O   0  0  0  0  0  0  0  0  0  0  0  0
    4.1955    0.2934    0.0000 O   0  0  0  0  0  0  0  0  0  0  0  0
    1.2990   -0.7500    0.0000 C   0  0  0  0  0  0  0  0  0  0  0  0
    1.2990    0.7500    0.0000 C   0  0  0  0  0  0  0  0  0  0  0  0
    0.0000    1.5000    0.0000 C   0  0  0  0  0  0  0  0  0  0  0  0
   -1.2990    0.7500    0.0000 C   0  0  0  0  0  0  0  0  0  0  0  0
   -1.2990   -0.7500    0.0000 C   0  0  0  0  0  0  0  0  0  0  0  0
    0.0000   -1.5000    0.0000 C   0  0  0  0  0  0  0  0  0  0  0  0
    1.6115   -3.9772    0.0000 C   0  0  0  0  0  0  0  0  0  0  0  0
    0.1606   -3.6178    0.0000 C   0  0  0  0  0  0  0  0  0  0  0  0
   -0.8791   -4.6991    0.0000 C   0  0  0  0  0  0  0  0  0  0  0  0
   -0.4625   -6.1401    0.0000 C   0  0  0  0  0  0  0  0  0  0  0  0
    0.9937   -6.4998    0.0000 C   0  0  0  0  0  0  0  0  0  0  0  0
    2.0333   -5.4186    0.0000 C   0  0  0  0  0  0  0  0  0  0  0  0
    0.0031    3.0008    0.0000 O   0  0  0  0  0  0  0  0  0  0  0  0
    1.0432    3.5994    0.0000 C   0  0  0  0  0  0  0  0  0  0  0  0
   -2.6003    1.4977    0.0000 O   0  0  0  0  0  0  0  0  0  0  0  0
   -3.6387    0.8962    0.0000 C   0  0  0  0  0  0  0  0  0  0  0  0
    1.4134   -7.9408    0.0000 O   0  0  0  0  0  0  0  0  0  0  0  0
    2.5788   -8.2269    0.0000 C   0  0  0  0  0  0  0  0  0  0  0  0
   -1.5050   -7.2198    0.0000 O   0  0  0  0  0  0  0  0  0  0  0  0
   -2.6696   -6.9303    0.0000 C   0  0  0  0  0  0  0  0  0  0  0  0
    6.4430   -1.8404    0.0000 C   0  0  0  0  0  0  0  0  0  0  0  0
    7.1485   -2.8111    0.0000 O   0  0  0  0  0  0  0  0  0  0  0  0
    7.0537   -0.4695    0.0000 C   0  0  0  0  0  0  0  0  0  0  0  0
    8.5452   -0.3097    0.0000 C   0  0  0  0  0  0  0  0  0  0  0  0
    9.1527    1.0617    0.0000 C   0  0  0  0  0  0  0  0  0  0  0  0
    8.2687    2.2736    0.0000 C   0  0  0  0  0  0  0  0  0  0  0  0
    6.7772    2.1140    0.0000 C   0  0  0  0  0  0  0  0  0  0  0  0
    6.1697    0.7425    0.0000 C   0  0  0  0  0  0  0  0  0  0  0  0
    9.4322   -1.5204    0.0000 O   0  0  0  0  0  0  0  0  0  0  0  0
   10.6252   -1.3910    0.0000 C   0  0  0  0  0  0  0  0  0  0  0  0
    8.8793    3.6446    0.0000 O   0  0  0  0  0  0  0  0  0  0  0  0
   10.3719    3.8022    0.0000 C   0  0  0  0  0  0  0  0  0  0  0  0
    6.0700    3.0834    0.0000 Br  0  0  0  0  0  0  0  0  0  0  0  0
   10.9825    5.1731    0.0000 C   0  0  0  0  0  0  0  0  0  0  0  0
   12.4741    5.3328    0.0000 C   0  0  0  0  0  0  0  0  0  0  0  0
   13.0816    6.7043    0.0000 C   0  0  0  0  0  0  0  0  0  0  0  0
   12.1976    7.9161    0.0000 C   0  0  0  0  0  0  0  0  0  0  0  0
   10.7061    7.7565    0.0000 C   0  0  0  0  0  0  0  0  0  0  0  0
   10.0986    6.3851    0.0000 C   0  0  0  0  0  0  0  0  0  0  0  0
  1  2  1  0
  2  3  1  0
  3  4  1  0
  4  5  2  0
  5  1  1  0
  1  6  2  0
  3  7  2  0
  8  9  2  0
  9 10  1  0
 10 11  2  0
 11 12  1  0
 12 13  2  0
 13  8  1  0
  4  8  1  0
 14 15  2  0
 15 16  1  0
 16 17  2  0
 17 18  1  0
 18 19  2  0
 19 14  1  0
  5 14  1  0
 20 21  1  0
 10 20  1  0
 22 23  1  0
 11 22  1  0
 24 25  1  0
 18 24  1  0
 26 27  1  0
 17 26  1  0
  2 28  1  0
 28 29  2  0
 28 30  1  0
 30 31  2  0
 31 32  1  0
 32 33  2  0
 33 34  1  0
 34 35  2  0
 35 30  1  0
 36 37  1  0
 31 36  1  0
 38 39  1  0
 33 38  1  0
 34 40  1  0
 39 41  1  0
 41 42  2  0
 42 43  1  0
 43 44  2  0
 44 45  1  0
 45 46  2  0
 46 41  1  0
M  END
>  <Classification>  (370) 
1

>  <pchembl>  (370) 
7.61

>  <InChI_steorem>  (370) 
InChI=1S/C35H30BrNO9/c1-41-25-13-11-21(15-29(25)44-4)31-32(22-12-14-26(42-2)30(16-22)45-5)35(40)37(34(31)39)33(38)23-17-24(36)28(18-27(23)43-3)46-19-20-9-7-6-8-10-20/h6-18H,19H2,1-5H3

>  <source>  (370) 
ChEMBL25

>  <source_id>  (370) 
25

>  <optional_reference>  (370) 
10.1016/j.bmc.2015.07.027

>  <optional_origin>  (370) 
None

>  <target>  (370) 
MDR1

$$$$

     RDKit          2D

 48 52  0  0  0  0  0  0  0  0999 V2000
    2.5951   -3.0039    0.0000 N   0  0  0  0  0  0  0  0  0  0  0  0
    2.5973   -1.5031    0.0000 C   0  0  0  0  0  0  0  0  0  0  0  0
    1.2990   -0.7500    0.0000 N   0  0  0  0  0  0  0  0  0  0  0  0
    3.6375   -0.9049    0.0000 O   0  0  0  0  0  0  0  0  0  0  0  0
    1.2990    0.7500    0.0000 C   0  0  0  0  0  0  0  0  0  0  0  0
    0.0000    1.5000    0.0000 C   0  0  0  0  0  0  0  0  0  0  0  0
   -1.2990    0.7500    0.0000 N   0  0  0  0  0  0  0  0  0  0  0  0
   -1.2990   -0.7500    0.0000 C   0  0  0  0  0  0  0  0  0  0  0  0
    0.0000   -1.5000    0.0000 C   0  0  0  0  0  0  0  0  0  0  0  0
   -2.6003    1.4977    0.0000 C   0  0  0  0  0  0  0  0  0  0  0  0
   -3.8990    0.7455    0.0000 C   0  0  0  0  0  0  0  0  0  0  0  0
   -5.2003    1.4932    0.0000 C   0  0  0  0  0  0  0  0  0  0  0  0
   -3.8969   -0.4545    0.0000 O   0  0  0  0  0  0  0  0  0  0  0  0
   -6.4994    0.7432    0.0000 C   0  0  0  0  0  0  0  0  0  0  0  0
   -7.7985    1.4932    0.0000 C   0  0  0  0  0  0  0  0  0  0  0  0
   -7.7985    2.9932    0.0000 C   0  0  0  0  0  0  0  0  0  0  0  0
   -6.4995    3.7432    0.0000 C   0  0  0  0  0  0  0  0  0  0  0  0
   -5.2004    2.9933    0.0000 C   0  0  0  0  0  0  0  0  0  0  0  0
   -9.0983    3.7436    0.0000 S   0  0  0  0  0  0  0  0  0  0  0  0
   -9.0979    4.9436    0.0000 C   0  0  0  0  0  0  0  0  0  0  0  0
  -10.1379    3.1442    0.0000 O   0  0  0  0  0  0  0  0  0  0  0  0
  -10.1372    4.3440    0.0000 O   0  0  0  0  0  0  0  0  0  0  0  0
    3.8056   -3.8679    0.0000 C   0  0  0  0  0  0  0  0  0  0  0  0
    1.3786   -3.8595    0.0000 C   0  0  0  0  0  0  0  0  0  0  0  0
    1.8372   -5.2877    0.0000 C   0  0  0  0  0  0  0  0  0  0  0  0
    3.3372   -5.2929    0.0000 C   0  0  0  0  0  0  0  0  0  0  0  0
    4.9460   -3.4943    0.0000 O   0  0  0  0  0  0  0  0  0  0  0  0
    0.2409   -3.4780    0.0000 O   0  0  0  0  0  0  0  0  0  0  0  0
    0.9508   -6.4988    0.0000 C   0  0  0  0  0  0  0  0  0  0  0  0
    1.4504   -7.9079    0.0000 C   0  0  0  0  0  0  0  0  0  0  0  0
    0.4759   -9.0482    0.0000 C   0  0  0  0  0  0  0  0  0  0  0  0
   -0.9989   -8.7745    0.0000 C   0  0  0  0  0  0  0  0  0  0  0  0
   -1.4993   -7.3604    0.0000 C   0  0  0  0  0  0  0  0  0  0  0  0
   -0.5248   -6.2201    0.0000 C   0  0  0  0  0  0  0  0  0  0  0  0
    4.2151   -6.5101    0.0000 C   0  0  0  0  0  0  0  0  0  0  0  0
    5.7096   -6.4704    0.0000 C   0  0  0  0  0  0  0  0  0  0  0  0
    6.4930   -7.7496    0.0000 C   0  0  0  0  0  0  0  0  0  0  0  0
    5.7769   -9.0677    0.0000 C   0  0  0  0  0  0  0  0  0  0  0  0
    4.2774   -9.1065    0.0000 C   0  0  0  0  0  0  0  0  0  0  0  0
    3.4940   -7.8274    0.0000 C   0  0  0  0  0  0  0  0  0  0  0  0
    0.9795  -10.4621    0.0000 O   0  0  0  0  0  0  0  0  0  0  0  0
    1.9629  -10.6432    0.0000 C   0  0  0  0  0  0  0  0  0  0  0  0
   -1.9762   -9.9135    0.0000 O   0  0  0  0  0  0  0  0  0  0  0  0
   -3.1558   -9.6928    0.0000 C   0  0  0  0  0  0  0  0  0  0  0  0
    3.5582  -10.4238    0.0000 O   0  0  0  0  0  0  0  0  0  0  0  0
    2.5585  -10.4484    0.0000 C   0  0  0  0  0  0  0  0  0  0  0  0
    6.5634  -10.3459    0.0000 O   0  0  0  0  0  0  0  0  0  0  0  0
    7.7630  -10.3131    0.0000 C   0  0  0  0  0  0  0  0  0  0  0  0
  1  2  1  0
  2  3  1  0
  2  4  2  0
  3  5  1  0
  3  9  1  0
  5  6  1  0
  6  7  1  0
  7  8  1  0
  8  9  1  0
  7 10  1  0
 10 11  1  0
 11 12  1  0
 11 13  2  0
 12 14  2  0
 14 15  1  0
 15 16  2  0
 16 17  1  0
 17 18  2  0
 18 12  1  0
 16 19  1  0
 19 20  1  0
 19 21  2  0
 19 22  2  0
 23  1  1  0
  1 24  1  0
 24 25  1  0
 25 26  2  0
 26 23  1  0
 23 27  2  0
 24 28  2  0
 29 30  2  0
 30 31  1  0
 31 32  2  0
 32 33  1  0
 33 34  2  0
 34 29  1  0
 25 29  1  0
 35 36  2  0
 36 37  1  0
 37 38  2  0
 38 39  1  0
 39 40  2  0
 40 35  1  0
 26 35  1  0
 41 42  1  0
 31 41  1  0
 43 44  1  0
 32 43  1  0
 45 46  1  0
 39 45  1  0
 47 48  1  0
 38 47  1  0
M  END
>  <Classification>  (371) 
1

>  <pchembl>  (371) 
6.87

>  <InChI_steorem>  (371) 
InChI=1S/C34H35N3O10S/c1-44-26-12-8-22(18-28(26)46-3)30-31(23-9-13-27(45-2)29(19-23)47-4)33(40)37(32(30)39)34(41)36-16-14-35(15-17-36)20-25(38)21-6-10-24(11-7-21)48(5,42)43/h6-13,18-19H,14-17,20H2,1-5H3

>  <source>  (371) 
ChEMBL25

>  <source_id>  (371) 
25

>  <optional_reference>  (371) 
10.1016/j.bmc.2015.07.027

>  <optional_origin>  (371) 
None

>  <target>  (371) 
MDR1

$$$$

     RDKit          2D

 48 52  0  0  0  0  0  0  0  0999 V2000
    4.2010   -3.2956    0.0000 C   0  0  0  0  0  0  0  0  0  0  0  0
    4.9531   -1.9978    0.0000 N   0  0  0  0  0  0  0  0  0  0  0  0
    3.9511   -0.8815    0.0000 C   0  0  0  0  0  0  0  0  0  0  0  0
    2.5987   -1.5004    0.0000 C   0  0  0  0  0  0  0  0  0  0  0  0
    2.7343   -2.9815    0.0000 C   0  0  0  0  0  0  0  0  0  0  0  0
    4.6873   -4.3927    0.0000 O   0  0  0  0  0  0  0  0  0  0  0  0
    4.1955    0.2934    0.0000 O   0  0  0  0  0  0  0  0  0  0  0  0
    1.2990   -0.7500    0.0000 C   0  0  0  0  0  0  0  0  0  0  0  0
    1.2990    0.7500    0.0000 C   0  0  0  0  0  0  0  0  0  0  0  0
    0.0000    1.5000    0.0000 C   0  0  0  0  0  0  0  0  0  0  0  0
   -1.2990    0.7500    0.0000 C   0  0  0  0  0  0  0  0  0  0  0  0
   -1.2990   -0.7500    0.0000 C   0  0  0  0  0  0  0  0  0  0  0  0
    0.0000   -1.5000    0.0000 C   0  0  0  0  0  0  0  0  0  0  0  0
    1.6115   -3.9772    0.0000 C   0  0  0  0  0  0  0  0  0  0  0  0
    0.1606   -3.6178    0.0000 C   0  0  0  0  0  0  0  0  0  0  0  0
   -0.8791   -4.6991    0.0000 C   0  0  0  0  0  0  0  0  0  0  0  0
   -0.4625   -6.1401    0.0000 C   0  0  0  0  0  0  0  0  0  0  0  0
    0.9937   -6.4998    0.0000 C   0  0  0  0  0  0  0  0  0  0  0  0
    2.0333   -5.4186    0.0000 C   0  0  0  0  0  0  0  0  0  0  0  0
    0.0031    3.0008    0.0000 O   0  0  0  0  0  0  0  0  0  0  0  0
    1.0432    3.5994    0.0000 C   0  0  0  0  0  0  0  0  0  0  0  0
   -2.6003    1.4977    0.0000 O   0  0  0  0  0  0  0  0  0  0  0  0
   -3.6387    0.8962    0.0000 C   0  0  0  0  0  0  0  0  0  0  0  0
    1.4134   -7.9408    0.0000 O   0  0  0  0  0  0  0  0  0  0  0  0
    2.5788   -8.2269    0.0000 C   0  0  0  0  0  0  0  0  0  0  0  0
   -1.5050   -7.2198    0.0000 O   0  0  0  0  0  0  0  0  0  0  0  0
   -2.6696   -6.9303    0.0000 C   0  0  0  0  0  0  0  0  0  0  0  0
    6.4430   -1.8404    0.0000 C   0  0  0  0  0  0  0  0  0  0  0  0
    7.1485   -2.8111    0.0000 O   0  0  0  0  0  0  0  0  0  0  0  0
    7.0537   -0.4695    0.0000 C   0  0  0  0  0  0  0  0  0  0  0  0
    8.5452   -0.3097    0.0000 C   0  0  0  0  0  0  0  0  0  0  0  0
    9.1527    1.0617    0.0000 C   0  0  0  0  0  0  0  0  0  0  0  0
    8.2687    2.2736    0.0000 C   0  0  0  0  0  0  0  0  0  0  0  0
    6.7772    2.1140    0.0000 C   0  0  0  0  0  0  0  0  0  0  0  0
    6.1697    0.7425    0.0000 C   0  0  0  0  0  0  0  0  0  0  0  0
    8.8793    3.6446    0.0000 O   0  0  0  0  0  0  0  0  0  0  0  0
   10.3719    3.8022    0.0000 C   0  0  0  0  0  0  0  0  0  0  0  0
   10.9825    5.1731    0.0000 C   0  0  0  0  0  0  0  0  0  0  0  0
   12.4741    5.3328    0.0000 C   0  0  0  0  0  0  0  0  0  0  0  0
   13.0816    6.7043    0.0000 C   0  0  0  0  0  0  0  0  0  0  0  0
   12.1976    7.9161    0.0000 C   0  0  0  0  0  0  0  0  0  0  0  0
   10.7061    7.7565    0.0000 C   0  0  0  0  0  0  0  0  0  0  0  0
   10.0986    6.3851    0.0000 C   0  0  0  0  0  0  0  0  0  0  0  0
    9.4322   -1.5204    0.0000 O   0  0  0  0  0  0  0  0  0  0  0  0
   10.9242   -1.3585    0.0000 C   0  0  0  0  0  0  0  0  0  0  0  0
   11.8112   -2.5692    0.0000 C   0  0  0  0  0  0  0  0  0  0  0  0
   13.0042   -2.4397    0.0000 O   0  0  0  0  0  0  0  0  0  0  0  0
    6.0700    3.0834    0.0000 Br  0  0  0  0  0  0  0  0  0  0  0  0
  1  2  1  0
  2  3  1  0
  3  4  1  0
  4  5  2  0
  5  1  1  0
  1  6  2  0
  3  7  2  0
  8  9  2  0
  9 10  1  0
 10 11  2  0
 11 12  1  0
 12 13  2  0
 13  8  1  0
  4  8  1  0
 14 15  2  0
 15 16  1  0
 16 17  2  0
 17 18  1  0
 18 19  2  0
 19 14  1  0
  5 14  1  0
 20 21  1  0
 10 20  1  0
 22 23  1  0
 11 22  1  0
 24 25  1  0
 18 24  1  0
 26 27  1  0
 17 26  1  0
  2 28  1  0
 28 29  2  0
 28 30  1  0
 30 31  2  0
 31 32  1  0
 32 33  2  0
 33 34  1  0
 34 35  2  0
 35 30  1  0
 33 36  1  0
 36 37  1  0
 37 38  1  0
 38 39  2  0
 39 40  1  0
 40 41  2  0
 41 42  1  0
 42 43  2  0
 43 38  1  0
 31 44  1  0
 44 45  1  0
 45 46  1  0
 46 47  1  0
 34 48  1  0
M  END
>  <Classification>  (372) 
1

>  <pchembl>  (372) 
8.19

>  <InChI_steorem>  (372) 
InChI=1S/C36H32BrNO10/c1-43-26-12-10-22(16-30(26)45-3)32-33(23-11-13-27(44-2)31(17-23)46-4)36(42)38(35(32)41)34(40)24-18-25(37)29(19-28(24)47-15-14-39)48-20-21-8-6-5-7-9-21/h5-13,16-19,39H,14-15,20H2,1-4H3

>  <source>  (372) 
ChEMBL25

>  <source_id>  (372) 
25

>  <optional_reference>  (372) 
10.1016/j.bmc.2015.07.027

>  <optional_origin>  (372) 
None

>  <target>  (372) 
MDR1

$$$$

     RDKit          2D

 53 58  0  0  0  0  0  0  0  0999 V2000
    4.2010   -3.2956    0.0000 C   0  0  0  0  0  0  0  0  0  0  0  0
    4.9531   -1.9978    0.0000 N   0  0  0  0  0  0  0  0  0  0  0  0
    3.9511   -0.8815    0.0000 C   0  0  0  0  0  0  0  0  0  0  0  0
    2.5987   -1.5004    0.0000 C   0  0  0  0  0  0  0  0  0  0  0  0
    2.7343   -2.9815    0.0000 C   0  0  0  0  0  0  0  0  0  0  0  0
    4.6873   -4.3927    0.0000 O   0  0  0  0  0  0  0  0  0  0  0  0
    4.1955    0.2934    0.0000 O   0  0  0  0  0  0  0  0  0  0  0  0
    1.2990   -0.7500    0.0000 C   0  0  0  0  0  0  0  0  0  0  0  0
    1.2990    0.7500    0.0000 C   0  0  0  0  0  0  0  0  0  0  0  0
    0.0000    1.5000    0.0000 C   0  0  0  0  0  0  0  0  0  0  0  0
   -1.2990    0.7500    0.0000 C   0  0  0  0  0  0  0  0  0  0  0  0
   -1.2990   -0.7500    0.0000 C   0  0  0  0  0  0  0  0  0  0  0  0
    0.0000   -1.5000    0.0000 C   0  0  0  0  0  0  0  0  0  0  0  0
    1.6115   -3.9772    0.0000 C   0  0  0  0  0  0  0  0  0  0  0  0
    0.1606   -3.6178    0.0000 C   0  0  0  0  0  0  0  0  0  0  0  0
   -0.8791   -4.6991    0.0000 C   0  0  0  0  0  0  0  0  0  0  0  0
   -0.4625   -6.1401    0.0000 C   0  0  0  0  0  0  0  0  0  0  0  0
    0.9937   -6.4998    0.0000 C   0  0  0  0  0  0  0  0  0  0  0  0
    2.0333   -5.4186    0.0000 C   0  0  0  0  0  0  0  0  0  0  0  0
    0.0031    3.0008    0.0000 O   0  0  0  0  0  0  0  0  0  0  0  0
    1.0432    3.5994    0.0000 C   0  0  0  0  0  0  0  0  0  0  0  0
   -2.6003    1.4977    0.0000 O   0  0  0  0  0  0  0  0  0  0  0  0
   -3.6387    0.8962    0.0000 C   0  0  0  0  0  0  0  0  0  0  0  0
    1.4134   -7.9408    0.0000 O   0  0  0  0  0  0  0  0  0  0  0  0
    2.5788   -8.2269    0.0000 C   0  0  0  0  0  0  0  0  0  0  0  0
   -1.5050   -7.2198    0.0000 O   0  0  0  0  0  0  0  0  0  0  0  0
   -2.6696   -6.9303    0.0000 C   0  0  0  0  0  0  0  0  0  0  0  0
    6.4430   -1.8404    0.0000 C   0  0  0  0  0  0  0  0  0  0  0  0
    7.1485   -2.8111    0.0000 O   0  0  0  0  0  0  0  0  0  0  0  0
    7.0537   -0.4695    0.0000 C   0  0  0  0  0  0  0  0  0  0  0  0
    8.5452   -0.3097    0.0000 C   0  0  0  0  0  0  0  0  0  0  0  0
    9.1527    1.0617    0.0000 C   0  0  0  0  0  0  0  0  0  0  0  0
    8.2687    2.2736    0.0000 C   0  0  0  0  0  0  0  0  0  0  0  0
    6.7772    2.1140    0.0000 C   0  0  0  0  0  0  0  0  0  0  0  0
    6.1697    0.7425    0.0000 C   0  0  0  0  0  0  0  0  0  0  0  0
    8.8793    3.6446    0.0000 O   0  0  0  0  0  0  0  0  0  0  0  0
   10.3719    3.8022    0.0000 C   0  0  0  0  0  0  0  0  0  0  0  0
   10.9825    5.1731    0.0000 C   0  0  0  0  0  0  0  0  0  0  0  0
   12.4741    5.3328    0.0000 C   0  0  0  0  0  0  0  0  0  0  0  0
   13.0816    6.7043    0.0000 C   0  0  0  0  0  0  0  0  0  0  0  0
   12.1976    7.9161    0.0000 C   0  0  0  0  0  0  0  0  0  0  0  0
   10.7061    7.7565    0.0000 C   0  0  0  0  0  0  0  0  0  0  0  0
   10.0986    6.3851    0.0000 C   0  0  0  0  0  0  0  0  0  0  0  0
    9.4322   -1.5204    0.0000 O   0  0  0  0  0  0  0  0  0  0  0  0
   10.9242   -1.3585    0.0000 C   0  0  0  0  0  0  0  0  0  0  0  0
   11.8112   -2.5692    0.0000 C   0  0  0  0  0  0  0  0  0  0  0  0
   13.3033   -2.4073    0.0000 N   0  0  0  0  0  0  0  0  0  0  0  0
    6.0700    3.0834    0.0000 Br  0  0  0  0  0  0  0  0  0  0  0  0
   14.1916   -3.6160    0.0000 C   0  0  0  0  0  0  0  0  0  0  0  0
   15.6825   -3.4512    0.0000 C   0  0  0  0  0  0  0  0  0  0  0  0
   16.2852   -2.0776    0.0000 O   0  0  0  0  0  0  0  0  0  0  0  0
   15.3970   -0.8688    0.0000 C   0  0  0  0  0  0  0  0  0  0  0  0
   13.9061   -1.0337    0.0000 C   0  0  0  0  0  0  0  0  0  0  0  0
  1  2  1  0
  2  3  1  0
  3  4  1  0
  4  5  2  0
  5  1  1  0
  1  6  2  0
  3  7  2  0
  8  9  2  0
  9 10  1  0
 10 11  2  0
 11 12  1  0
 12 13  2  0
 13  8  1  0
  4  8  1  0
 14 15  2  0
 15 16  1  0
 16 17  2  0
 17 18  1  0
 18 19  2  0
 19 14  1  0
  5 14  1  0
 20 21  1  0
 10 20  1  0
 22 23  1  0
 11 22  1  0
 24 25  1  0
 18 24  1  0
 26 27  1  0
 17 26  1  0
  2 28  1  0
 28 29  2  0
 28 30  1  0
 30 31  1  0
 31 32  2  0
 32 33  1  0
 33 34  2  0
 34 35  1  0
 35 30  2  0
 33 36  1  0
 36 37  1  0
 37 38  1  0
 38 39  2  0
 39 40  1  0
 40 41  2  0
 41 42  1  0
 42 43  2  0
 43 38  1  0
 31 44  1  0
 44 45  1  0
 45 46  1  0
 46 47  1  0
 34 48  1  0
 47 49  1  0
 47 53  1  0
 49 50  1  0
 50 51  1  0
 51 52  1  0
 52 53  1  0
M  END
>  <Classification>  (373) 
1

>  <pchembl>  (373) 
8.46

>  <InChI_steorem>  (373) 
InChI=1S/C40H39BrN2O10/c1-47-30-12-10-26(20-34(30)49-3)36-37(27-11-13-31(48-2)35(21-27)50-4)40(46)43(39(36)45)38(44)28-22-29(41)33(53-24-25-8-6-5-7-9-25)23-32(28)52-19-16-42-14-17-51-18-15-42/h5-13,20-23H,14-19,24H2,1-4H3

>  <source>  (373) 
ChEMBL25

>  <source_id>  (373) 
25

>  <optional_reference>  (373) 
10.1016/j.bmc.2015.07.027

>  <optional_origin>  (373) 
None

>  <target>  (373) 
MDR1

$$$$

     RDKit          2D

 54 59  0  0  0  0  0  0  0  0999 V2000
    4.9531   -1.9978    0.0000 N   0  0  0  0  0  0  0  0  0  0  0  0
    4.2010   -3.2956    0.0000 C   0  0  0  0  0  0  0  0  0  0  0  0
    3.9511   -0.8815    0.0000 C   0  0  0  0  0  0  0  0  0  0  0  0
    2.5987   -1.5004    0.0000 C   0  0  0  0  0  0  0  0  0  0  0  0
    2.7343   -2.9815    0.0000 C   0  0  0  0  0  0  0  0  0  0  0  0
    4.6873   -4.3927    0.0000 O   0  0  0  0  0  0  0  0  0  0  0  0
    4.1955    0.2934    0.0000 O   0  0  0  0  0  0  0  0  0  0  0  0
    1.2990   -0.7500    0.0000 C   0  0  0  0  0  0  0  0  0  0  0  0
    1.2990    0.7500    0.0000 C   0  0  0  0  0  0  0  0  0  0  0  0
    0.0000    1.5000    0.0000 C   0  0  0  0  0  0  0  0  0  0  0  0
   -1.2990    0.7500    0.0000 C   0  0  0  0  0  0  0  0  0  0  0  0
   -1.2990   -0.7500    0.0000 C   0  0  0  0  0  0  0  0  0  0  0  0
    0.0000   -1.5000    0.0000 C   0  0  0  0  0  0  0  0  0  0  0  0
    1.6115   -3.9772    0.0000 C   0  0  0  0  0  0  0  0  0  0  0  0
    0.1606   -3.6178    0.0000 C   0  0  0  0  0  0  0  0  0  0  0  0
   -0.8791   -4.6991    0.0000 C   0  0  0  0  0  0  0  0  0  0  0  0
   -0.4625   -6.1401    0.0000 C   0  0  0  0  0  0  0  0  0  0  0  0
    0.9937   -6.4998    0.0000 C   0  0  0  0  0  0  0  0  0  0  0  0
    2.0333   -5.4186    0.0000 C   0  0  0  0  0  0  0  0  0  0  0  0
    0.0031    3.0008    0.0000 O   0  0  0  0  0  0  0  0  0  0  0  0
    1.0432    3.5994    0.0000 C   0  0  0  0  0  0  0  0  0  0  0  0
   -2.6003    1.4977    0.0000 O   0  0  0  0  0  0  0  0  0  0  0  0
   -3.6387    0.8962    0.0000 C   0  0  0  0  0  0  0  0  0  0  0  0
    1.4134   -7.9408    0.0000 O   0  0  0  0  0  0  0  0  0  0  0  0
    2.5788   -8.2269    0.0000 C   0  0  0  0  0  0  0  0  0  0  0  0
   -1.5050   -7.2198    0.0000 O   0  0  0  0  0  0  0  0  0  0  0  0
   -2.6696   -6.9303    0.0000 C   0  0  0  0  0  0  0  0  0  0  0  0
    6.4430   -1.8404    0.0000 C   0  0  0  0  0  0  0  0  0  0  0  0
    7.1485   -2.8111    0.0000 O   0  0  0  0  0  0  0  0  0  0  0  0
    7.0537   -0.4695    0.0000 N   0  0  0  0  0  0  0  0  0  0  0  0
    8.5452   -0.3097    0.0000 C   0  0  0  0  0  0  0  0  0  0  0  0
    9.1527    1.0617    0.0000 C   0  0  0  0  0  0  0  0  0  0  0  0
    8.2687    2.2736    0.0000 N   0  0  0  0  0  0  0  0  0  0  0  0
    6.7772    2.1140    0.0000 C   0  0  0  0  0  0  0  0  0  0  0  0
    6.1697    0.7425    0.0000 C   0  0  0  0  0  0  0  0  0  0  0  0
    8.8737    3.6471    0.0000 C   0  0  0  0  0  0  0  0  0  0  0  0
    7.9875    4.8583    0.0000 C   0  0  0  0  0  0  0  0  0  0  0  0
    8.5925    6.2318    0.0000 C   0  0  0  0  0  0  0  0  0  0  0  0
    6.7946    4.7286    0.0000 O   0  0  0  0  0  0  0  0  0  0  0  0
    7.7086    7.4437    0.0000 C   0  0  0  0  0  0  0  0  0  0  0  0
    8.3161    8.8152    0.0000 C   0  0  0  0  0  0  0  0  0  0  0  0
    9.8075    8.9749    0.0000 C   0  0  0  0  0  0  0  0  0  0  0  0
   10.6915    7.7630    0.0000 C   0  0  0  0  0  0  0  0  0  0  0  0
   10.0841    6.3915    0.0000 C   0  0  0  0  0  0  0  0  0  0  0  0
   12.1842    7.9197    0.0000 O   0  0  0  0  0  0  0  0  0  0  0  0
   12.8900    6.9492    0.0000 C   0  0  0  0  0  0  0  0  0  0  0  0
   10.4125   10.3483    0.0000 O   0  0  0  0  0  0  0  0  0  0  0  0
    9.5263   11.5596    0.0000 C   0  0  0  0  0  0  0  0  0  0  0  0
   10.1313   12.9331    0.0000 C   0  0  0  0  0  0  0  0  0  0  0  0
    9.2473   14.1450    0.0000 C   0  0  0  0  0  0  0  0  0  0  0  0
    9.8548   15.5165    0.0000 C   0  0  0  0  0  0  0  0  0  0  0  0
   11.3462   15.6762    0.0000 C   0  0  0  0  0  0  0  0  0  0  0  0
   12.2303   14.4643    0.0000 C   0  0  0  0  0  0  0  0  0  0  0  0
   11.6228   13.0928    0.0000 C   0  0  0  0  0  0  0  0  0  0  0  0
  2  1  1  0
  1  3  1  0
  3  4  1  0
  4  5  2  0
  5  2  1  0
  2  6  2  0
  3  7  2  0
  8  9  2  0
  9 10  1  0
 10 11  2  0
 11 12  1  0
 12 13  2  0
 13  8  1  0
  4  8  1  0
 14 15  2  0
 15 16  1  0
 16 17  2  0
 17 18  1  0
 18 19  2  0
 19 14  1  0
  5 14  1  0
 20 21  1  0
 10 20  1  0
 22 23  1  0
 11 22  1  0
 24 25  1  0
 18 24  1  0
 26 27  1  0
 17 26  1  0
  1 28  1  0
 28 29  2  0
 28 30  1  0
 30 31  1  0
 30 35  1  0
 31 32  1  0
 32 33  1  0
 33 34  1  0
 34 35  1  0
 33 36  1  0
 36 37  1  0
 37 38  1  0
 37 39  2  0
 38 40  2  0
 40 41  1  0
 41 42  2  0
 42 43  1  0
 43 44  2  0
 44 38  1  0
 45 46  1  0
 43 45  1  0
 42 47  1  0
 47 48  1  0
 48 49  1  0
 49 50  2  0
 50 51  1  0
 51 52  2  0
 52 53  1  0
 53 54  2  0
 54 49  1  0
M  END
>  <Classification>  (374) 
1

>  <pchembl>  (374) 
7.59

>  <InChI_steorem>  (374) 
InChI=1S/C41H41N3O10/c1-49-31-14-12-28(22-34(31)51-3)37-38(29-13-15-32(50-2)35(23-29)52-4)40(47)44(39(37)46)41(48)43-19-17-42(18-20-43)24-30(45)27-11-16-33(36(21-27)53-5)54-25-26-9-7-6-8-10-26/h6-16,21-23H,17-20,24-25H2,1-5H3

>  <source>  (374) 
ChEMBL25

>  <source_id>  (374) 
25

>  <optional_reference>  (374) 
10.1016/j.bmc.2015.07.027

>  <optional_origin>  (374) 
None

>  <target>  (374) 
MDR1

$$$$

     RDKit          2D

 33 37  0  0  0  0  0  0  0  0999 V2000
   -1.2800    2.6300    0.0000 C   0  0  0  0  0  0  0  0  0  0  0  0
   -2.8500    2.6300    0.0000 C   0  0  0  0  0  0  0  0  0  0  0  0
   -3.4600    1.5800    0.0000 C   0  0  0  0  0  0  0  0  0  0  0  0
   -0.6900    1.6200    0.0000 C   0  0  0  0  0  0  0  0  0  0  0  0
   -1.3700    0.6200    0.0000 C   0  0  0  0  0  0  0  0  0  0  0  0
   -2.7800    0.6200    0.0000 C   0  0  0  0  0  0  0  0  0  0  0  0
   -3.2700   -0.5900    0.0000 N   0  0  0  0  0  0  0  0  0  0  0  0
   -0.9700   -0.6600    0.0000 C   0  0  0  0  0  0  0  0  0  0  0  0
   -2.1100   -1.3100    0.0000 C   0  0  0  0  0  0  0  0  0  0  0  0
    1.8300   -0.1800    0.0000 C   0  0  0  0  0  0  0  0  0  0  0  0
    0.1700   -0.9000    0.0000 C   0  0  0  0  0  0  0  0  0  0  0  0
    3.3700   -1.0100    0.0000 N   0  0  0  0  0  0  0  0  0  0  0  0
   -2.1100   -2.2100    0.0000 C   0  0  0  0  0  0  0  0  0  0  0  0
   -0.9300   -2.5200    0.0000 C   0  0  0  0  0  0  0  0  0  0  0  0
    1.0800   -1.7400    0.0000 C   0  0  0  0  0  0  0  0  0  0  0  0
    2.6100   -2.0400    0.0000 C   0  0  0  0  0  0  0  0  0  0  0  0
    3.7600   -1.9000    0.0000 C   0  0  0  0  0  0  0  0  0  0  0  0
    1.3100    1.3800    0.0000 C   0  0  0  0  0  0  0  0  0  0  0  0
    2.5025    2.3232    0.0000 C   0  0  0  0  0  0  0  0  0  0  0  0
    2.3540    3.5139    0.0000 O   0  0  0  0  0  0  0  0  0  0  0  0
    3.8853    1.7398    0.0000 O   0  0  0  0  0  0  0  0  0  0  0  0
    4.8425    2.4635    0.0000 C   0  0  0  0  0  0  0  0  0  0  0  0
    2.8104   -3.5374    0.0000 C   0  0  0  0  0  0  0  0  0  0  0  0
    1.8619   -4.2725    0.0000 C   0  0  0  0  0  0  0  0  0  0  0  0
   -3.3490   -3.0603    0.0000 N   0  0  0  0  0  0  0  0  0  0  0  0
   -3.2349   -4.5568    0.0000 N   0  0  0  0  0  0  0  0  0  0  0  0
   -4.4733   -5.4047    0.0000 C   0  0  0  0  0  0  0  0  0  0  0  0
   -4.3615   -6.9005    0.0000 C   0  0  0  0  0  0  0  0  0  0  0  0
   -5.6009   -7.7454    0.0000 C   0  0  0  0  0  0  0  0  0  0  0  0
   -6.9523   -7.0944    0.0000 C   0  0  0  0  0  0  0  0  0  0  0  0
   -7.0642   -5.5986    0.0000 C   0  0  0  0  0  0  0  0  0  0  0  0
   -5.8248   -4.7537    0.0000 C   0  0  0  0  0  0  0  0  0  0  0  0
    4.2523   -0.1967    0.0000 C   0  0  0  0  0  0  0  0  0  0  0  0
  1  2  2  0
  2  3  1  0
  3  6  2  0
  5  4  2  0
  4  1  1  0
  5  6  1  0
  6  7  1  0
  7  9  1  0
  8  5  1  0
  8  9  2  0
  8 11  1  0
  9 13  1  0
 12 10  1  0
 10 11  1  0
 12 17  1  0
 13 14  1  0
 14 15  1  0
 15 16  1  0
 16 17  1  0
 10 18  1  0
 18 19  1  0
 19 20  2  0
 19 21  1  0
 21 22  1  0
 16 23  1  0
 23 24  1  0
 13 25  2  3
 15 18  1  0
 25 26  1  0
 26 27  1  0
 27 28  2  0
 28 29  1  0
 29 30  2  0
 30 31  1  0
 31 32  2  0
 32 27  1  0
 12 33  1  0
M  END
>  <Classification>  (375) 
0

>  <pchembl>  (375) 
4.77

>  <InChI_steorem>  (375) 
InChI=1S/C27H32N4O2/c1-4-17-16-31(2)24-15-21-19-12-8-9-13-22(19)28-26(21)23(14-20(17)25(24)27(32)33-3)30-29-18-10-6-5-7-11-18/h5-13,17,20,24-25,28-29H,4,14-16H2,1-3H3

>  <source>  (375) 
ChEMBL25

>  <source_id>  (375) 
25

>  <optional_reference>  (375) 
10.1016/j.ejmech.2017.01.044

>  <optional_origin>  (375) 
None

>  <target>  (375) 
MDR1

$$$$

     RDKit          2D

 34 38  0  0  0  0  0  0  0  0999 V2000
   -1.2800    2.6300    0.0000 C   0  0  0  0  0  0  0  0  0  0  0  0
   -2.8500    2.6300    0.0000 C   0  0  0  0  0  0  0  0  0  0  0  0
   -3.4600    1.5800    0.0000 C   0  0  0  0  0  0  0  0  0  0  0  0
   -0.6900    1.6200    0.0000 C   0  0  0  0  0  0  0  0  0  0  0  0
   -1.3700    0.6200    0.0000 C   0  0  0  0  0  0  0  0  0  0  0  0
   -2.7800    0.6200    0.0000 C   0  0  0  0  0  0  0  0  0  0  0  0
   -3.2700   -0.5900    0.0000 N   0  0  0  0  0  0  0  0  0  0  0  0
   -0.9700   -0.6600    0.0000 C   0  0  0  0  0  0  0  0  0  0  0  0
   -2.1100   -1.3100    0.0000 C   0  0  0  0  0  0  0  0  0  0  0  0
    1.8300   -0.1800    0.0000 C   0  0  0  0  0  0  0  0  0  0  0  0
    0.1700   -0.9000    0.0000 C   0  0  0  0  0  0  0  0  0  0  0  0
    3.3700   -1.0100    0.0000 N   0  0  0  0  0  0  0  0  0  0  0  0
   -2.1100   -2.2100    0.0000 C   0  0  0  0  0  0  0  0  0  0  0  0
   -0.9300   -2.5200    0.0000 C   0  0  0  0  0  0  0  0  0  0  0  0
    1.0800   -1.7400    0.0000 C   0  0  0  0  0  0  0  0  0  0  0  0
    2.6100   -2.0400    0.0000 C   0  0  0  0  0  0  0  0  0  0  0  0
    3.7600   -1.9000    0.0000 C   0  0  0  0  0  0  0  0  0  0  0  0
    1.3100    1.3800    0.0000 C   0  0  0  0  0  0  0  0  0  0  0  0
    2.5025    2.3232    0.0000 C   0  0  0  0  0  0  0  0  0  0  0  0
    2.3540    3.5139    0.0000 O   0  0  0  0  0  0  0  0  0  0  0  0
    3.8853    1.7398    0.0000 O   0  0  0  0  0  0  0  0  0  0  0  0
    4.8425    2.4635    0.0000 C   0  0  0  0  0  0  0  0  0  0  0  0
    2.8104   -3.5374    0.0000 C   0  0  0  0  0  0  0  0  0  0  0  0
    1.8619   -4.2725    0.0000 C   0  0  0  0  0  0  0  0  0  0  0  0
   -3.3490   -3.0603    0.0000 N   0  0  0  0  0  0  0  0  0  0  0  0
   -3.2349   -4.5568    0.0000 N   0  0  0  0  0  0  0  0  0  0  0  0
   -4.4733   -5.4047    0.0000 C   0  0  0  0  0  0  0  0  0  0  0  0
   -4.3615   -6.9005    0.0000 N   0  0  0  0  0  0  0  0  0  0  0  0
   -5.6009   -7.7454    0.0000 C   0  0  0  0  0  0  0  0  0  0  0  0
   -6.9523   -7.0944    0.0000 C   0  0  0  0  0  0  0  0  0  0  0  0
   -7.0642   -5.5986    0.0000 C   0  0  0  0  0  0  0  0  0  0  0  0
   -5.8248   -4.7537    0.0000 C   0  0  0  0  0  0  0  0  0  0  0  0
   -7.9439   -7.7703    0.0000 Br  0  0  0  0  0  0  0  0  0  0  0  0
    4.2523   -0.1967    0.0000 C   0  0  0  0  0  0  0  0  0  0  0  0
  1  2  2  0
  2  3  1  0
  3  6  2  0
  5  4  2  0
  4  1  1  0
  5  6  1  0
  6  7  1  0
  7  9  1  0
  8  5  1  0
  8  9  2  0
  8 11  1  0
  9 13  1  0
 12 10  1  0
 10 11  1  0
 12 17  1  0
 13 14  1  0
 14 15  1  0
 15 16  1  0
 16 17  1  0
 10 18  1  0
 18 19  1  0
 19 20  2  0
 19 21  1  0
 21 22  1  0
 16 23  1  0
 23 24  1  0
 13 25  2  3
 15 18  1  0
 25 26  1  0
 26 27  1  0
 27 28  2  0
 28 29  1  0
 29 30  2  0
 30 31  1  0
 31 32  2  0
 32 27  1  0
 30 33  1  0
 12 34  1  0
M  END
>  <Classification>  (376) 
0

>  <pchembl>  (376) 
4.42

>  <InChI_steorem>  (376) 
InChI=1S/C26H30BrN5O2/c1-4-15-14-32(2)22-12-19-17-7-5-6-8-20(17)29-25(19)21(11-18(15)24(22)26(33)34-3)30-31-23-10-9-16(27)13-28-23/h5-10,13,15,18,22,24,29H,4,11-12,14H2,1-3H3,(H,28,31)

>  <source>  (376) 
ChEMBL25

>  <source_id>  (376) 
25

>  <optional_reference>  (376) 
10.1016/j.ejmech.2017.01.044

>  <optional_origin>  (376) 
None

>  <target>  (376) 
MDR1

$$$$

     RDKit          2D

 30 33  0  0  0  0  0  0  0  0999 V2000
   -2.3155    0.7475    0.0000 C   0  0  0  0  0  0  0  0  0  0  0  0
   -2.3155   -0.7475    0.0000 C   0  0  0  0  0  0  0  0  0  0  0  0
   -1.0028   -1.5132    0.0000 C   0  0  0  0  0  0  0  0  0  0  0  0
   -1.0028    1.5132    0.0000 C   0  0  0  0  0  0  0  0  0  0  0  0
    0.2917    0.7475    0.0000 C   0  0  0  0  0  0  0  0  0  0  0  0
    0.2917   -0.7475    0.0000 C   0  0  0  0  0  0  0  0  0  0  0  0
    1.7138   -1.2033    0.0000 N   0  0  0  0  0  0  0  0  0  0  0  0
    2.5889    0.0182    0.0000 C   0  0  0  0  0  0  0  0  0  0  0  0
    1.7138    1.2033    0.0000 C   0  0  0  0  0  0  0  0  0  0  0  0
    3.7889    0.0269    0.0000 O   0  0  0  0  0  0  0  0  0  0  0  0
    2.1749    2.6315    0.0000 C   0  0  0  0  0  0  0  0  0  0  0  0
    1.3751    3.8801    0.0000 N   0  0  0  0  0  0  0  0  0  0  0  0
    2.3406    5.0280    0.0000 C   0  0  0  0  0  0  0  0  0  0  0  0
    3.7308    4.4644    0.0000 C   0  0  0  0  0  0  0  0  0  0  0  0
    3.6243    2.9682    0.0000 S   0  0  0  0  0  0  0  0  0  0  0  0
    2.0517    6.1927    0.0000 O   0  0  0  0  0  0  0  0  0  0  0  0
    5.0039    5.2543    0.0000 C   0  0  0  0  0  0  0  0  0  0  0  0
    6.3272    4.5462    0.0000 C   0  0  0  0  0  0  0  0  0  0  0  0
    7.6031    5.3351    0.0000 C   0  0  0  0  0  0  0  0  0  0  0  0
    7.6938    2.3364    0.0000 C   0  0  0  0  0  0  0  0  0  0  0  0
    6.3727    3.0468    0.0000 C   0  0  0  0  0  0  0  0  0  0  0  0
   -0.1200    3.9767    0.0000 C   0  0  0  0  0  0  0  0  0  0  0  0
   -0.7859    5.3217    0.0000 C   0  0  0  0  0  0  0  0  0  0  0  0
    8.9695    3.1254    0.0000 C   0  0  0  0  0  0  0  0  0  0  0  0
    8.9242    4.6247    0.0000 C   0  0  0  0  0  0  0  0  0  0  0  0
   -2.2836    5.4185    0.0000 N   0  0  0  0  0  0  0  0  0  0  0  0
   -2.8161    6.4939    0.0000 C   0  0  0  0  0  0  0  0  0  0  0  0
   -2.9490    4.4199    0.0000 C   0  0  0  0  0  0  0  0  0  0  0  0
   10.0264    2.5571    0.0000 O   0  0  0  0  0  0  0  0  0  0  0  0
   -3.3560    1.3452    0.0000 F   0  0  0  0  0  0  0  0  0  0  0  0
  1  2  2  0
  2  3  1  0
  3  6  2  0
  5  4  2  0
  4  1  1  0
  5  6  1  0
  6  7  1  0
  7  8  1  0
  8  9  1  0
  9  5  1  0
  8 10  2  0
  9 11  2  0
 11 12  1  0
 12 13  1  0
 13 14  1  0
 14 15  1  0
 15 11  1  0
 13 16  2  0
 14 17  2  0
 17 18  1  0
 18 19  2  0
 19 25  1  0
 24 20  1  0
 20 21  2  0
 21 18  1  0
 12 22  1  0
 22 23  1  0
 24 25  2  0
 23 26  1  0
 26 27  1  0
 26 28  1  0
 24 29  1  0
  1 30  1  0
M  END
>  <Classification>  (377) 
1

>  <pchembl>  (377) 
5.87

>  <InChI_steorem>  (377) 
InChI=1S/C22H20FN3O3S/c1-25(2)9-10-26-21(29)18(11-13-3-6-15(27)7-4-13)30-22(26)19-16-12-14(23)5-8-17(16)24-20(19)28/h3-8,11-12,27H,9-10H2,1-2H3,(H,24,28)

>  <source>  (377) 
ChEMBL25

>  <source_id>  (377) 
25

>  <optional_reference>  (377) 
10.1016/j.ejmech.2015.06.002

>  <optional_origin>  (377) 
None

>  <target>  (377) 
MDR1

$$$$

     RDKit          2D

 33 36  0  0  0  0  0  0  0  0999 V2000
   -2.3155    0.7475    0.0000 C   0  0  0  0  0  0  0  0  0  0  0  0
   -2.3155   -0.7475    0.0000 C   0  0  0  0  0  0  0  0  0  0  0  0
   -1.0028   -1.5132    0.0000 C   0  0  0  0  0  0  0  0  0  0  0  0
   -1.0028    1.5132    0.0000 C   0  0  0  0  0  0  0  0  0  0  0  0
    0.2917    0.7475    0.0000 C   0  0  0  0  0  0  0  0  0  0  0  0
    0.2917   -0.7475    0.0000 C   0  0  0  0  0  0  0  0  0  0  0  0
    1.7138   -1.2033    0.0000 N   0  0  0  0  0  0  0  0  0  0  0  0
    2.5889    0.0182    0.0000 C   0  0  0  0  0  0  0  0  0  0  0  0
    1.7138    1.2033    0.0000 C   0  0  0  0  0  0  0  0  0  0  0  0
    3.7889    0.0269    0.0000 O   0  0  0  0  0  0  0  0  0  0  0  0
    2.1749    2.6315    0.0000 C   0  0  0  0  0  0  0  0  0  0  0  0
    1.3751    3.8801    0.0000 N   0  0  0  0  0  0  0  0  0  0  0  0
    2.3406    5.0280    0.0000 C   0  0  0  0  0  0  0  0  0  0  0  0
    3.7308    4.4644    0.0000 C   0  0  0  0  0  0  0  0  0  0  0  0
    3.6243    2.9682    0.0000 S   0  0  0  0  0  0  0  0  0  0  0  0
    2.0517    6.1927    0.0000 O   0  0  0  0  0  0  0  0  0  0  0  0
    5.0039    5.2543    0.0000 C   0  0  0  0  0  0  0  0  0  0  0  0
    6.3272    4.5462    0.0000 C   0  0  0  0  0  0  0  0  0  0  0  0
   -3.3560    1.3452    0.0000 C   0  0  0  0  0  0  0  0  0  0  0  0
    6.3727    3.0468    0.0000 C   0  0  0  0  0  0  0  0  0  0  0  0
    7.6938    2.3364    0.0000 C   0  0  0  0  0  0  0  0  0  0  0  0
    8.9695    3.1254    0.0000 C   0  0  0  0  0  0  0  0  0  0  0  0
    8.9242    4.6247    0.0000 C   0  0  0  0  0  0  0  0  0  0  0  0
    7.6031    5.3351    0.0000 C   0  0  0  0  0  0  0  0  0  0  0  0
    7.5668    6.5345    0.0000 O   0  0  0  0  0  0  0  0  0  0  0  0
   -0.1200    3.9767    0.0000 C   0  0  0  0  0  0  0  0  0  0  0  0
   -0.7859    5.3217    0.0000 C   0  0  0  0  0  0  0  0  0  0  0  0
   -2.2836    5.4185    0.0000 C   0  0  0  0  0  0  0  0  0  0  0  0
   -2.9496    6.7635    0.0000 N   0  0  0  0  0  0  0  0  0  0  0  0
   -4.4473    6.8602    0.0000 C   0  0  0  0  0  0  0  0  0  0  0  0
   -2.1199    8.0141    0.0000 C   0  0  0  0  0  0  0  0  0  0  0  0
   -2.6535    9.0889    0.0000 C   0  0  0  0  0  0  0  0  0  0  0  0
   -4.9797    7.9356    0.0000 C   0  0  0  0  0  0  0  0  0  0  0  0
  1  2  2  0
  2  3  1  0
  3  6  2  0
  5  4  2  0
  4  1  1  0
  5  6  1  0
  6  7  1  0
  7  8  1  0
  8  9  1  0
  9  5  1  0
  8 10  2  0
  9 11  2  0
 11 12  1  0
 12 13  1  0
 13 14  1  0
 14 15  1  0
 15 11  1  0
 13 16  2  0
 14 17  2  0
 17 18  1  0
  1 19  1  0
 18 20  2  0
 20 21  1  0
 21 22  2  0
 22 23  1  0
 23 24  2  0
 24 18  1  0
 24 25  1  0
 12 26  1  0
 26 27  1  0
 27 28  1  0
 28 29  1  0
 29 30  1  0
 29 31  1  0
 31 32  1  0
 30 33  1  0
M  END
>  <Classification>  (378) 
1

>  <pchembl>  (378) 
5.77

>  <InChI_steorem>  (378) 
InChI=1S/C26H29N3O3S/c1-4-28(5-2)13-8-14-29-25(32)22(16-18-9-6-7-10-21(18)30)33-26(29)23-19-15-17(3)11-12-20(19)27-24(23)31/h6-7,9-12,15-16,30H,4-5,8,13-14H2,1-3H3,(H,27,31)

>  <source>  (378) 
ChEMBL25

>  <source_id>  (378) 
25

>  <optional_reference>  (378) 
10.1016/j.ejmech.2015.06.002

>  <optional_origin>  (378) 
None

>  <target>  (378) 
MDR1

$$$$

     RDKit          2D

 34 37  0  0  0  0  0  0  0  0999 V2000
   -2.3155    0.7475    0.0000 C   0  0  0  0  0  0  0  0  0  0  0  0
   -2.3155   -0.7475    0.0000 C   0  0  0  0  0  0  0  0  0  0  0  0
   -1.0028   -1.5132    0.0000 C   0  0  0  0  0  0  0  0  0  0  0  0
   -1.0028    1.5132    0.0000 C   0  0  0  0  0  0  0  0  0  0  0  0
    0.2917    0.7475    0.0000 C   0  0  0  0  0  0  0  0  0  0  0  0
    0.2917   -0.7475    0.0000 C   0  0  0  0  0  0  0  0  0  0  0  0
    1.7138   -1.2033    0.0000 N   0  0  0  0  0  0  0  0  0  0  0  0
    2.5889    0.0182    0.0000 C   0  0  0  0  0  0  0  0  0  0  0  0
    1.7138    1.2033    0.0000 C   0  0  0  0  0  0  0  0  0  0  0  0
    3.7889    0.0269    0.0000 O   0  0  0  0  0  0  0  0  0  0  0  0
    2.1749    2.6315    0.0000 C   0  0  0  0  0  0  0  0  0  0  0  0
    1.3751    3.8801    0.0000 N   0  0  0  0  0  0  0  0  0  0  0  0
    2.3406    5.0280    0.0000 C   0  0  0  0  0  0  0  0  0  0  0  0
    3.7308    4.4644    0.0000 C   0  0  0  0  0  0  0  0  0  0  0  0
    3.6243    2.9682    0.0000 S   0  0  0  0  0  0  0  0  0  0  0  0
    2.0517    6.1927    0.0000 O   0  0  0  0  0  0  0  0  0  0  0  0
    5.0039    5.2543    0.0000 C   0  0  0  0  0  0  0  0  0  0  0  0
    6.3272    4.5462    0.0000 C   0  0  0  0  0  0  0  0  0  0  0  0
    7.6031    5.3351    0.0000 C   0  0  0  0  0  0  0  0  0  0  0  0
    7.6938    2.3364    0.0000 C   0  0  0  0  0  0  0  0  0  0  0  0
    6.3727    3.0468    0.0000 C   0  0  0  0  0  0  0  0  0  0  0  0
   -0.1200    3.9767    0.0000 C   0  0  0  0  0  0  0  0  0  0  0  0
   -0.7859    5.3217    0.0000 C   0  0  0  0  0  0  0  0  0  0  0  0
    8.9695    3.1254    0.0000 C   0  0  0  0  0  0  0  0  0  0  0  0
    8.9242    4.6247    0.0000 C   0  0  0  0  0  0  0  0  0  0  0  0
    7.5668    6.5345    0.0000 F   0  0  0  0  0  0  0  0  0  0  0  0
   10.0264    2.5571    0.0000 F   0  0  0  0  0  0  0  0  0  0  0  0
   -3.3560   -1.3452    0.0000 F   0  0  0  0  0  0  0  0  0  0  0  0
   -2.2836    5.4185    0.0000 C   0  0  0  0  0  0  0  0  0  0  0  0
   -2.9496    6.7635    0.0000 N   0  0  0  0  0  0  0  0  0  0  0  0
   -4.4473    6.8602    0.0000 C   0  0  0  0  0  0  0  0  0  0  0  0
   -2.1199    8.0141    0.0000 C   0  0  0  0  0  0  0  0  0  0  0  0
   -2.6535    9.0889    0.0000 C   0  0  0  0  0  0  0  0  0  0  0  0
   -4.9797    7.9356    0.0000 C   0  0  0  0  0  0  0  0  0  0  0  0
  1  2  2  0
  2  3  1  0
  3  6  2  0
  5  4  2  0
  4  1  1  0
  5  6  1  0
  6  7  1  0
  7  8  1  0
  8  9  1  0
  9  5  1  0
  8 10  2  0
  9 11  2  0
 11 12  1  0
 12 13  1  0
 13 14  1  0
 14 15  1  0
 15 11  1  0
 13 16  2  0
 14 17  2  0
 17 18  1  0
 18 19  2  0
 19 25  1  0
 24 20  1  0
 20 21  2  0
 21 18  1  0
 12 22  1  0
 22 23  1  0
 24 25  2  0
 19 26  1  0
 24 27  1  0
  2 28  1  0
 23 29  1  0
 29 30  1  0
 30 31  1  0
 30 32  1  0
 32 33  1  0
 31 34  1  0
M  END
>  <Classification>  (379) 
1

>  <pchembl>  (379) 
6.0

>  <InChI_steorem>  (379) 
InChI=1S/C25H24F3N3O2S/c1-3-30(4-2)10-5-11-31-24(33)21(12-15-6-7-16(26)13-19(15)28)34-25(31)22-18-9-8-17(27)14-20(18)29-23(22)32/h6-9,12-14H,3-5,10-11H2,1-2H3,(H,29,32)

>  <source>  (379) 
ChEMBL25

>  <source_id>  (379) 
25

>  <optional_reference>  (379) 
10.1016/j.ejmech.2015.06.002

>  <optional_origin>  (379) 
None

>  <target>  (379) 
MDR1

$$$$

     RDKit          2D

 34 38  0  0  0  0  0  0  0  0999 V2000
   -2.3155    0.7475    0.0000 C   0  0  0  0  0  0  0  0  0  0  0  0
   -2.3155   -0.7475    0.0000 C   0  0  0  0  0  0  0  0  0  0  0  0
   -1.0028   -1.5132    0.0000 C   0  0  0  0  0  0  0  0  0  0  0  0
   -1.0028    1.5132    0.0000 C   0  0  0  0  0  0  0  0  0  0  0  0
    0.2917    0.7475    0.0000 C   0  0  0  0  0  0  0  0  0  0  0  0
    0.2917   -0.7475    0.0000 C   0  0  0  0  0  0  0  0  0  0  0  0
    1.7138   -1.2033    0.0000 N   0  0  0  0  0  0  0  0  0  0  0  0
    2.5889    0.0182    0.0000 C   0  0  0  0  0  0  0  0  0  0  0  0
    1.7138    1.2033    0.0000 C   0  0  0  0  0  0  0  0  0  0  0  0
    3.7889    0.0269    0.0000 O   0  0  0  0  0  0  0  0  0  0  0  0
    2.1749    2.6315    0.0000 C   0  0  0  0  0  0  0  0  0  0  0  0
    1.3751    3.8801    0.0000 N   0  0  0  0  0  0  0  0  0  0  0  0
    2.3406    5.0280    0.0000 C   0  0  0  0  0  0  0  0  0  0  0  0
    3.7308    4.4644    0.0000 C   0  0  0  0  0  0  0  0  0  0  0  0
    3.6243    2.9682    0.0000 S   0  0  0  0  0  0  0  0  0  0  0  0
    2.0517    6.1927    0.0000 O   0  0  0  0  0  0  0  0  0  0  0  0
    5.0039    5.2543    0.0000 C   0  0  0  0  0  0  0  0  0  0  0  0
    6.3272    4.5462    0.0000 C   0  0  0  0  0  0  0  0  0  0  0  0
    7.6197    5.3432    0.0000 C   0  0  0  0  0  0  0  0  0  0  0  0
    7.6953    2.3177    0.0000 C   0  0  0  0  0  0  0  0  0  0  0  0
    6.3639    3.0504    0.0000 C   0  0  0  0  0  0  0  0  0  0  0  0
   -0.1200    3.9767    0.0000 C   0  0  0  0  0  0  0  0  0  0  0  0
   -0.7859    5.3217    0.0000 C   0  0  0  0  0  0  0  0  0  0  0  0
   -2.2836    5.4185    0.0000 C   0  0  0  0  0  0  0  0  0  0  0  0
   -2.9496    6.7635    0.0000 N   0  0  0  0  0  0  0  0  0  0  0  0
   -4.4473    6.8602    0.0000 C   0  0  0  0  0  0  0  0  0  0  0  0
   -2.1199    8.0141    0.0000 C   0  0  0  0  0  0  0  0  0  0  0  0
   -2.6535    9.0889    0.0000 C   0  0  0  0  0  0  0  0  0  0  0  0
   -4.9797    7.9356    0.0000 C   0  0  0  0  0  0  0  0  0  0  0  0
    8.9702    3.1155    0.0000 C   0  0  0  0  0  0  0  0  0  0  0  0
    8.9329    4.6101    0.0000 C   0  0  0  0  0  0  0  0  0  0  0  0
   10.3431    5.1012    0.0000 O   0  0  0  0  0  0  0  0  0  0  0  0
   11.2476    3.9384    0.0000 C   0  0  0  0  0  0  0  0  0  0  0  0
   10.4032    2.6954    0.0000 O   0  0  0  0  0  0  0  0  0  0  0  0
  1  2  2  0
  2  3  1  0
  3  6  2  0
  5  4  2  0
  4  1  1  0
  5  6  1  0
  6  7  1  0
  7  8  1  0
  8  9  1  0
  9  5  1  0
  8 10  2  0
  9 11  2  0
 11 12  1  0
 12 13  1  0
 13 14  1  0
 14 15  1  0
 15 11  1  0
 13 16  2  0
 14 17  2  0
 17 18  1  0
 18 19  2  0
 19 31  1  0
 30 20  1  0
 20 21  2  0
 21 18  1  0
 12 22  1  0
 22 23  1  0
 23 24  1  0
 24 25  1  0
 25 26  1  0
 25 27  1  0
 27 28  1  0
 26 29  1  0
 30 31  2  0
 31 32  1  0
 32 33  1  0
 33 34  1  0
 34 30  1  0
M  END
>  <Classification>  (380) 
1

>  <pchembl>  (380) 
6.32

>  <InChI_steorem>  (380) 
InChI=1S/C26H27N3O4S/c1-3-28(4-2)12-7-13-29-25(31)22(15-17-10-11-20-21(14-17)33-16-32-20)34-26(29)23-18-8-5-6-9-19(18)27-24(23)30/h5-6,8-11,14-15H,3-4,7,12-13,16H2,1-2H3,(H,27,30)

>  <source>  (380) 
ChEMBL25

>  <source_id>  (380) 
25

>  <optional_reference>  (380) 
10.1016/j.ejmech.2015.06.002

>  <optional_origin>  (380) 
None

>  <target>  (380) 
MDR1

$$$$

     RDKit          2D

 35 39  0  0  0  0  0  0  0  0999 V2000
   -2.3155    0.7475    0.0000 C   0  0  0  0  0  0  0  0  0  0  0  0
   -2.3155   -0.7475    0.0000 C   0  0  0  0  0  0  0  0  0  0  0  0
   -1.0028   -1.5132    0.0000 C   0  0  0  0  0  0  0  0  0  0  0  0
   -1.0028    1.5132    0.0000 C   0  0  0  0  0  0  0  0  0  0  0  0
    0.2917    0.7475    0.0000 C   0  0  0  0  0  0  0  0  0  0  0  0
    0.2917   -0.7475    0.0000 C   0  0  0  0  0  0  0  0  0  0  0  0
    1.7138   -1.2033    0.0000 N   0  0  0  0  0  0  0  0  0  0  0  0
    2.5889    0.0182    0.0000 C   0  0  0  0  0  0  0  0  0  0  0  0
    1.7138    1.2033    0.0000 C   0  0  0  0  0  0  0  0  0  0  0  0
    3.7889    0.0269    0.0000 O   0  0  0  0  0  0  0  0  0  0  0  0
    2.1749    2.6315    0.0000 C   0  0  0  0  0  0  0  0  0  0  0  0
    1.3751    3.8801    0.0000 N   0  0  0  0  0  0  0  0  0  0  0  0
    2.3406    5.0280    0.0000 C   0  0  0  0  0  0  0  0  0  0  0  0
    3.7308    4.4644    0.0000 C   0  0  0  0  0  0  0  0  0  0  0  0
    3.6243    2.9682    0.0000 S   0  0  0  0  0  0  0  0  0  0  0  0
    2.0517    6.1927    0.0000 O   0  0  0  0  0  0  0  0  0  0  0  0
    5.0039    5.2543    0.0000 C   0  0  0  0  0  0  0  0  0  0  0  0
    6.3272    4.5462    0.0000 C   0  0  0  0  0  0  0  0  0  0  0  0
   -3.3560    1.3452    0.0000 C   0  0  0  0  0  0  0  0  0  0  0  0
    7.6197    5.3432    0.0000 C   0  0  0  0  0  0  0  0  0  0  0  0
    7.6953    2.3177    0.0000 C   0  0  0  0  0  0  0  0  0  0  0  0
    6.3639    3.0504    0.0000 C   0  0  0  0  0  0  0  0  0  0  0  0
   -0.1200    3.9767    0.0000 C   0  0  0  0  0  0  0  0  0  0  0  0
   -0.7859    5.3217    0.0000 C   0  0  0  0  0  0  0  0  0  0  0  0
   -2.2836    5.4185    0.0000 C   0  0  0  0  0  0  0  0  0  0  0  0
   -2.9496    6.7635    0.0000 N   0  0  0  0  0  0  0  0  0  0  0  0
   -4.4473    6.8602    0.0000 C   0  0  0  0  0  0  0  0  0  0  0  0
   -2.1199    8.0141    0.0000 C   0  0  0  0  0  0  0  0  0  0  0  0
   -2.6535    9.0889    0.0000 C   0  0  0  0  0  0  0  0  0  0  0  0
   -4.9797    7.9356    0.0000 C   0  0  0  0  0  0  0  0  0  0  0  0
    8.9702    3.1155    0.0000 C   0  0  0  0  0  0  0  0  0  0  0  0
    8.9329    4.6101    0.0000 C   0  0  0  0  0  0  0  0  0  0  0  0
   10.3431    5.1012    0.0000 O   0  0  0  0  0  0  0  0  0  0  0  0
   11.2476    3.9384    0.0000 C   0  0  0  0  0  0  0  0  0  0  0  0
   10.4032    2.6954    0.0000 O   0  0  0  0  0  0  0  0  0  0  0  0
  1  2  2  0
  2  3  1  0
  3  6  2  0
  5  4  2  0
  4  1  1  0
  5  6  1  0
  6  7  1  0
  7  8  1  0
  8  9  1  0
  9  5  1  0
  8 10  2  0
  9 11  2  0
 11 12  1  0
 12 13  1  0
 13 14  1  0
 14 15  1  0
 15 11  1  0
 13 16  2  0
 14 17  2  0
 17 18  1  0
  1 19  1  0
 18 20  2  0
 20 32  1  0
 31 21  1  0
 21 22  2  0
 22 18  1  0
 12 23  1  0
 23 24  1  0
 24 25  1  0
 25 26  1  0
 26 27  1  0
 26 28  1  0
 28 29  1  0
 27 30  1  0
 31 32  2  0
 32 33  1  0
 33 34  1  0
 34 35  1  0
 35 31  1  0
M  END
>  <Classification>  (381) 
1

>  <pchembl>  (381) 
6.03

>  <InChI_steorem>  (381) 
InChI=1S/C27H29N3O4S/c1-4-29(5-2)11-6-12-30-26(32)23(15-18-8-10-21-22(14-18)34-16-33-21)35-27(30)24-19-13-17(3)7-9-20(19)28-25(24)31/h7-10,13-15H,4-6,11-12,16H2,1-3H3,(H,28,31)

>  <source>  (381) 
ChEMBL25

>  <source_id>  (381) 
25

>  <optional_reference>  (381) 
10.1016/j.ejmech.2015.06.002

>  <optional_origin>  (381) 
None

>  <target>  (381) 
MDR1

$$$$

     RDKit          2D

 35 39  0  0  0  0  0  0  0  0999 V2000
   -2.3155    0.7475    0.0000 C   0  0  0  0  0  0  0  0  0  0  0  0
   -2.3155   -0.7475    0.0000 C   0  0  0  0  0  0  0  0  0  0  0  0
   -1.0028   -1.5132    0.0000 C   0  0  0  0  0  0  0  0  0  0  0  0
   -1.0028    1.5132    0.0000 C   0  0  0  0  0  0  0  0  0  0  0  0
    0.2917    0.7475    0.0000 C   0  0  0  0  0  0  0  0  0  0  0  0
    0.2917   -0.7475    0.0000 C   0  0  0  0  0  0  0  0  0  0  0  0
    1.7138   -1.2033    0.0000 N   0  0  0  0  0  0  0  0  0  0  0  0
    2.5889    0.0182    0.0000 C   0  0  0  0  0  0  0  0  0  0  0  0
    1.7138    1.2033    0.0000 C   0  0  0  0  0  0  0  0  0  0  0  0
    3.7889    0.0269    0.0000 O   0  0  0  0  0  0  0  0  0  0  0  0
    2.1749    2.6315    0.0000 C   0  0  0  0  0  0  0  0  0  0  0  0
    1.3751    3.8801    0.0000 N   0  0  0  0  0  0  0  0  0  0  0  0
    2.3406    5.0280    0.0000 C   0  0  0  0  0  0  0  0  0  0  0  0
    3.7308    4.4644    0.0000 C   0  0  0  0  0  0  0  0  0  0  0  0
    3.6243    2.9682    0.0000 S   0  0  0  0  0  0  0  0  0  0  0  0
    2.0517    6.1927    0.0000 O   0  0  0  0  0  0  0  0  0  0  0  0
    5.0039    5.2543    0.0000 C   0  0  0  0  0  0  0  0  0  0  0  0
    6.3272    4.5462    0.0000 C   0  0  0  0  0  0  0  0  0  0  0  0
    7.6197    5.3432    0.0000 C   0  0  0  0  0  0  0  0  0  0  0  0
    7.6953    2.3177    0.0000 C   0  0  0  0  0  0  0  0  0  0  0  0
    6.3639    3.0504    0.0000 C   0  0  0  0  0  0  0  0  0  0  0  0
   -0.1200    3.9767    0.0000 C   0  0  0  0  0  0  0  0  0  0  0  0
   -0.7859    5.3217    0.0000 C   0  0  0  0  0  0  0  0  0  0  0  0
   -2.2836    5.4185    0.0000 C   0  0  0  0  0  0  0  0  0  0  0  0
   -2.9496    6.7635    0.0000 N   0  0  0  0  0  0  0  0  0  0  0  0
   -4.4473    6.8602    0.0000 C   0  0  0  0  0  0  0  0  0  0  0  0
   -2.1199    8.0141    0.0000 C   0  0  0  0  0  0  0  0  0  0  0  0
   -2.6535    9.0889    0.0000 C   0  0  0  0  0  0  0  0  0  0  0  0
   -4.9797    7.9356    0.0000 C   0  0  0  0  0  0  0  0  0  0  0  0
    8.9702    3.1155    0.0000 C   0  0  0  0  0  0  0  0  0  0  0  0
    8.9329    4.6101    0.0000 C   0  0  0  0  0  0  0  0  0  0  0  0
   10.3431    5.1012    0.0000 O   0  0  0  0  0  0  0  0  0  0  0  0
   11.2476    3.9384    0.0000 C   0  0  0  0  0  0  0  0  0  0  0  0
   10.4032    2.6954    0.0000 O   0  0  0  0  0  0  0  0  0  0  0  0
   -3.3560    1.3452    0.0000 Cl  0  0  0  0  0  0  0  0  0  0  0  0
  1  2  2  0
  2  3  1  0
  3  6  2  0
  5  4  2  0
  4  1  1  0
  5  6  1  0
  6  7  1  0
  7  8  1  0
  8  9  1  0
  9  5  1  0
  8 10  2  0
  9 11  2  0
 11 12  1  0
 12 13  1  0
 13 14  1  0
 14 15  1  0
 15 11  1  0
 13 16  2  0
 14 17  2  0
 17 18  1  0
 18 19  2  0
 19 31  1  0
 30 20  1  0
 20 21  2  0
 21 18  1  0
 12 22  1  0
 22 23  1  0
 23 24  1  0
 24 25  1  0
 25 26  1  0
 25 27  1  0
 27 28  1  0
 26 29  1  0
 30 31  2  0
 31 32  1  0
 32 33  1  0
 33 34  1  0
 34 30  1  0
  1 35  1  0
M  END
>  <Classification>  (382) 
1

>  <pchembl>  (382) 
5.75

>  <InChI_steorem>  (382) 
InChI=1S/C26H26ClN3O4S/c1-3-29(4-2)10-5-11-30-25(32)22(13-16-6-9-20-21(12-16)34-15-33-20)35-26(30)23-18-14-17(27)7-8-19(18)28-24(23)31/h6-9,12-14H,3-5,10-11,15H2,1-2H3,(H,28,31)

>  <source>  (382) 
ChEMBL25

>  <source_id>  (382) 
25

>  <optional_reference>  (382) 
10.1016/j.ejmech.2015.06.002

>  <optional_origin>  (382) 
None

>  <target>  (382) 
MDR1

$$$$

     RDKit          2D

 37 40  0  0  0  0  0  0  0  0999 V2000
   -2.3155    0.7475    0.0000 C   0  0  0  0  0  0  0  0  0  0  0  0
   -2.3155   -0.7475    0.0000 C   0  0  0  0  0  0  0  0  0  0  0  0
   -1.0028   -1.5132    0.0000 C   0  0  0  0  0  0  0  0  0  0  0  0
   -1.0028    1.5132    0.0000 C   0  0  0  0  0  0  0  0  0  0  0  0
    0.2917    0.7475    0.0000 C   0  0  0  0  0  0  0  0  0  0  0  0
    0.2917   -0.7475    0.0000 C   0  0  0  0  0  0  0  0  0  0  0  0
    1.7138   -1.2033    0.0000 N   0  0  0  0  0  0  0  0  0  0  0  0
    2.5889    0.0182    0.0000 C   0  0  0  0  0  0  0  0  0  0  0  0
    1.7138    1.2033    0.0000 C   0  0  0  0  0  0  0  0  0  0  0  0
    3.7889    0.0269    0.0000 O   0  0  0  0  0  0  0  0  0  0  0  0
    2.1749    2.6315    0.0000 C   0  0  0  0  0  0  0  0  0  0  0  0
    1.3751    3.8801    0.0000 N   0  0  0  0  0  0  0  0  0  0  0  0
    2.3406    5.0280    0.0000 C   0  0  0  0  0  0  0  0  0  0  0  0
    3.7308    4.4644    0.0000 C   0  0  0  0  0  0  0  0  0  0  0  0
    3.6243    2.9682    0.0000 S   0  0  0  0  0  0  0  0  0  0  0  0
    2.0517    6.1927    0.0000 O   0  0  0  0  0  0  0  0  0  0  0  0
    5.0039    5.2543    0.0000 C   0  0  0  0  0  0  0  0  0  0  0  0
    6.3272    4.5462    0.0000 C   0  0  0  0  0  0  0  0  0  0  0  0
    7.6031    5.3351    0.0000 C   0  0  0  0  0  0  0  0  0  0  0  0
    7.6938    2.3364    0.0000 C   0  0  0  0  0  0  0  0  0  0  0  0
    6.3727    3.0468    0.0000 C   0  0  0  0  0  0  0  0  0  0  0  0
   -0.1200    3.9767    0.0000 C   0  0  0  0  0  0  0  0  0  0  0  0
   -0.7859    5.3217    0.0000 C   0  0  0  0  0  0  0  0  0  0  0  0
    8.9695    3.1254    0.0000 C   0  0  0  0  0  0  0  0  0  0  0  0
    8.9242    4.6247    0.0000 C   0  0  0  0  0  0  0  0  0  0  0  0
    7.7361    0.8362    0.0000 O   0  0  0  0  0  0  0  0  0  0  0  0
    6.7146    0.2065    0.0000 C   0  0  0  0  0  0  0  0  0  0  0  0
   10.2929    2.4173    0.0000 O   0  0  0  0  0  0  0  0  0  0  0  0
   11.3126    3.0499    0.0000 C   0  0  0  0  0  0  0  0  0  0  0  0
   10.1990    5.4167    0.0000 O   0  0  0  0  0  0  0  0  0  0  0  0
   10.1610    6.6161    0.0000 C   0  0  0  0  0  0  0  0  0  0  0  0
   -2.2836    5.4185    0.0000 C   0  0  0  0  0  0  0  0  0  0  0  0
   -2.9496    6.7635    0.0000 N   0  0  0  0  0  0  0  0  0  0  0  0
   -4.4473    6.8602    0.0000 C   0  0  0  0  0  0  0  0  0  0  0  0
   -2.1199    8.0141    0.0000 C   0  0  0  0  0  0  0  0  0  0  0  0
   -2.6535    9.0889    0.0000 C   0  0  0  0  0  0  0  0  0  0  0  0
   -4.9797    7.9356    0.0000 C   0  0  0  0  0  0  0  0  0  0  0  0
  1  2  2  0
  2  3  1  0
  3  6  2  0
  5  4  2  0
  4  1  1  0
  5  6  1  0
  6  7  1  0
  7  8  1  0
  8  9  1  0
  9  5  1  0
  8 10  2  0
  9 11  2  0
 11 12  1  0
 12 13  1  0
 13 14  1  0
 14 15  1  0
 15 11  1  0
 13 16  2  0
 14 17  2  0
 17 18  1  0
 18 19  2  0
 19 25  1  0
 24 20  1  0
 20 21  2  0
 21 18  1  0
 12 22  1  0
 22 23  1  0
 24 25  2  0
 26 27  1  0
 20 26  1  0
 28 29  1  0
 24 28  1  0
 30 31  1  0
 25 30  1  0
 23 32  1  0
 32 33  1  0
 33 34  1  0
 33 35  1  0
 35 36  1  0
 34 37  1  0
M  END
>  <Classification>  (383) 
1

>  <pchembl>  (383) 
6.14

>  <InChI_steorem>  (383) 
InChI=1S/C28H33N3O5S/c1-6-30(7-2)13-10-14-31-27(33)23(17-18-15-21(34-3)25(36-5)22(16-18)35-4)37-28(31)24-19-11-8-9-12-20(19)29-26(24)32/h8-9,11-12,15-17H,6-7,10,13-14H2,1-5H3,(H,29,32)

>  <source>  (383) 
ChEMBL25

>  <source_id>  (383) 
25

>  <optional_reference>  (383) 
10.1016/j.ejmech.2015.06.002

>  <optional_origin>  (383) 
None

>  <target>  (383) 
MDR1

$$$$

     RDKit          2D

 38 41  0  0  0  0  0  0  0  0999 V2000
   -2.3155    0.7475    0.0000 C   0  0  0  0  0  0  0  0  0  0  0  0
   -2.3155   -0.7475    0.0000 C   0  0  0  0  0  0  0  0  0  0  0  0
   -1.0028   -1.5132    0.0000 C   0  0  0  0  0  0  0  0  0  0  0  0
   -1.0028    1.5132    0.0000 C   0  0  0  0  0  0  0  0  0  0  0  0
    0.2917    0.7475    0.0000 C   0  0  0  0  0  0  0  0  0  0  0  0
    0.2917   -0.7475    0.0000 C   0  0  0  0  0  0  0  0  0  0  0  0
    1.7138   -1.2033    0.0000 N   0  0  0  0  0  0  0  0  0  0  0  0
    2.5889    0.0182    0.0000 C   0  0  0  0  0  0  0  0  0  0  0  0
    1.7138    1.2033    0.0000 C   0  0  0  0  0  0  0  0  0  0  0  0
    3.7889    0.0269    0.0000 O   0  0  0  0  0  0  0  0  0  0  0  0
    2.1749    2.6315    0.0000 C   0  0  0  0  0  0  0  0  0  0  0  0
    1.3751    3.8801    0.0000 N   0  0  0  0  0  0  0  0  0  0  0  0
    2.3406    5.0280    0.0000 C   0  0  0  0  0  0  0  0  0  0  0  0
    3.7308    4.4644    0.0000 C   0  0  0  0  0  0  0  0  0  0  0  0
    3.6243    2.9682    0.0000 S   0  0  0  0  0  0  0  0  0  0  0  0
    2.0517    6.1927    0.0000 O   0  0  0  0  0  0  0  0  0  0  0  0
    5.0039    5.2543    0.0000 C   0  0  0  0  0  0  0  0  0  0  0  0
    6.3272    4.5462    0.0000 C   0  0  0  0  0  0  0  0  0  0  0  0
    7.6031    5.3351    0.0000 C   0  0  0  0  0  0  0  0  0  0  0  0
    7.6938    2.3364    0.0000 C   0  0  0  0  0  0  0  0  0  0  0  0
    6.3727    3.0468    0.0000 C   0  0  0  0  0  0  0  0  0  0  0  0
   -0.1200    3.9767    0.0000 C   0  0  0  0  0  0  0  0  0  0  0  0
   -0.7859    5.3217    0.0000 C   0  0  0  0  0  0  0  0  0  0  0  0
    8.9695    3.1254    0.0000 C   0  0  0  0  0  0  0  0  0  0  0  0
    8.9242    4.6247    0.0000 C   0  0  0  0  0  0  0  0  0  0  0  0
    7.7361    0.8362    0.0000 O   0  0  0  0  0  0  0  0  0  0  0  0
    6.7146    0.2065    0.0000 C   0  0  0  0  0  0  0  0  0  0  0  0
   10.2929    2.4173    0.0000 O   0  0  0  0  0  0  0  0  0  0  0  0
   11.3126    3.0499    0.0000 C   0  0  0  0  0  0  0  0  0  0  0  0
   10.1990    5.4167    0.0000 O   0  0  0  0  0  0  0  0  0  0  0  0
   10.1610    6.6161    0.0000 C   0  0  0  0  0  0  0  0  0  0  0  0
   -3.3560    1.3452    0.0000 C   0  0  0  0  0  0  0  0  0  0  0  0
   -2.2836    5.4185    0.0000 C   0  0  0  0  0  0  0  0  0  0  0  0
   -2.9496    6.7635    0.0000 N   0  0  0  0  0  0  0  0  0  0  0  0
   -4.4473    6.8602    0.0000 C   0  0  0  0  0  0  0  0  0  0  0  0
   -2.1199    8.0141    0.0000 C   0  0  0  0  0  0  0  0  0  0  0  0
   -2.6535    9.0889    0.0000 C   0  0  0  0  0  0  0  0  0  0  0  0
   -4.9797    7.9356    0.0000 C   0  0  0  0  0  0  0  0  0  0  0  0
  1  2  2  0
  2  3  1  0
  3  6  2  0
  5  4  2  0
  4  1  1  0
  5  6  1  0
  6  7  1  0
  7  8  1  0
  8  9  1  0
  9  5  1  0
  8 10  2  0
  9 11  2  0
 11 12  1  0
 12 13  1  0
 13 14  1  0
 14 15  1  0
 15 11  1  0
 13 16  2  0
 14 17  2  0
 17 18  1  0
 18 19  2  0
 19 25  1  0
 24 20  1  0
 20 21  2  0
 21 18  1  0
 12 22  1  0
 22 23  1  0
 24 25  2  0
 26 27  1  0
 20 26  1  0
 28 29  1  0
 24 28  1  0
 30 31  1  0
 25 30  1  0
  1 32  1  0
 23 33  1  0
 33 34  1  0
 34 35  1  0
 34 36  1  0
 36 37  1  0
 35 38  1  0
M  END
>  <Classification>  (384) 
1

>  <pchembl>  (384) 
6.5

>  <InChI_steorem>  (384) 
InChI=1S/C29H35N3O5S/c1-7-31(8-2)12-9-13-32-28(34)24(17-19-15-22(35-4)26(37-6)23(16-19)36-5)38-29(32)25-20-14-18(3)10-11-21(20)30-27(25)33/h10-11,14-17H,7-9,12-13H2,1-6H3,(H,30,33)

>  <source>  (384) 
ChEMBL25

>  <source_id>  (384) 
25

>  <optional_reference>  (384) 
10.1016/j.ejmech.2015.06.002

>  <optional_origin>  (384) 
None

>  <target>  (384) 
MDR1

$$$$

     RDKit          2D

 38 41  0  0  0  0  0  0  0  0999 V2000
   -2.3155    0.7475    0.0000 C   0  0  0  0  0  0  0  0  0  0  0  0
   -2.3155   -0.7475    0.0000 C   0  0  0  0  0  0  0  0  0  0  0  0
   -1.0028   -1.5132    0.0000 C   0  0  0  0  0  0  0  0  0  0  0  0
   -1.0028    1.5132    0.0000 C   0  0  0  0  0  0  0  0  0  0  0  0
    0.2917    0.7475    0.0000 C   0  0  0  0  0  0  0  0  0  0  0  0
    0.2917   -0.7475    0.0000 C   0  0  0  0  0  0  0  0  0  0  0  0
    1.7138   -1.2033    0.0000 N   0  0  0  0  0  0  0  0  0  0  0  0
    2.5889    0.0182    0.0000 C   0  0  0  0  0  0  0  0  0  0  0  0
    1.7138    1.2033    0.0000 C   0  0  0  0  0  0  0  0  0  0  0  0
    3.7889    0.0269    0.0000 O   0  0  0  0  0  0  0  0  0  0  0  0
    2.1749    2.6315    0.0000 C   0  0  0  0  0  0  0  0  0  0  0  0
    1.3751    3.8801    0.0000 N   0  0  0  0  0  0  0  0  0  0  0  0
    2.3406    5.0280    0.0000 C   0  0  0  0  0  0  0  0  0  0  0  0
    3.7308    4.4644    0.0000 C   0  0  0  0  0  0  0  0  0  0  0  0
    3.6243    2.9682    0.0000 S   0  0  0  0  0  0  0  0  0  0  0  0
    2.0517    6.1927    0.0000 O   0  0  0  0  0  0  0  0  0  0  0  0
    5.0039    5.2543    0.0000 C   0  0  0  0  0  0  0  0  0  0  0  0
    6.3272    4.5462    0.0000 C   0  0  0  0  0  0  0  0  0  0  0  0
    7.6031    5.3351    0.0000 C   0  0  0  0  0  0  0  0  0  0  0  0
    7.6938    2.3364    0.0000 C   0  0  0  0  0  0  0  0  0  0  0  0
    6.3727    3.0468    0.0000 C   0  0  0  0  0  0  0  0  0  0  0  0
   -0.1200    3.9767    0.0000 C   0  0  0  0  0  0  0  0  0  0  0  0
   -0.7859    5.3217    0.0000 C   0  0  0  0  0  0  0  0  0  0  0  0
    8.9695    3.1254    0.0000 C   0  0  0  0  0  0  0  0  0  0  0  0
    8.9242    4.6247    0.0000 C   0  0  0  0  0  0  0  0  0  0  0  0
    7.7361    0.8362    0.0000 O   0  0  0  0  0  0  0  0  0  0  0  0
    6.7146    0.2065    0.0000 C   0  0  0  0  0  0  0  0  0  0  0  0
   10.2929    2.4173    0.0000 O   0  0  0  0  0  0  0  0  0  0  0  0
   11.3126    3.0499    0.0000 C   0  0  0  0  0  0  0  0  0  0  0  0
   10.1990    5.4167    0.0000 O   0  0  0  0  0  0  0  0  0  0  0  0
   10.1610    6.6161    0.0000 C   0  0  0  0  0  0  0  0  0  0  0  0
   -3.3560    1.3452    0.0000 Cl  0  0  0  0  0  0  0  0  0  0  0  0
   -2.2836    5.4185    0.0000 C   0  0  0  0  0  0  0  0  0  0  0  0
   -2.9496    6.7635    0.0000 N   0  0  0  0  0  0  0  0  0  0  0  0
   -4.4473    6.8602    0.0000 C   0  0  0  0  0  0  0  0  0  0  0  0
   -2.1199    8.0141    0.0000 C   0  0  0  0  0  0  0  0  0  0  0  0
   -2.6535    9.0889    0.0000 C   0  0  0  0  0  0  0  0  0  0  0  0
   -4.9797    7.9356    0.0000 C   0  0  0  0  0  0  0  0  0  0  0  0
  1  2  2  0
  2  3  1  0
  3  6  2  0
  5  4  2  0
  4  1  1  0
  5  6  1  0
  6  7  1  0
  7  8  1  0
  8  9  1  0
  9  5  1  0
  8 10  2  0
  9 11  2  0
 11 12  1  0
 12 13  1  0
 13 14  1  0
 14 15  1  0
 15 11  1  0
 13 16  2  0
 14 17  2  0
 17 18  1  0
 18 19  2  0
 19 25  1  0
 24 20  1  0
 20 21  2  0
 21 18  1  0
 12 22  1  0
 22 23  1  0
 24 25  2  0
 26 27  1  0
 20 26  1  0
 28 29  1  0
 24 28  1  0
 30 31  1  0
 25 30  1  0
  1 32  1  0
 23 33  1  0
 33 34  1  0
 34 35  1  0
 34 36  1  0
 36 37  1  0
 35 38  1  0
M  END
>  <Classification>  (385) 
1

>  <pchembl>  (385) 
6.66

>  <InChI_steorem>  (385) 
InChI=1S/C28H32ClN3O5S/c1-6-31(7-2)11-8-12-32-27(34)23(15-17-13-21(35-3)25(37-5)22(14-17)36-4)38-28(32)24-19-16-18(29)9-10-20(19)30-26(24)33/h9-10,13-16H,6-8,11-12H2,1-5H3,(H,30,33)

>  <source>  (385) 
ChEMBL25

>  <source_id>  (385) 
25

>  <optional_reference>  (385) 
10.1016/j.ejmech.2015.06.002

>  <optional_origin>  (385) 
None

>  <target>  (385) 
MDR1

$$$$

     RDKit          2D

 38 41  0  0  0  0  0  0  0  0999 V2000
   -2.3155    0.7475    0.0000 C   0  0  0  0  0  0  0  0  0  0  0  0
   -2.3155   -0.7475    0.0000 C   0  0  0  0  0  0  0  0  0  0  0  0
   -1.0028   -1.5132    0.0000 C   0  0  0  0  0  0  0  0  0  0  0  0
   -1.0028    1.5132    0.0000 C   0  0  0  0  0  0  0  0  0  0  0  0
    0.2917    0.7475    0.0000 C   0  0  0  0  0  0  0  0  0  0  0  0
    0.2917   -0.7475    0.0000 C   0  0  0  0  0  0  0  0  0  0  0  0
    1.7138   -1.2033    0.0000 N   0  0  0  0  0  0  0  0  0  0  0  0
    2.5889    0.0182    0.0000 C   0  0  0  0  0  0  0  0  0  0  0  0
    1.7138    1.2033    0.0000 C   0  0  0  0  0  0  0  0  0  0  0  0
    3.7889    0.0269    0.0000 O   0  0  0  0  0  0  0  0  0  0  0  0
    2.1749    2.6315    0.0000 C   0  0  0  0  0  0  0  0  0  0  0  0
    1.3751    3.8801    0.0000 N   0  0  0  0  0  0  0  0  0  0  0  0
    2.3406    5.0280    0.0000 C   0  0  0  0  0  0  0  0  0  0  0  0
    3.7308    4.4644    0.0000 C   0  0  0  0  0  0  0  0  0  0  0  0
    3.6243    2.9682    0.0000 S   0  0  0  0  0  0  0  0  0  0  0  0
    2.0517    6.1927    0.0000 O   0  0  0  0  0  0  0  0  0  0  0  0
    5.0039    5.2543    0.0000 C   0  0  0  0  0  0  0  0  0  0  0  0
    6.3272    4.5462    0.0000 C   0  0  0  0  0  0  0  0  0  0  0  0
    7.6031    5.3351    0.0000 C   0  0  0  0  0  0  0  0  0  0  0  0
    7.6938    2.3364    0.0000 C   0  0  0  0  0  0  0  0  0  0  0  0
    6.3727    3.0468    0.0000 C   0  0  0  0  0  0  0  0  0  0  0  0
   -0.1200    3.9767    0.0000 C   0  0  0  0  0  0  0  0  0  0  0  0
   -0.7859    5.3217    0.0000 C   0  0  0  0  0  0  0  0  0  0  0  0
    8.9695    3.1254    0.0000 C   0  0  0  0  0  0  0  0  0  0  0  0
    8.9242    4.6247    0.0000 C   0  0  0  0  0  0  0  0  0  0  0  0
    7.7361    0.8362    0.0000 O   0  0  0  0  0  0  0  0  0  0  0  0
    6.7146    0.2065    0.0000 C   0  0  0  0  0  0  0  0  0  0  0  0
   10.2929    2.4173    0.0000 O   0  0  0  0  0  0  0  0  0  0  0  0
   11.3126    3.0499    0.0000 C   0  0  0  0  0  0  0  0  0  0  0  0
   10.1990    5.4167    0.0000 O   0  0  0  0  0  0  0  0  0  0  0  0
   10.1610    6.6161    0.0000 C   0  0  0  0  0  0  0  0  0  0  0  0
   -3.3560    1.3452    0.0000 F   0  0  0  0  0  0  0  0  0  0  0  0
   -2.2836    5.4185    0.0000 C   0  0  0  0  0  0  0  0  0  0  0  0
   -2.9496    6.7635    0.0000 N   0  0  0  0  0  0  0  0  0  0  0  0
   -4.4473    6.8602    0.0000 C   0  0  0  0  0  0  0  0  0  0  0  0
   -2.1199    8.0141    0.0000 C   0  0  0  0  0  0  0  0  0  0  0  0
   -2.6535    9.0889    0.0000 C   0  0  0  0  0  0  0  0  0  0  0  0
   -4.9797    7.9356    0.0000 C   0  0  0  0  0  0  0  0  0  0  0  0
  1  2  2  0
  2  3  1  0
  3  6  2  0
  5  4  2  0
  4  1  1  0
  5  6  1  0
  6  7  1  0
  7  8  1  0
  8  9  1  0
  9  5  1  0
  8 10  2  0
  9 11  2  0
 11 12  1  0
 12 13  1  0
 13 14  1  0
 14 15  1  0
 15 11  1  0
 13 16  2  0
 14 17  2  0
 17 18  1  0
 18 19  2  0
 19 25  1  0
 24 20  1  0
 20 21  2  0
 21 18  1  0
 12 22  1  0
 22 23  1  0
 24 25  2  0
 26 27  1  0
 20 26  1  0
 28 29  1  0
 24 28  1  0
 30 31  1  0
 25 30  1  0
  1 32  1  0
 23 33  1  0
 33 34  1  0
 34 35  1  0
 34 36  1  0
 36 37  1  0
 35 38  1  0
M  END
>  <Classification>  (386) 
1

>  <pchembl>  (386) 
6.92

>  <InChI_steorem>  (386) 
InChI=1S/C28H32FN3O5S/c1-6-31(7-2)11-8-12-32-27(34)23(15-17-13-21(35-3)25(37-5)22(14-17)36-4)38-28(32)24-19-16-18(29)9-10-20(19)30-26(24)33/h9-10,13-16H,6-8,11-12H2,1-5H3,(H,30,33)

>  <source>  (386) 
ChEMBL25

>  <source_id>  (386) 
25

>  <optional_reference>  (386) 
10.1016/j.ejmech.2015.06.002

>  <optional_origin>  (386) 
None

>  <target>  (386) 
MDR1

$$$$

     RDKit          2D

 38 41  0  0  0  0  0  0  0  0999 V2000
   -2.3155    0.7475    0.0000 C   0  0  0  0  0  0  0  0  0  0  0  0
   -2.3155   -0.7475    0.0000 C   0  0  0  0  0  0  0  0  0  0  0  0
   -1.0028   -1.5132    0.0000 C   0  0  0  0  0  0  0  0  0  0  0  0
   -1.0028    1.5132    0.0000 C   0  0  0  0  0  0  0  0  0  0  0  0
    0.2917    0.7475    0.0000 C   0  0  0  0  0  0  0  0  0  0  0  0
    0.2917   -0.7475    0.0000 C   0  0  0  0  0  0  0  0  0  0  0  0
    1.7138   -1.2033    0.0000 N   0  0  0  0  0  0  0  0  0  0  0  0
    2.5889    0.0182    0.0000 C   0  0  0  0  0  0  0  0  0  0  0  0
    1.7138    1.2033    0.0000 C   0  0  0  0  0  0  0  0  0  0  0  0
    3.7889    0.0269    0.0000 O   0  0  0  0  0  0  0  0  0  0  0  0
    2.1749    2.6315    0.0000 C   0  0  0  0  0  0  0  0  0  0  0  0
    1.3751    3.8801    0.0000 N   0  0  0  0  0  0  0  0  0  0  0  0
    2.3406    5.0280    0.0000 C   0  0  0  0  0  0  0  0  0  0  0  0
    3.7308    4.4644    0.0000 C   0  0  0  0  0  0  0  0  0  0  0  0
    3.6243    2.9682    0.0000 S   0  0  0  0  0  0  0  0  0  0  0  0
    2.0517    6.1927    0.0000 O   0  0  0  0  0  0  0  0  0  0  0  0
    5.0039    5.2543    0.0000 C   0  0  0  0  0  0  0  0  0  0  0  0
    6.3272    4.5462    0.0000 C   0  0  0  0  0  0  0  0  0  0  0  0
    7.6031    5.3351    0.0000 C   0  0  0  0  0  0  0  0  0  0  0  0
    7.6938    2.3364    0.0000 C   0  0  0  0  0  0  0  0  0  0  0  0
    6.3727    3.0468    0.0000 C   0  0  0  0  0  0  0  0  0  0  0  0
   -0.1200    3.9767    0.0000 C   0  0  0  0  0  0  0  0  0  0  0  0
   -0.7859    5.3217    0.0000 C   0  0  0  0  0  0  0  0  0  0  0  0
    8.9695    3.1254    0.0000 C   0  0  0  0  0  0  0  0  0  0  0  0
    8.9242    4.6247    0.0000 C   0  0  0  0  0  0  0  0  0  0  0  0
    7.7361    0.8362    0.0000 O   0  0  0  0  0  0  0  0  0  0  0  0
    6.7146    0.2065    0.0000 C   0  0  0  0  0  0  0  0  0  0  0  0
   10.2929    2.4173    0.0000 O   0  0  0  0  0  0  0  0  0  0  0  0
   11.3126    3.0499    0.0000 C   0  0  0  0  0  0  0  0  0  0  0  0
   10.1990    5.4167    0.0000 O   0  0  0  0  0  0  0  0  0  0  0  0
   10.1610    6.6161    0.0000 C   0  0  0  0  0  0  0  0  0  0  0  0
   -3.3560   -1.3452    0.0000 F   0  0  0  0  0  0  0  0  0  0  0  0
   -2.2836    5.4185    0.0000 C   0  0  0  0  0  0  0  0  0  0  0  0
   -2.9496    6.7635    0.0000 N   0  0  0  0  0  0  0  0  0  0  0  0
   -4.4473    6.8602    0.0000 C   0  0  0  0  0  0  0  0  0  0  0  0
   -2.1199    8.0141    0.0000 C   0  0  0  0  0  0  0  0  0  0  0  0
   -2.6535    9.0889    0.0000 C   0  0  0  0  0  0  0  0  0  0  0  0
   -4.9797    7.9356    0.0000 C   0  0  0  0  0  0  0  0  0  0  0  0
  1  2  2  0
  2  3  1  0
  3  6  2  0
  5  4  2  0
  4  1  1  0
  5  6  1  0
  6  7  1  0
  7  8  1  0
  8  9  1  0
  9  5  1  0
  8 10  2  0
  9 11  2  0
 11 12  1  0
 12 13  1  0
 13 14  1  0
 14 15  1  0
 15 11  1  0
 13 16  2  0
 14 17  2  0
 17 18  1  0
 18 19  2  0
 19 25  1  0
 24 20  1  0
 20 21  2  0
 21 18  1  0
 12 22  1  0
 22 23  1  0
 24 25  2  0
 26 27  1  0
 20 26  1  0
 28 29  1  0
 24 28  1  0
 30 31  1  0
 25 30  1  0
  2 32  1  0
 23 33  1  0
 33 34  1  0
 34 35  1  0
 34 36  1  0
 36 37  1  0
 35 38  1  0
M  END
>  <Classification>  (387) 
1

>  <pchembl>  (387) 
6.33

>  <InChI_steorem>  (387) 
InChI=1S/C28H32FN3O5S/c1-6-31(7-2)11-8-12-32-27(34)23(15-17-13-21(35-3)25(37-5)22(14-17)36-4)38-28(32)24-19-10-9-18(29)16-20(19)30-26(24)33/h9-10,13-16H,6-8,11-12H2,1-5H3,(H,30,33)

>  <source>  (387) 
ChEMBL25

>  <source_id>  (387) 
25

>  <optional_reference>  (387) 
10.1016/j.ejmech.2015.06.002

>  <optional_origin>  (387) 
None

>  <target>  (387) 
MDR1

$$$$

     RDKit          2D

 22 23  0  0  0  0  0  0  0  0999 V2000
   -3.7473    0.7750    0.0000 C   0  0  0  0  0  0  0  0  0  0  0  0
   -3.7484   -0.0523    0.0000 C   0  0  0  0  0  0  0  0  0  0  0  0
   -3.0336   -0.4652    0.0000 C   0  0  0  0  0  0  0  0  0  0  0  0
   -2.3172   -0.0519    0.0000 C   0  0  0  0  0  0  0  0  0  0  0  0
   -2.3200    0.7787    0.0000 C   0  0  0  0  0  0  0  0  0  0  0  0
   -3.0354    1.1878    0.0000 C   0  0  0  0  0  0  0  0  0  0  0  0
   -1.6071    1.1939    0.0000 C   0  0  0  0  0  0  0  0  0  0  0  0
   -0.8911    0.7841    0.0000 N   0  0  0  0  0  0  0  0  0  0  0  0
   -0.1782    1.1992    0.0000 C   0  0  0  0  0  0  0  0  0  0  0  0
    0.5362    0.7860    0.0000 C   0  0  0  0  0  0  0  0  0  0  0  0
    1.2487    1.2005    0.0000 C   0  0  0  0  0  0  0  0  0  0  0  0
    1.2460    2.0264    0.0000 C   0  0  0  0  0  0  0  0  0  0  0  0
    0.5250    2.4360    0.0000 C   0  0  0  0  0  0  0  0  0  0  0  0
   -0.1845    2.0192    0.0000 C   0  0  0  0  0  0  0  0  0  0  0  0
   -1.6102    2.0189    0.0000 O   0  0  0  0  0  0  0  0  0  0  0  0
   -3.0338   -1.2902    0.0000 O   0  0  0  0  0  0  0  0  0  0  0  0
   -3.7484   -1.7025    0.0000 C   0  0  0  0  0  0  0  0  0  0  0  0
   -4.4632   -0.4643    0.0000 O   0  0  0  0  0  0  0  0  0  0  0  0
   -5.1774   -0.0512    0.0000 C   0  0  0  0  0  0  0  0  0  0  0  0
   -4.4618    1.1874    0.0000 O   0  0  0  0  0  0  0  0  0  0  0  0
   -4.4620    2.0124    0.0000 C   0  0  0  0  0  0  0  0  0  0  0  0
    1.9584    2.4425    0.0000 Br  0  0  0  0  0  0  0  0  0  0  0  0
 10 11  2  0
  5  6  1  0
 11 12  1  0
  6  1  2  0
 12 13  2  0
  1  2  1  0
 13 14  1  0
 14  9  2  0
  5  7  1  0
  7 15  2  0
  3  4  1  0
  3 16  1  0
  7  8  1  0
 16 17  1  0
  2 18  1  0
  8  9  1  0
 18 19  1  0
  4  5  2  0
  1 20  1  0
  9 10  1  0
 20 21  1  0
  2  3  2  0
 12 22  1  0
M  END
>  <Classification>  (388) 
0

>  <pchembl>  (388) 
4.7

>  <InChI_steorem>  (388) 
InChI=1S/C16H16BrNO4/c1-20-13-8-10(9-14(21-2)15(13)22-3)16(19)18-12-6-4-11(17)5-7-12/h4-9H,1-3H3,(H,18,19)

>  <source>  (388) 
ChEMBL25

>  <source_id>  (388) 
25

>  <optional_reference>  (388) 
10.1021/jm201305y

>  <optional_origin>  (388) 
None

>  <target>  (388) 
MDR1

$$$$

     RDKit          2D

 23 24  0  0  0  0  0  0  0  0999 V2000
   14.2930   -5.7994    0.0000 C   0  0  0  0  0  0  0  0  0  0  0  0
   14.2918   -6.6266    0.0000 C   0  0  0  0  0  0  0  0  0  0  0  0
   15.0066   -7.0395    0.0000 C   0  0  0  0  0  0  0  0  0  0  0  0
   15.7229   -6.6262    0.0000 C   0  0  0  0  0  0  0  0  0  0  0  0
   15.7200   -5.7957    0.0000 C   0  0  0  0  0  0  0  0  0  0  0  0
   15.0048   -5.3867    0.0000 C   0  0  0  0  0  0  0  0  0  0  0  0
   16.4330   -5.3806    0.0000 C   0  0  0  0  0  0  0  0  0  0  0  0
   17.1489   -5.7903    0.0000 N   0  0  0  0  0  0  0  0  0  0  0  0
   17.8617   -5.3753    0.0000 C   0  0  0  0  0  0  0  0  0  0  0  0
   18.5761   -5.7884    0.0000 C   0  0  0  0  0  0  0  0  0  0  0  0
   19.2884   -5.3740    0.0000 C   0  0  0  0  0  0  0  0  0  0  0  0
   19.2858   -4.5481    0.0000 C   0  0  0  0  0  0  0  0  0  0  0  0
   18.5648   -4.1386    0.0000 C   0  0  0  0  0  0  0  0  0  0  0  0
   17.8554   -4.5553    0.0000 C   0  0  0  0  0  0  0  0  0  0  0  0
   16.4298   -4.5556    0.0000 O   0  0  0  0  0  0  0  0  0  0  0  0
   15.0064   -7.8644    0.0000 O   0  0  0  0  0  0  0  0  0  0  0  0
   13.5772   -7.0386    0.0000 O   0  0  0  0  0  0  0  0  0  0  0  0
   13.5785   -5.3871    0.0000 O   0  0  0  0  0  0  0  0  0  0  0  0
   18.5802   -6.6169    0.0000 N   0  0  0  0  0  0  0  0  0  0  0  0
   19.2951   -7.0285    0.0000 O   0  0  0  0  0  0  0  0  0  0  0  0
   17.8662   -7.0303    0.0000 O   0  0  0  0  0  0  0  0  0  0  0  0
   13.5783   -4.5621    0.0000 C   0  0  0  0  0  0  0  0  0  0  0  0
   19.9980   -4.1321    0.0000 Br  0  0  0  0  0  0  0  0  0  0  0  0
  5  6  1  0
 11 12  2  0
  6  1  2  0
 12 13  1  0
  1  2  1  0
 13 14  2  0
 14  9  1  0
  5  7  1  0
  7 15  2  0
  3  4  1  0
  3 16  1  0
  7  8  1  0
  2 17  1  0
  1 18  1  0
  8  9  1  0
  4  5  2  0
  9 10  2  0
 19 20  2  0
 19 21  1  0
 10 19  1  0
  2  3  2  0
 18 22  1  0
 10 11  1  0
 12 23  1  0
M  CHG  2  19   1  21  -1
M  END
>  <Classification>  (389) 
0

>  <pchembl>  (389) 
4.42

>  <InChI_steorem>  (389) 
InChI=1S/C14H11BrN2O6/c1-23-12-5-7(4-11(18)13(12)19)14(20)16-9-3-2-8(15)6-10(9)17(21)22/h2-6,18-19H,1H3,(H,16,20)

>  <source>  (389) 
ChEMBL25

>  <source_id>  (389) 
25

>  <optional_reference>  (389) 
10.1021/jm201305y

>  <optional_origin>  (389) 
None

>  <target>  (389) 
MDR1

$$$$

     RDKit          2D

 24 25  0  0  0  0  0  0  0  0999 V2000
   -4.4677  -12.9987    0.0000 C   0  0  0  0  0  0  0  0  0  0  0  0
   -4.4689  -13.8259    0.0000 C   0  0  0  0  0  0  0  0  0  0  0  0
   -3.7540  -14.2388    0.0000 C   0  0  0  0  0  0  0  0  0  0  0  0
   -3.0377  -13.8255    0.0000 C   0  0  0  0  0  0  0  0  0  0  0  0
   -3.0406  -12.9950    0.0000 C   0  0  0  0  0  0  0  0  0  0  0  0
   -3.7558  -12.5860    0.0000 C   0  0  0  0  0  0  0  0  0  0  0  0
   -2.3277  -12.5799    0.0000 C   0  0  0  0  0  0  0  0  0  0  0  0
   -1.6117  -12.9896    0.0000 N   0  0  0  0  0  0  0  0  0  0  0  0
   -0.8989  -12.5746    0.0000 C   0  0  0  0  0  0  0  0  0  0  0  0
   -0.1846  -12.9877    0.0000 C   0  0  0  0  0  0  0  0  0  0  0  0
    0.5277  -12.5733    0.0000 C   0  0  0  0  0  0  0  0  0  0  0  0
    0.5251  -11.7474    0.0000 C   0  0  0  0  0  0  0  0  0  0  0  0
   -0.1959  -11.3379    0.0000 C   0  0  0  0  0  0  0  0  0  0  0  0
   -0.9052  -11.7546    0.0000 C   0  0  0  0  0  0  0  0  0  0  0  0
   -2.3309  -11.7549    0.0000 O   0  0  0  0  0  0  0  0  0  0  0  0
   -3.7542  -15.0637    0.0000 O   0  0  0  0  0  0  0  0  0  0  0  0
   -5.1836  -14.2379    0.0000 O   0  0  0  0  0  0  0  0  0  0  0  0
   -5.1822  -12.5864    0.0000 O   0  0  0  0  0  0  0  0  0  0  0  0
   -0.1805  -13.8162    0.0000 N   0  0  0  0  0  0  0  0  0  0  0  0
    0.5344  -14.2278    0.0000 O   0  0  0  0  0  0  0  0  0  0  0  0
   -0.8944  -14.2296    0.0000 O   0  0  0  0  0  0  0  0  0  0  0  0
   -5.1824  -11.7614    0.0000 C   0  0  0  0  0  0  0  0  0  0  0  0
    1.2374  -11.3314    0.0000 O   0  0  0  0  0  0  0  0  0  0  0  0
    1.9539  -11.7401    0.0000 C   0  0  0  0  0  0  0  0  0  0  0  0
 11 12  2  0
  6  1  2  0
 12 13  1  0
  1  2  1  0
 13 14  2  0
 14  9  1  0
  5  7  1  0
  7 15  2  0
  3  4  1  0
  3 16  1  0
  7  8  1  0
  2 17  1  0
  1 18  1  0
  8  9  1  0
  4  5  2  0
  9 10  2  0
 19 20  2  0
 19 21  1  0
 10 19  1  0
  2  3  2  0
 18 22  1  0
 10 11  1  0
 12 23  1  0
  5  6  1  0
 23 24  1  0
M  CHG  2  19   1  21  -1
M  END
>  <Classification>  (390) 
0

>  <pchembl>  (390) 
4.19

>  <InChI_steorem>  (390) 
InChI=1S/C15H14N2O7/c1-23-9-3-4-10(11(7-9)17(21)22)16-15(20)8-5-12(18)14(19)13(6-8)24-2/h3-7,18-19H,1-2H3,(H,16,20)

>  <source>  (390) 
ChEMBL25

>  <source_id>  (390) 
25

>  <optional_reference>  (390) 
10.1021/jm201305y

>  <optional_origin>  (390) 
None

>  <target>  (390) 
MDR1

$$$$

     RDKit          2D

 24 26  0  0  0  0  0  0  0  0999 V2000
   15.3150   -0.1250    0.0000 N   0  0  0  0  0  0  0  0  0  0  0  0
   15.9815    0.3707    0.0000 C   0  0  0  0  0  0  0  0  0  0  0  0
   15.7316    1.1496    0.0000 C   0  0  0  0  0  0  0  0  0  0  0  0
   14.6528    0.3707    0.0000 C   0  0  0  0  0  0  0  0  0  0  0  0
   14.9027    1.1496    0.0000 C   0  0  0  0  0  0  0  0  0  0  0  0
   15.3150   -0.9496    0.0000 C   0  0  0  0  0  0  0  0  0  0  0  0
   16.2189    1.8201    0.0000 C   0  0  0  0  0  0  0  0  0  0  0  0
   13.8448    0.1957    0.0000 C   0  0  0  0  0  0  0  0  0  0  0  0
   14.6080   -1.3707    0.0000 C   0  0  0  0  0  0  0  0  0  0  0  0
   17.0394    1.7244    0.0000 C   0  0  0  0  0  0  0  0  0  0  0  0
   14.3529    1.7618    0.0000 C   0  0  0  0  0  0  0  0  0  0  0  0
   17.5267    2.3949    0.0000 O   0  0  0  0  0  0  0  0  0  0  0  0
   13.8842   -0.9668    0.0000 C   0  0  0  0  0  0  0  0  0  0  0  0
   14.6210   -2.1936    0.0000 C   0  0  0  0  0  0  0  0  0  0  0  0
   16.7645    0.1083    0.0000 C   0  0  0  0  0  0  0  0  0  0  0  0
   13.5449    1.5952    0.0000 C   0  0  0  0  0  0  0  0  0  0  0  0
   13.2825    0.8080    0.0000 C   0  0  0  0  0  0  0  0  0  0  0  0
   13.1901   -2.2109    0.0000 C   0  0  0  0  0  0  0  0  0  0  0  0
   17.3768    0.9746    0.0000 O   0  0  0  0  0  0  0  0  0  0  0  0
   13.9140   -2.6147    0.0000 C   0  0  0  0  0  0  0  0  0  0  0  0
   13.1770   -1.3880    0.0000 C   0  0  0  0  0  0  0  0  0  0  0  0
   12.4830   -2.6319    0.0000 Cl  0  0  0  0  0  0  0  0  0  0  0  0
   16.0321   -1.3572    0.0000 O   0  0  0  0  0  0  0  0  0  0  0  0
   16.9285   -0.6999    0.0000 C   0  0  0  0  0  0  0  0  0  0  0  0
  3  2  2  0
  4  1  1  0
  5  4  2  0
  6  1  1  0
  7  3  1  0
  8  4  1  0
  9  6  1  0
 10  7  1  0
 11  5  1  0
 12 10  2  0
 13  9  2  0
 14  9  1  0
 15  2  1  0
 16 17  1  0
 17  8  2  0
 18 20  1  0
 19 10  1  0
 20 14  2  0
 21 13  1  0
 22 18  1  0
  3  5  1  0
 21 18  2  0
 11 16  2  0
  6 23  2  0
  2  1  1  0
 15 24  1  0
M  END
>  <Classification>  (391) 
0

>  <pchembl>  (391) 
4.7

>  <InChI_steorem>  (391) 
InChI=1S/C19H16ClNO3/c1-2-16-15(11-18(22)23)14-5-3-4-6-17(14)21(16)19(24)12-7-9-13(20)10-8-12/h3-10H,2,11H2,1H3,(H,22,23)

>  <source>  (391) 
ChEMBL25

>  <source_id>  (391) 
25

>  <optional_reference>  (391) 
10.1021/jm301084z

>  <optional_origin>  (391) 
None

>  <target>  (391) 
MDR1

$$$$

     RDKit          2D

 26 28  0  0  0  0  0  0  0  0999 V2000
   15.7861   -7.6250    0.0000 C   0  0  0  0  0  0  0  0  0  0  0  0
   15.7849   -8.4523    0.0000 C   0  0  0  0  0  0  0  0  0  0  0  0
   16.4997   -8.8652    0.0000 C   0  0  0  0  0  0  0  0  0  0  0  0
   17.2162   -8.4519    0.0000 C   0  0  0  0  0  0  0  0  0  0  0  0
   17.2133   -7.6213    0.0000 C   0  0  0  0  0  0  0  0  0  0  0  0
   16.4979   -7.2122    0.0000 C   0  0  0  0  0  0  0  0  0  0  0  0
   17.9262   -7.2061    0.0000 C   0  0  0  0  0  0  0  0  0  0  0  0
   18.6422   -7.6159    0.0000 N   0  0  0  0  0  0  0  0  0  0  0  0
   19.3552   -7.2008    0.0000 C   0  0  0  0  0  0  0  0  0  0  0  0
   20.0696   -7.6140    0.0000 C   0  0  0  0  0  0  0  0  0  0  0  0
   20.7820   -7.1995    0.0000 C   0  0  0  0  0  0  0  0  0  0  0  0
   20.7793   -6.3736    0.0000 C   0  0  0  0  0  0  0  0  0  0  0  0
   20.0583   -5.9640    0.0000 C   0  0  0  0  0  0  0  0  0  0  0  0
   19.3488   -6.3808    0.0000 C   0  0  0  0  0  0  0  0  0  0  0  0
   17.9231   -6.3811    0.0000 O   0  0  0  0  0  0  0  0  0  0  0  0
   16.4995   -9.6902    0.0000 O   0  0  0  0  0  0  0  0  0  0  0  0
   15.0701   -8.8643    0.0000 O   0  0  0  0  0  0  0  0  0  0  0  0
   15.0715   -7.2126    0.0000 O   0  0  0  0  0  0  0  0  0  0  0  0
   21.4881   -5.9571    0.0000 C   0  0  0  0  0  0  0  0  0  0  0  0
   22.2049   -6.3677    0.0000 C   0  0  0  0  0  0  0  0  0  0  0  0
   22.9168   -5.9522    0.0000 C   0  0  0  0  0  0  0  0  0  0  0  0
   22.9130   -5.1263    0.0000 C   0  0  0  0  0  0  0  0  0  0  0  0
   22.1915   -4.7177    0.0000 C   0  0  0  0  0  0  0  0  0  0  0  0
   21.4825   -5.1355    0.0000 C   0  0  0  0  0  0  0  0  0  0  0  0
   15.0713   -6.3876    0.0000 C   0  0  0  0  0  0  0  0  0  0  0  0
   20.0706   -8.4390    0.0000 F   0  0  0  0  0  0  0  0  0  0  0  0
 12 13  1  0
  1  2  2  0
 13 14  2  0
 14  9  1  0
  5  7  1  0
  7 15  2  0
  3  4  2  0
  3 16  1  0
  7  8  1  0
  2 17  1  0
  1 18  1  0
  8  9  1  0
  4  5  1  0
 19 20  2  0
  9 10  2  0
 20 21  1  0
  2  3  1  0
 21 22  2  0
 10 11  1  0
 22 23  1  0
  5  6  2  0
 23 24  2  0
 24 19  1  0
 12 19  1  0
 11 12  2  0
 18 25  1  0
  6  1  1  0
 10 26  1  0
M  END
>  <Classification>  (392) 
0

>  <pchembl>  (392) 
4.85

>  <InChI_steorem>  (392) 
InChI=1S/C20H16FNO4/c1-26-18-11-14(10-17(23)19(18)24)20(25)22-16-8-7-13(9-15(16)21)12-5-3-2-4-6-12/h2-11,23-24H,1H3,(H,22,25)

>  <source>  (392) 
ChEMBL25

>  <source_id>  (392) 
25

>  <optional_reference>  (392) 
10.1021/jm201305y

>  <optional_origin>  (392) 
None

>  <target>  (392) 
MDR1

$$$$

     RDKit          2D

 26 28  0  0  0  0  0  0  0  0999 V2000
   -4.7598   -6.0750    0.0000 C   0  0  0  0  0  0  0  0  0  0  0  0
   -4.7609   -6.9023    0.0000 C   0  0  0  0  0  0  0  0  0  0  0  0
   -4.0461   -7.3152    0.0000 C   0  0  0  0  0  0  0  0  0  0  0  0
   -3.3297   -6.9019    0.0000 C   0  0  0  0  0  0  0  0  0  0  0  0
   -3.3325   -6.0713    0.0000 C   0  0  0  0  0  0  0  0  0  0  0  0
   -4.0479   -5.6622    0.0000 C   0  0  0  0  0  0  0  0  0  0  0  0
   -2.6196   -5.6561    0.0000 C   0  0  0  0  0  0  0  0  0  0  0  0
   -1.9036   -6.0659    0.0000 N   0  0  0  0  0  0  0  0  0  0  0  0
   -1.1907   -5.6508    0.0000 C   0  0  0  0  0  0  0  0  0  0  0  0
   -0.4763   -6.0640    0.0000 C   0  0  0  0  0  0  0  0  0  0  0  0
    0.2362   -5.6495    0.0000 C   0  0  0  0  0  0  0  0  0  0  0  0
    0.2335   -4.8236    0.0000 C   0  0  0  0  0  0  0  0  0  0  0  0
   -0.4875   -4.4140    0.0000 C   0  0  0  0  0  0  0  0  0  0  0  0
   -1.1970   -4.8308    0.0000 C   0  0  0  0  0  0  0  0  0  0  0  0
   -2.6227   -4.8311    0.0000 O   0  0  0  0  0  0  0  0  0  0  0  0
   -5.4757   -7.3143    0.0000 O   0  0  0  0  0  0  0  0  0  0  0  0
   -5.4743   -5.6626    0.0000 O   0  0  0  0  0  0  0  0  0  0  0  0
   -0.4722   -6.8926    0.0000 N   0  0  0  0  0  0  0  0  0  0  0  0
    0.2428   -7.3042    0.0000 O   0  0  0  0  0  0  0  0  0  0  0  0
   -1.1862   -7.3060    0.0000 O   0  0  0  0  0  0  0  0  0  0  0  0
    0.9422   -4.4071    0.0000 C   0  0  0  0  0  0  0  0  0  0  0  0
    1.6591   -4.8177    0.0000 C   0  0  0  0  0  0  0  0  0  0  0  0
    2.3710   -4.4022    0.0000 C   0  0  0  0  0  0  0  0  0  0  0  0
    2.3672   -3.5763    0.0000 C   0  0  0  0  0  0  0  0  0  0  0  0
    1.6456   -3.1677    0.0000 C   0  0  0  0  0  0  0  0  0  0  0  0
    0.9367   -3.5855    0.0000 C   0  0  0  0  0  0  0  0  0  0  0  0
 12 13  1  0
  1  2  2  0
 13 14  2  0
 14  9  1  0
  5  7  1  0
  7 15  2  0
  3  4  2  0
  2 16  1  0
  7  8  1  0
  1 17  1  0
  8  9  1  0
  4  5  1  0
 18 19  2  0
 18 20  1  0
 10 18  1  0
  9 10  2  0
  2  3  1  0
 21 22  2  0
 10 11  1  0
 22 23  1  0
  5  6  2  0
 23 24  2  0
 11 12  2  0
 24 25  1  0
  6  1  1  0
 25 26  2  0
 26 21  1  0
 12 21  1  0
M  CHG  2  18   1  20  -1
M  END
>  <Classification>  (393) 
0

>  <pchembl>  (393) 
4.39

>  <InChI_steorem>  (393) 
InChI=1S/C19H14N2O5/c22-17-9-7-14(11-18(17)23)19(24)20-15-8-6-13(10-16(15)21(25)26)12-4-2-1-3-5-12/h1-11,22-23H,(H,20,24)

>  <source>  (393) 
ChEMBL25

>  <source_id>  (393) 
25

>  <optional_reference>  (393) 
10.1021/jm201305y

>  <optional_origin>  (393) 
None

>  <target>  (393) 
MDR1

$$$$

     RDKit          2D

 26 28  0  0  0  0  0  0  0  0999 V2000
    4.9236   -5.6041    0.0000 C   0  0  0  0  0  0  0  0  0  0  0  0
    4.9224   -6.4315    0.0000 C   0  0  0  0  0  0  0  0  0  0  0  0
    5.6372   -6.8444    0.0000 C   0  0  0  0  0  0  0  0  0  0  0  0
    6.3537   -6.4310    0.0000 C   0  0  0  0  0  0  0  0  0  0  0  0
    6.3508   -5.6005    0.0000 C   0  0  0  0  0  0  0  0  0  0  0  0
    5.6354   -5.1914    0.0000 C   0  0  0  0  0  0  0  0  0  0  0  0
    7.0637   -5.1853    0.0000 C   0  0  0  0  0  0  0  0  0  0  0  0
    7.7797   -5.5951    0.0000 N   0  0  0  0  0  0  0  0  0  0  0  0
    8.4927   -5.1799    0.0000 C   0  0  0  0  0  0  0  0  0  0  0  0
    9.2071   -5.5932    0.0000 C   0  0  0  0  0  0  0  0  0  0  0  0
    9.9195   -5.1787    0.0000 C   0  0  0  0  0  0  0  0  0  0  0  0
    9.9168   -4.3528    0.0000 C   0  0  0  0  0  0  0  0  0  0  0  0
    9.1958   -3.9432    0.0000 C   0  0  0  0  0  0  0  0  0  0  0  0
    8.4863   -4.3600    0.0000 C   0  0  0  0  0  0  0  0  0  0  0  0
    7.0606   -4.3603    0.0000 O   0  0  0  0  0  0  0  0  0  0  0  0
    5.6370   -7.6694    0.0000 O   0  0  0  0  0  0  0  0  0  0  0  0
    4.2090   -5.1918    0.0000 O   0  0  0  0  0  0  0  0  0  0  0  0
    9.2111   -6.4217    0.0000 N   0  0  0  0  0  0  0  0  0  0  0  0
    9.9261   -6.8333    0.0000 O   0  0  0  0  0  0  0  0  0  0  0  0
    8.4972   -6.8351    0.0000 O   0  0  0  0  0  0  0  0  0  0  0  0
   10.6256   -3.9363    0.0000 C   0  0  0  0  0  0  0  0  0  0  0  0
   11.3424   -4.3468    0.0000 C   0  0  0  0  0  0  0  0  0  0  0  0
   12.0543   -3.9314    0.0000 C   0  0  0  0  0  0  0  0  0  0  0  0
   12.0505   -3.1055    0.0000 C   0  0  0  0  0  0  0  0  0  0  0  0
   11.3290   -2.6969    0.0000 C   0  0  0  0  0  0  0  0  0  0  0  0
   10.6200   -3.1147    0.0000 C   0  0  0  0  0  0  0  0  0  0  0  0
 12 13  1  0
  1  2  2  0
 13 14  2  0
 14  9  1  0
  5  7  1  0
  7 15  2  0
  3  4  2  0
  3 16  1  0
  7  8  1  0
  1 17  1  0
  8  9  1  0
  4  5  1  0
 18 19  2  0
 18 20  1  0
 10 18  1  0
  9 10  2  0
  2  3  1  0
 21 22  2  0
 10 11  1  0
 22 23  1  0
  5  6  2  0
 23 24  2  0
 11 12  2  0
 24 25  1  0
  6  1  1  0
 25 26  2  0
 26 21  1  0
 12 21  1  0
M  CHG  2  18   1  20  -1
M  END
>  <Classification>  (394) 
0

>  <pchembl>  (394) 
4.14

>  <InChI_steorem>  (394) 
InChI=1S/C19H14N2O5/c22-15-8-14(9-16(23)11-15)19(24)20-17-7-6-13(10-18(17)21(25)26)12-4-2-1-3-5-12/h1-11,22-23H,(H,20,24)

>  <source>  (394) 
ChEMBL25

>  <source_id>  (394) 
25

>  <optional_reference>  (394) 
10.1021/jm201305y

>  <optional_origin>  (394) 
None

>  <target>  (394) 
MDR1

$$$$

     RDKit          2D

 27 29  0  0  0  0  0  0  0  0999 V2000
   14.8611  -12.4833    0.0000 C   0  0  0  0  0  0  0  0  0  0  0  0
   14.8599  -13.3107    0.0000 C   0  0  0  0  0  0  0  0  0  0  0  0
   15.5747  -13.7235    0.0000 C   0  0  0  0  0  0  0  0  0  0  0  0
   16.2912  -13.3102    0.0000 C   0  0  0  0  0  0  0  0  0  0  0  0
   16.2883  -12.4797    0.0000 C   0  0  0  0  0  0  0  0  0  0  0  0
   15.5729  -12.0705    0.0000 C   0  0  0  0  0  0  0  0  0  0  0  0
   17.0012  -12.0645    0.0000 C   0  0  0  0  0  0  0  0  0  0  0  0
   17.7172  -12.4743    0.0000 N   0  0  0  0  0  0  0  0  0  0  0  0
   18.4302  -12.0591    0.0000 C   0  0  0  0  0  0  0  0  0  0  0  0
   19.1446  -12.4723    0.0000 C   0  0  0  0  0  0  0  0  0  0  0  0
   19.8570  -12.0578    0.0000 C   0  0  0  0  0  0  0  0  0  0  0  0
   19.8543  -11.2319    0.0000 C   0  0  0  0  0  0  0  0  0  0  0  0
   19.1333  -10.8223    0.0000 C   0  0  0  0  0  0  0  0  0  0  0  0
   18.4238  -11.2392    0.0000 C   0  0  0  0  0  0  0  0  0  0  0  0
   16.9981  -11.2395    0.0000 O   0  0  0  0  0  0  0  0  0  0  0  0
   15.5745  -14.5485    0.0000 O   0  0  0  0  0  0  0  0  0  0  0  0
   14.1451  -13.7226    0.0000 O   0  0  0  0  0  0  0  0  0  0  0  0
   14.1465  -12.0710    0.0000 O   0  0  0  0  0  0  0  0  0  0  0  0
   19.1486  -13.3009    0.0000 N   0  0  0  0  0  0  0  0  0  0  0  0
   19.8636  -13.7125    0.0000 O   0  0  0  0  0  0  0  0  0  0  0  0
   18.4347  -13.7143    0.0000 O   0  0  0  0  0  0  0  0  0  0  0  0
   14.1463  -11.2460    0.0000 C   0  0  0  0  0  0  0  0  0  0  0  0
   20.5681  -10.8125    0.0000 C   0  0  0  0  0  0  0  0  0  0  0  0
   21.3235  -11.1442    0.0000 S   0  0  0  0  0  0  0  0  0  0  0  0
   21.8724  -10.5282    0.0000 C   0  0  0  0  0  0  0  0  0  0  0  0
   21.4562   -9.8158    0.0000 C   0  0  0  0  0  0  0  0  0  0  0  0
   20.6502   -9.9916    0.0000 C   0  0  0  0  0  0  0  0  0  0  0  0
  1  2  2  0
 13 14  2  0
 14  9  1  0
  5  7  1  0
  7 15  2  0
  3  4  2  0
  3 16  1  0
  7  8  1  0
  2 17  1  0
  1 18  1  0
  8  9  1  0
  4  5  1  0
  9 10  2  0
 19 20  2  0
 19 21  1  0
 10 19  1  0
  2  3  1  0
 18 22  1  0
 23 24  1  0
 10 11  1  0
  5  6  2  0
 11 12  2  0
  6  1  1  0
 12 13  1  0
 24 25  1  0
 25 26  2  0
 26 27  1  0
 27 23  2  0
 12 23  1  0
M  CHG  2  19   1  21  -1
M  END
>  <Classification>  (395) 
0

>  <pchembl>  (395) 
4.51

>  <InChI_steorem>  (395) 
InChI=1S/C18H14N2O6S/c1-26-15-9-11(8-14(21)17(15)22)18(23)19-12-5-4-10(7-13(12)20(24)25)16-3-2-6-27-16/h2-9,21-22H,1H3,(H,19,23)

>  <source>  (395) 
ChEMBL25

>  <source_id>  (395) 
25

>  <optional_reference>  (395) 
10.1021/jm201305y

>  <optional_origin>  (395) 
None

>  <target>  (395) 
MDR1

$$$$

     RDKit          2D

 27 29  0  0  0  0  0  0  0  0999 V2000
   15.6652  -14.4958    0.0000 C   0  0  0  0  0  0  0  0  0  0  0  0
   15.6641  -15.3232    0.0000 C   0  0  0  0  0  0  0  0  0  0  0  0
   16.3789  -15.7360    0.0000 C   0  0  0  0  0  0  0  0  0  0  0  0
   17.0953  -15.3227    0.0000 C   0  0  0  0  0  0  0  0  0  0  0  0
   17.0925  -14.4922    0.0000 C   0  0  0  0  0  0  0  0  0  0  0  0
   16.3771  -14.0830    0.0000 C   0  0  0  0  0  0  0  0  0  0  0  0
   17.8054  -14.0770    0.0000 C   0  0  0  0  0  0  0  0  0  0  0  0
   18.5214  -14.4868    0.0000 N   0  0  0  0  0  0  0  0  0  0  0  0
   19.2343  -14.0716    0.0000 C   0  0  0  0  0  0  0  0  0  0  0  0
   19.9488  -14.4848    0.0000 C   0  0  0  0  0  0  0  0  0  0  0  0
   20.6612  -14.0703    0.0000 C   0  0  0  0  0  0  0  0  0  0  0  0
   20.6585  -13.2444    0.0000 C   0  0  0  0  0  0  0  0  0  0  0  0
   19.9375  -12.8348    0.0000 C   0  0  0  0  0  0  0  0  0  0  0  0
   19.2280  -13.2517    0.0000 C   0  0  0  0  0  0  0  0  0  0  0  0
   16.3787  -16.5610    0.0000 O   0  0  0  0  0  0  0  0  0  0  0  0
   14.9493  -15.7351    0.0000 O   0  0  0  0  0  0  0  0  0  0  0  0
   14.9507  -14.0835    0.0000 O   0  0  0  0  0  0  0  0  0  0  0  0
   21.3672  -12.8279    0.0000 C   0  0  0  0  0  0  0  0  0  0  0  0
   22.0841  -13.2385    0.0000 C   0  0  0  0  0  0  0  0  0  0  0  0
   22.7960  -12.8231    0.0000 C   0  0  0  0  0  0  0  0  0  0  0  0
   22.7922  -11.9972    0.0000 C   0  0  0  0  0  0  0  0  0  0  0  0
   22.0706  -11.5885    0.0000 C   0  0  0  0  0  0  0  0  0  0  0  0
   21.3617  -12.0063    0.0000 C   0  0  0  0  0  0  0  0  0  0  0  0
   19.9528  -15.3134    0.0000 N   0  0  0  0  0  0  0  0  0  0  0  0
   20.6678  -15.7250    0.0000 O   0  0  0  0  0  0  0  0  0  0  0  0
   19.2388  -15.7268    0.0000 O   0  0  0  0  0  0  0  0  0  0  0  0
   14.2363  -14.4961    0.0000 C   0  0  0  0  0  0  0  0  0  0  0  0
  1  2  2  0
 13 14  2  0
 14  9  1  0
  5  7  1  0
  3 15  1  0
  3  4  2  0
  2 16  1  0
  7  8  1  0
  1 17  1  0
  8  9  1  0
 18 19  2  0
  4  5  1  0
 19 20  1  0
  9 10  2  0
 20 21  2  0
  2  3  1  0
 21 22  1  0
 10 11  1  0
 22 23  2  0
 23 18  1  0
 12 18  1  0
  5  6  2  0
 11 12  2  0
  6  1  1  0
 24 25  2  0
 24 26  1  0
 10 24  1  0
 12 13  1  0
 17 27  1  0
M  CHG  2  24   1  26  -1
M  END
>  <Classification>  (396) 
0

>  <pchembl>  (396) 
4.14

>  <InChI_steorem>  (396) 
InChI=1S/C20H18N2O5/c1-27-19-10-13(9-18(23)20(19)24)12-21-16-8-7-15(11-17(16)22(25)26)14-5-3-2-4-6-14/h2-11,21,23-24H,12H2,1H3

>  <source>  (396) 
ChEMBL25

>  <source_id>  (396) 
25

>  <optional_reference>  (396) 
10.1021/jm201305y

>  <optional_origin>  (396) 
None

>  <target>  (396) 
MDR1

$$$$

     RDKit          2D

 27 29  0  0  0  0  0  0  0  0999 V2000
    6.2902  -13.5916    0.0000 C   0  0  0  0  0  0  0  0  0  0  0  0
    6.2891  -14.4190    0.0000 C   0  0  0  0  0  0  0  0  0  0  0  0
    7.0039  -14.8319    0.0000 C   0  0  0  0  0  0  0  0  0  0  0  0
    7.7203  -14.4185    0.0000 C   0  0  0  0  0  0  0  0  0  0  0  0
    7.7175  -13.5880    0.0000 C   0  0  0  0  0  0  0  0  0  0  0  0
    7.0021  -13.1789    0.0000 C   0  0  0  0  0  0  0  0  0  0  0  0
    8.4304  -13.1728    0.0000 C   0  0  0  0  0  0  0  0  0  0  0  0
    9.1464  -13.5826    0.0000 N   0  0  0  0  0  0  0  0  0  0  0  0
    9.8593  -13.1674    0.0000 C   0  0  0  0  0  0  0  0  0  0  0  0
   10.5738  -13.5807    0.0000 C   0  0  0  0  0  0  0  0  0  0  0  0
   11.2862  -13.1662    0.0000 C   0  0  0  0  0  0  0  0  0  0  0  0
   11.2835  -12.3403    0.0000 C   0  0  0  0  0  0  0  0  0  0  0  0
   10.5625  -11.9307    0.0000 C   0  0  0  0  0  0  0  0  0  0  0  0
    9.8530  -12.3475    0.0000 C   0  0  0  0  0  0  0  0  0  0  0  0
    8.4273  -12.3478    0.0000 O   0  0  0  0  0  0  0  0  0  0  0  0
    5.5743  -14.8309    0.0000 O   0  0  0  0  0  0  0  0  0  0  0  0
    5.5757  -13.1793    0.0000 O   0  0  0  0  0  0  0  0  0  0  0  0
   11.9922  -11.9238    0.0000 C   0  0  0  0  0  0  0  0  0  0  0  0
   12.7091  -12.3343    0.0000 C   0  0  0  0  0  0  0  0  0  0  0  0
   13.4210  -11.9189    0.0000 C   0  0  0  0  0  0  0  0  0  0  0  0
   13.4172  -11.0930    0.0000 C   0  0  0  0  0  0  0  0  0  0  0  0
   12.6956  -10.6844    0.0000 C   0  0  0  0  0  0  0  0  0  0  0  0
   11.9867  -11.1022    0.0000 C   0  0  0  0  0  0  0  0  0  0  0  0
   10.5778  -14.4092    0.0000 N   0  0  0  0  0  0  0  0  0  0  0  0
   11.2928  -14.8208    0.0000 O   0  0  0  0  0  0  0  0  0  0  0  0
    9.8638  -14.8226    0.0000 O   0  0  0  0  0  0  0  0  0  0  0  0
    4.8601  -14.4179    0.0000 C   0  0  0  0  0  0  0  0  0  0  0  0
  1  2  2  0
 13 14  2  0
 14  9  1  0
  5  7  1  0
  7 15  2  0
  3  4  2  0
  2 16  1  0
  7  8  1  0
  1 17  1  0
  8  9  1  0
 18 19  2  0
  4  5  1  0
 19 20  1  0
  9 10  2  0
 20 21  2  0
  2  3  1  0
 21 22  1  0
 10 11  1  0
 22 23  2  0
 23 18  1  0
 12 18  1  0
  5  6  2  0
 11 12  2  0
  6  1  1  0
 24 25  2  0
 24 26  1  0
 10 24  1  0
 12 13  1  0
 16 27  1  0
M  CHG  2  24   1  26  -1
M  END
>  <Classification>  (397) 
1

>  <pchembl>  (397) 
5.46

>  <InChI_steorem>  (397) 
InChI=1S/C20H16N2O5/c1-27-19-10-8-15(12-18(19)23)20(24)21-16-9-7-14(11-17(16)22(25)26)13-5-3-2-4-6-13/h2-12,23H,1H3,(H,21,24)

>  <source>  (397) 
ChEMBL25

>  <source_id>  (397) 
25

>  <optional_reference>  (397) 
10.1021/jm201305y

>  <optional_origin>  (397) 
None

>  <target>  (397) 
MDR1

$$$$

     RDKit          2D

 28 30  0  0  0  0  0  0  0  0999 V2000
   14.6152   -0.5375    0.0000 C   0  0  0  0  0  0  0  0  0  0  0  0
   14.6141   -1.3648    0.0000 C   0  0  0  0  0  0  0  0  0  0  0  0
   15.3289   -1.7777    0.0000 C   0  0  0  0  0  0  0  0  0  0  0  0
   16.0453   -1.3644    0.0000 C   0  0  0  0  0  0  0  0  0  0  0  0
   16.0425   -0.5338    0.0000 C   0  0  0  0  0  0  0  0  0  0  0  0
   15.3271   -0.1247    0.0000 C   0  0  0  0  0  0  0  0  0  0  0  0
   16.7554   -0.1186    0.0000 C   0  0  0  0  0  0  0  0  0  0  0  0
   17.4714   -0.5284    0.0000 N   0  0  0  0  0  0  0  0  0  0  0  0
   18.1843   -0.1133    0.0000 C   0  0  0  0  0  0  0  0  0  0  0  0
   18.8988   -0.5265    0.0000 C   0  0  0  0  0  0  0  0  0  0  0  0
   19.6112   -0.1120    0.0000 C   0  0  0  0  0  0  0  0  0  0  0  0
   19.6085    0.7139    0.0000 C   0  0  0  0  0  0  0  0  0  0  0  0
   18.8875    1.1235    0.0000 C   0  0  0  0  0  0  0  0  0  0  0  0
   18.1780    0.7067    0.0000 C   0  0  0  0  0  0  0  0  0  0  0  0
   16.7523    0.7064    0.0000 O   0  0  0  0  0  0  0  0  0  0  0  0
   20.3172    1.1304    0.0000 C   0  0  0  0  0  0  0  0  0  0  0  0
   21.0341    0.7198    0.0000 C   0  0  0  0  0  0  0  0  0  0  0  0
   21.7460    1.1353    0.0000 C   0  0  0  0  0  0  0  0  0  0  0  0
   21.7422    1.9612    0.0000 C   0  0  0  0  0  0  0  0  0  0  0  0
   21.0206    2.3698    0.0000 C   0  0  0  0  0  0  0  0  0  0  0  0
   20.3117    1.9520    0.0000 C   0  0  0  0  0  0  0  0  0  0  0  0
   15.3287   -2.6027    0.0000 O   0  0  0  0  0  0  0  0  0  0  0  0
   14.6141   -3.0150    0.0000 C   0  0  0  0  0  0  0  0  0  0  0  0
   13.8993   -1.7768    0.0000 O   0  0  0  0  0  0  0  0  0  0  0  0
   13.1851   -1.3637    0.0000 C   0  0  0  0  0  0  0  0  0  0  0  0
   13.9007   -0.1251    0.0000 O   0  0  0  0  0  0  0  0  0  0  0  0
   13.9005    0.6999    0.0000 C   0  0  0  0  0  0  0  0  0  0  0  0
   18.8998   -1.3515    0.0000 N   0  0  0  0  0  0  0  0  0  0  0  0
 13 14  2  0
 14  9  1  0
  5  7  1  0
  7 15  2  0
  3  4  1  0
  7  8  1  0
 16 17  2  0
 17 18  1  0
  8  9  1  0
 18 19  2  0
  4  5  2  0
 19 20  1  0
  9 10  2  0
 20 21  2  0
 21 16  1  0
 12 16  1  0
  2  3  2  0
  3 22  1  0
 10 11  1  0
 22 23  1  0
  5  6  1  0
  2 24  1  0
 11 12  2  0
 24 25  1  0
  6  1  2  0
  1 26  1  0
 12 13  1  0
 26 27  1  0
  1  2  1  0
 10 28  1  0
M  END
>  <Classification>  (398) 
1

>  <pchembl>  (398) 
5.14

>  <InChI_steorem>  (398) 
InChI=1S/C22H22N2O4/c1-26-19-12-16(13-20(27-2)21(19)28-3)22(25)24-18-10-9-15(11-17(18)23)14-7-5-4-6-8-14/h4-13H,23H2,1-3H3,(H,24,25)

>  <source>  (398) 
ChEMBL25

>  <source_id>  (398) 
25

>  <optional_reference>  (398) 
10.1021/jm201305y

>  <optional_origin>  (398) 
None

>  <target>  (398) 
MDR1

$$$$

     RDKit          2D

 28 30  0  0  0  0  0  0  0  0999 V2000
   15.3527   -0.6666    0.0000 C   0  0  0  0  0  0  0  0  0  0  0  0
   15.3516   -1.4940    0.0000 C   0  0  0  0  0  0  0  0  0  0  0  0
   16.0664   -1.9069    0.0000 C   0  0  0  0  0  0  0  0  0  0  0  0
   16.7828   -1.4935    0.0000 C   0  0  0  0  0  0  0  0  0  0  0  0
   16.7800   -0.6630    0.0000 C   0  0  0  0  0  0  0  0  0  0  0  0
   16.0646   -0.2539    0.0000 C   0  0  0  0  0  0  0  0  0  0  0  0
   17.4929   -0.2478    0.0000 C   0  0  0  0  0  0  0  0  0  0  0  0
   18.2089   -0.6576    0.0000 N   0  0  0  0  0  0  0  0  0  0  0  0
   18.9218   -0.2424    0.0000 C   0  0  0  0  0  0  0  0  0  0  0  0
   19.6363   -0.6557    0.0000 C   0  0  0  0  0  0  0  0  0  0  0  0
   20.3487   -0.2412    0.0000 C   0  0  0  0  0  0  0  0  0  0  0  0
   20.3460    0.5847    0.0000 C   0  0  0  0  0  0  0  0  0  0  0  0
   19.6250    0.9943    0.0000 C   0  0  0  0  0  0  0  0  0  0  0  0
   18.9155    0.5775    0.0000 C   0  0  0  0  0  0  0  0  0  0  0  0
   17.4898    0.5772    0.0000 O   0  0  0  0  0  0  0  0  0  0  0  0
   16.0662   -2.7319    0.0000 O   0  0  0  0  0  0  0  0  0  0  0  0
   14.6368   -1.9059    0.0000 O   0  0  0  0  0  0  0  0  0  0  0  0
   14.6382   -0.2543    0.0000 O   0  0  0  0  0  0  0  0  0  0  0  0
   21.0547    1.0012    0.0000 C   0  0  0  0  0  0  0  0  0  0  0  0
   21.7716    0.5907    0.0000 C   0  0  0  0  0  0  0  0  0  0  0  0
   22.4835    1.0061    0.0000 C   0  0  0  0  0  0  0  0  0  0  0  0
   22.4797    1.8320    0.0000 C   0  0  0  0  0  0  0  0  0  0  0  0
   21.7581    2.2406    0.0000 C   0  0  0  0  0  0  0  0  0  0  0  0
   21.0492    1.8228    0.0000 C   0  0  0  0  0  0  0  0  0  0  0  0
   14.6380    0.5707    0.0000 C   0  0  0  0  0  0  0  0  0  0  0  0
   23.2054    0.5962    0.0000 N   0  0  0  0  0  0  0  0  0  0  0  0
   23.9179    1.0120    0.0000 O   0  0  0  0  0  0  0  0  0  0  0  0
   23.2092   -0.2288    0.0000 O   0  0  0  0  0  0  0  0  0  0  0  0
 13 14  2  0
 14  9  1  0
  5  7  1  0
  7 15  2  0
  3  4  1  0
  3 16  1  0
  7  8  1  0
  2 17  1  0
  1 18  1  0
  8  9  1  0
  4  5  2  0
 19 20  2  0
  9 10  2  0
 20 21  1  0
  2  3  2  0
 21 22  2  0
 10 11  1  0
 22 23  1  0
  5  6  1  0
 23 24  2  0
 24 19  1  0
 12 19  1  0
 11 12  2  0
 18 25  1  0
  6  1  2  0
 12 13  1  0
  1  2  1  0
 26 27  2  0
 26 28  1  0
 21 26  1  0
M  CHG  2  26   1  28  -1
M  END
>  <Classification>  (399) 
0

>  <pchembl>  (399) 
4.49

>  <InChI_steorem>  (399) 
InChI=1S/C20H16N2O6/c1-28-18-11-14(10-17(23)19(18)24)20(25)21-15-7-5-12(6-8-15)13-3-2-4-16(9-13)22(26)27/h2-11,23-24H,1H3,(H,21,25)

>  <source>  (399) 
ChEMBL25

>  <source_id>  (399) 
25

>  <optional_reference>  (399) 
10.1021/jm201305y

>  <optional_origin>  (399) 
None

>  <target>  (399) 
MDR1

$$$$

     RDKit          2D

 28 30  0  0  0  0  0  0  0  0999 V2000
   -3.3348  -14.2583    0.0000 C   0  0  0  0  0  0  0  0  0  0  0  0
   -3.3359  -15.0857    0.0000 C   0  0  0  0  0  0  0  0  0  0  0  0
   -2.6211  -15.4985    0.0000 C   0  0  0  0  0  0  0  0  0  0  0  0
   -1.9047  -15.0852    0.0000 C   0  0  0  0  0  0  0  0  0  0  0  0
   -1.9075  -14.2547    0.0000 C   0  0  0  0  0  0  0  0  0  0  0  0
   -2.6229  -13.8455    0.0000 C   0  0  0  0  0  0  0  0  0  0  0  0
   -1.1946  -13.8395    0.0000 C   0  0  0  0  0  0  0  0  0  0  0  0
   -0.4786  -14.2493    0.0000 N   0  0  0  0  0  0  0  0  0  0  0  0
    0.2343  -13.8341    0.0000 C   0  0  0  0  0  0  0  0  0  0  0  0
    0.9487  -14.2473    0.0000 C   0  0  0  0  0  0  0  0  0  0  0  0
    1.6612  -13.8328    0.0000 C   0  0  0  0  0  0  0  0  0  0  0  0
    1.6585  -13.0069    0.0000 C   0  0  0  0  0  0  0  0  0  0  0  0
    0.9375  -12.5973    0.0000 C   0  0  0  0  0  0  0  0  0  0  0  0
    0.2280  -13.0142    0.0000 C   0  0  0  0  0  0  0  0  0  0  0  0
   -1.1977  -13.0145    0.0000 O   0  0  0  0  0  0  0  0  0  0  0  0
   -4.0507  -15.4976    0.0000 O   0  0  0  0  0  0  0  0  0  0  0  0
   -4.7649  -15.0845    0.0000 C   0  0  0  0  0  0  0  0  0  0  0  0
   -4.0493  -13.8460    0.0000 O   0  0  0  0  0  0  0  0  0  0  0  0
   -4.0495  -13.0210    0.0000 C   0  0  0  0  0  0  0  0  0  0  0  0
    0.9528  -15.0759    0.0000 N   0  0  0  0  0  0  0  0  0  0  0  0
    1.6678  -15.4875    0.0000 O   0  0  0  0  0  0  0  0  0  0  0  0
    0.2388  -15.4893    0.0000 O   0  0  0  0  0  0  0  0  0  0  0  0
    2.3672  -12.5904    0.0000 C   0  0  0  0  0  0  0  0  0  0  0  0
    3.0841  -13.0010    0.0000 C   0  0  0  0  0  0  0  0  0  0  0  0
    3.7960  -12.5856    0.0000 C   0  0  0  0  0  0  0  0  0  0  0  0
    3.7922  -11.7597    0.0000 C   0  0  0  0  0  0  0  0  0  0  0  0
    3.0706  -11.3510    0.0000 C   0  0  0  0  0  0  0  0  0  0  0  0
    2.3617  -11.7688    0.0000 C   0  0  0  0  0  0  0  0  0  0  0  0
 13 14  2  0
 14  9  1  0
  5  7  1  0
  7 15  2  0
  3  4  1  0
  2 16  1  0
  7  8  1  0
 16 17  1  0
  1 18  1  0
  8  9  1  0
 18 19  1  0
  4  5  2  0
  9 10  2  0
  2  3  2  0
 20 21  2  0
 20 22  1  0
 10 20  1  0
 10 11  1  0
  5  6  1  0
 23 24  2  0
 11 12  2  0
 24 25  1  0
  6  1  2  0
 25 26  2  0
 12 13  1  0
 26 27  1  0
  1  2  1  0
 27 28  2  0
 28 23  1  0
 12 23  1  0
M  CHG  2  20   1  22  -1
M  END
>  <Classification>  (400) 
1

>  <pchembl>  (400) 
5.89

>  <InChI_steorem>  (400) 
InChI=1S/C21H18N2O5/c1-27-19-11-9-16(13-20(19)28-2)21(24)22-17-10-8-15(12-18(17)23(25)26)14-6-4-3-5-7-14/h3-13H,1-2H3,(H,22,24)

>  <source>  (400) 
ChEMBL25

>  <source_id>  (400) 
25

>  <optional_reference>  (400) 
10.1021/jm201305y

>  <optional_origin>  (400) 
None

>  <target>  (400) 
MDR1

$$$$

     RDKit          2D

 28 30  0  0  0  0  0  0  0  0999 V2000
   -3.7639   -8.1625    0.0000 C   0  0  0  0  0  0  0  0  0  0  0  0
   -3.7651   -8.9898    0.0000 C   0  0  0  0  0  0  0  0  0  0  0  0
   -3.0503   -9.4027    0.0000 C   0  0  0  0  0  0  0  0  0  0  0  0
   -2.3338   -8.9894    0.0000 C   0  0  0  0  0  0  0  0  0  0  0  0
   -2.3367   -8.1588    0.0000 C   0  0  0  0  0  0  0  0  0  0  0  0
   -3.0521   -7.7497    0.0000 C   0  0  0  0  0  0  0  0  0  0  0  0
   -1.6238   -7.7436    0.0000 C   0  0  0  0  0  0  0  0  0  0  0  0
   -0.9078   -8.1534    0.0000 N   0  0  0  0  0  0  0  0  0  0  0  0
   -0.1948   -7.7383    0.0000 C   0  0  0  0  0  0  0  0  0  0  0  0
    0.5196   -8.1515    0.0000 C   0  0  0  0  0  0  0  0  0  0  0  0
    1.2320   -7.7370    0.0000 C   0  0  0  0  0  0  0  0  0  0  0  0
    1.2293   -6.9111    0.0000 C   0  0  0  0  0  0  0  0  0  0  0  0
    0.5083   -6.5015    0.0000 C   0  0  0  0  0  0  0  0  0  0  0  0
   -0.2012   -6.9183    0.0000 C   0  0  0  0  0  0  0  0  0  0  0  0
   -1.6269   -6.9186    0.0000 O   0  0  0  0  0  0  0  0  0  0  0  0
    1.9381   -6.4946    0.0000 C   0  0  0  0  0  0  0  0  0  0  0  0
    2.6549   -6.9052    0.0000 C   0  0  0  0  0  0  0  0  0  0  0  0
    3.3668   -6.4897    0.0000 C   0  0  0  0  0  0  0  0  0  0  0  0
    3.3630   -5.6638    0.0000 C   0  0  0  0  0  0  0  0  0  0  0  0
    2.6415   -5.2552    0.0000 C   0  0  0  0  0  0  0  0  0  0  0  0
    1.9325   -5.6730    0.0000 C   0  0  0  0  0  0  0  0  0  0  0  0
   -3.0505  -10.2277    0.0000 O   0  0  0  0  0  0  0  0  0  0  0  0
   -3.7650  -10.6400    0.0000 C   0  0  0  0  0  0  0  0  0  0  0  0
   -4.4799   -9.4018    0.0000 O   0  0  0  0  0  0  0  0  0  0  0  0
   -5.1940   -8.9887    0.0000 C   0  0  0  0  0  0  0  0  0  0  0  0
   -4.4785   -7.7501    0.0000 O   0  0  0  0  0  0  0  0  0  0  0  0
   -4.4787   -6.9251    0.0000 C   0  0  0  0  0  0  0  0  0  0  0  0
    0.5206   -8.9765    0.0000 F   0  0  0  0  0  0  0  0  0  0  0  0
 13 14  2  0
 14  9  1  0
  5  7  1  0
  7 15  2  0
  3  4  1  0
  7  8  1  0
 16 17  2  0
 17 18  1  0
  8  9  1  0
 18 19  2  0
  4  5  2  0
 19 20  1  0
  9 10  2  0
 20 21  2  0
 21 16  1  0
 12 16  1  0
  2  3  2  0
  3 22  1  0
 10 11  1  0
 22 23  1  0
  5  6  1  0
  2 24  1  0
 11 12  2  0
 24 25  1  0
  6  1  2  0
  1 26  1  0
 12 13  1  0
 26 27  1  0
  1  2  1  0
 10 28  1  0
M  END
>  <Classification>  (401) 
1

>  <pchembl>  (401) 
5.85

>  <InChI_steorem>  (401) 
InChI=1S/C22H20FNO4/c1-26-19-12-16(13-20(27-2)21(19)28-3)22(25)24-18-10-9-15(11-17(18)23)14-7-5-4-6-8-14/h4-13H,1-3H3,(H,24,25)

>  <source>  (401) 
ChEMBL25

>  <source_id>  (401) 
25

>  <optional_reference>  (401) 
10.1021/jm201305y

>  <optional_origin>  (401) 
None

>  <target>  (401) 
MDR1

$$$$

     RDKit          2D

 28 30  0  0  0  0  0  0  0  0999 V2000
    4.4736  -12.8500    0.0000 C   0  0  0  0  0  0  0  0  0  0  0  0
    4.4724  -13.6773    0.0000 C   0  0  0  0  0  0  0  0  0  0  0  0
    5.1872  -14.0902    0.0000 C   0  0  0  0  0  0  0  0  0  0  0  0
    5.9037  -13.6769    0.0000 C   0  0  0  0  0  0  0  0  0  0  0  0
    5.9008  -12.8463    0.0000 C   0  0  0  0  0  0  0  0  0  0  0  0
    5.1854  -12.4372    0.0000 C   0  0  0  0  0  0  0  0  0  0  0  0
    6.6137  -12.4311    0.0000 C   0  0  0  0  0  0  0  0  0  0  0  0
    7.3297  -12.8409    0.0000 N   0  0  0  0  0  0  0  0  0  0  0  0
    8.0427  -12.4258    0.0000 C   0  0  0  0  0  0  0  0  0  0  0  0
    8.7571  -12.8390    0.0000 C   0  0  0  0  0  0  0  0  0  0  0  0
    9.4695  -12.4245    0.0000 C   0  0  0  0  0  0  0  0  0  0  0  0
    9.4668  -11.5986    0.0000 C   0  0  0  0  0  0  0  0  0  0  0  0
    8.7458  -11.1890    0.0000 C   0  0  0  0  0  0  0  0  0  0  0  0
    8.0363  -11.6058    0.0000 C   0  0  0  0  0  0  0  0  0  0  0  0
    6.6106  -11.6061    0.0000 O   0  0  0  0  0  0  0  0  0  0  0  0
    5.1870  -14.9152    0.0000 O   0  0  0  0  0  0  0  0  0  0  0  0
    3.7576  -14.0893    0.0000 O   0  0  0  0  0  0  0  0  0  0  0  0
    3.7590  -12.4376    0.0000 O   0  0  0  0  0  0  0  0  0  0  0  0
    8.7611  -13.6676    0.0000 N   0  0  0  0  0  0  0  0  0  0  0  0
    9.4761  -14.0792    0.0000 O   0  0  0  0  0  0  0  0  0  0  0  0
    8.0472  -14.0810    0.0000 O   0  0  0  0  0  0  0  0  0  0  0  0
    3.7588  -11.6126    0.0000 C   0  0  0  0  0  0  0  0  0  0  0  0
    8.7403  -10.3680    0.0000 C   0  0  0  0  0  0  0  0  0  0  0  0
    9.4534   -9.9509    0.0000 C   0  0  0  0  0  0  0  0  0  0  0  0
    9.4477   -9.1267    0.0000 C   0  0  0  0  0  0  0  0  0  0  0  0
    8.7297   -8.7186    0.0000 C   0  0  0  0  0  0  0  0  0  0  0  0
    8.0160   -9.1407    0.0000 C   0  0  0  0  0  0  0  0  0  0  0  0
    8.0251   -9.9636    0.0000 C   0  0  0  0  0  0  0  0  0  0  0  0
 13 14  2  0
 14  9  1  0
  5  7  1  0
  7 15  2  0
  3  4  1  0
  3 16  1  0
  7  8  1  0
  2 17  1  0
  1 18  1  0
  8  9  1  0
  4  5  2  0
  9 10  2  0
 19 20  2  0
 19 21  1  0
 10 19  1  0
  2  3  2  0
 18 22  1  0
 10 11  1  0
  5  6  1  0
 23 24  2  0
 11 12  2  0
 24 25  1  0
  6  1  2  0
 25 26  2  0
 12 13  1  0
 26 27  1  0
  1  2  1  0
 27 28  2  0
 28 23  1  0
 13 23  1  0
M  CHG  2  19   1  21  -1
M  END
>  <Classification>  (402) 
0

>  <pchembl>  (402) 
4.4

>  <InChI_steorem>  (402) 
InChI=1S/C20H16N2O6/c1-28-18-11-14(10-17(23)19(18)24)20(25)21-15-9-13(7-8-16(15)22(26)27)12-5-3-2-4-6-12/h2-11,23-24H,1H3,(H,21,25)

>  <source>  (402) 
ChEMBL25

>  <source_id>  (402) 
25

>  <optional_reference>  (402) 
10.1021/jm201305y

>  <optional_origin>  (402) 
None

>  <target>  (402) 
MDR1

$$$$

     RDKit          2D

 28 30  0  0  0  0  0  0  0  0999 V2000
   -4.7014  -20.2458    0.0000 C   0  0  0  0  0  0  0  0  0  0  0  0
   -4.7026  -21.0732    0.0000 C   0  0  0  0  0  0  0  0  0  0  0  0
   -3.9878  -21.4860    0.0000 C   0  0  0  0  0  0  0  0  0  0  0  0
   -3.2713  -21.0727    0.0000 C   0  0  0  0  0  0  0  0  0  0  0  0
   -3.2742  -20.2422    0.0000 C   0  0  0  0  0  0  0  0  0  0  0  0
   -3.9896  -19.8330    0.0000 C   0  0  0  0  0  0  0  0  0  0  0  0
   -2.5613  -19.8270    0.0000 C   0  0  0  0  0  0  0  0  0  0  0  0
   -1.8453  -20.2368    0.0000 N   0  0  0  0  0  0  0  0  0  0  0  0
   -1.1323  -19.8216    0.0000 C   0  0  0  0  0  0  0  0  0  0  0  0
   -0.4179  -20.2348    0.0000 C   0  0  0  0  0  0  0  0  0  0  0  0
    0.2945  -19.8203    0.0000 C   0  0  0  0  0  0  0  0  0  0  0  0
    0.2918  -18.9944    0.0000 C   0  0  0  0  0  0  0  0  0  0  0  0
   -0.4292  -18.5848    0.0000 C   0  0  0  0  0  0  0  0  0  0  0  0
   -1.1387  -19.0017    0.0000 C   0  0  0  0  0  0  0  0  0  0  0  0
   -2.5644  -19.0020    0.0000 O   0  0  0  0  0  0  0  0  0  0  0  0
   -3.9880  -22.3110    0.0000 O   0  0  0  0  0  0  0  0  0  0  0  0
   -5.4174  -21.4851    0.0000 O   0  0  0  0  0  0  0  0  0  0  0  0
   -5.4160  -19.8335    0.0000 O   0  0  0  0  0  0  0  0  0  0  0  0
   -0.4139  -21.0634    0.0000 N   0  0  0  0  0  0  0  0  0  0  0  0
    0.3011  -21.4750    0.0000 O   0  0  0  0  0  0  0  0  0  0  0  0
   -1.1278  -21.4768    0.0000 O   0  0  0  0  0  0  0  0  0  0  0  0
    1.0006  -18.5779    0.0000 C   0  0  0  0  0  0  0  0  0  0  0  0
    1.7174  -18.9885    0.0000 C   0  0  0  0  0  0  0  0  0  0  0  0
    2.4293  -18.5731    0.0000 C   0  0  0  0  0  0  0  0  0  0  0  0
    2.4255  -17.7472    0.0000 C   0  0  0  0  0  0  0  0  0  0  0  0
    1.7040  -17.3385    0.0000 C   0  0  0  0  0  0  0  0  0  0  0  0
    0.9950  -17.7563    0.0000 C   0  0  0  0  0  0  0  0  0  0  0  0
   -5.4162  -19.0085    0.0000 C   0  0  0  0  0  0  0  0  0  0  0  0
 13 14  2  0
 14  9  1  0
  5  7  1  0
  7 15  2  0
  3  4  1  0
  3 16  1  0
  7  8  1  0
  2 17  1  0
  1 18  1  0
  8  9  1  0
  4  5  2  0
  9 10  2  0
 19 20  2  0
 19 21  1  0
 10 19  1  0
  2  3  2  0
 10 11  1  0
 22 23  2  0
  5  6  1  0
 23 24  1  0
 11 12  2  0
 24 25  2  0
  6  1  2  0
 25 26  1  0
 12 13  1  0
 26 27  2  0
 27 22  1  0
 12 22  1  0
  1  2  1  0
 18 28  1  0
M  CHG  2  19   1  21  -1
M  END
>  <Classification>  (403) 
0

>  <pchembl>  (403) 
4.17

>  <InChI_steorem>  (403) 
InChI=1S/C20H16N2O6/c1-28-18-11-14(10-17(23)19(18)24)20(25)21-15-8-7-13(9-16(15)22(26)27)12-5-3-2-4-6-12/h2-11,23-24H,1H3,(H,21,25)

>  <source>  (403) 
ChEMBL25

>  <source_id>  (403) 
25

>  <optional_reference>  (403) 
10.1021/jm201305y

>  <optional_origin>  (403) 
None

>  <target>  (403) 
MDR1

$$$$

     RDKit          2D

 28 30  0  0  0  0  0  0  0  0999 V2000
    6.8152  -13.5000    0.0000 C   0  0  0  0  0  0  0  0  0  0  0  0
    6.8141  -14.3273    0.0000 C   0  0  0  0  0  0  0  0  0  0  0  0
    7.5289  -14.7402    0.0000 C   0  0  0  0  0  0  0  0  0  0  0  0
    8.2453  -14.3269    0.0000 C   0  0  0  0  0  0  0  0  0  0  0  0
    8.2425  -13.4963    0.0000 C   0  0  0  0  0  0  0  0  0  0  0  0
    7.5271  -13.0872    0.0000 C   0  0  0  0  0  0  0  0  0  0  0  0
    8.9554  -13.0811    0.0000 C   0  0  0  0  0  0  0  0  0  0  0  0
    9.6714  -13.4909    0.0000 N   0  0  0  0  0  0  0  0  0  0  0  0
   10.3843  -13.0758    0.0000 C   0  0  0  0  0  0  0  0  0  0  0  0
   11.0988  -13.4890    0.0000 C   0  0  0  0  0  0  0  0  0  0  0  0
   11.8112  -13.0745    0.0000 C   0  0  0  0  0  0  0  0  0  0  0  0
   11.8085  -12.2486    0.0000 C   0  0  0  0  0  0  0  0  0  0  0  0
   11.0875  -11.8390    0.0000 C   0  0  0  0  0  0  0  0  0  0  0  0
   10.3780  -12.2558    0.0000 C   0  0  0  0  0  0  0  0  0  0  0  0
    8.9523  -12.2561    0.0000 O   0  0  0  0  0  0  0  0  0  0  0  0
    7.5287  -15.5652    0.0000 O   0  0  0  0  0  0  0  0  0  0  0  0
    6.8141  -15.9775    0.0000 C   0  0  0  0  0  0  0  0  0  0  0  0
    6.1007  -13.0876    0.0000 O   0  0  0  0  0  0  0  0  0  0  0  0
    6.1005  -12.2626    0.0000 C   0  0  0  0  0  0  0  0  0  0  0  0
   11.1028  -14.3176    0.0000 N   0  0  0  0  0  0  0  0  0  0  0  0
   11.8178  -14.7292    0.0000 O   0  0  0  0  0  0  0  0  0  0  0  0
   10.3888  -14.7310    0.0000 O   0  0  0  0  0  0  0  0  0  0  0  0
   12.5172  -11.8321    0.0000 C   0  0  0  0  0  0  0  0  0  0  0  0
   13.2341  -12.2427    0.0000 C   0  0  0  0  0  0  0  0  0  0  0  0
   13.9460  -11.8272    0.0000 C   0  0  0  0  0  0  0  0  0  0  0  0
   13.9422  -11.0013    0.0000 C   0  0  0  0  0  0  0  0  0  0  0  0
   13.2206  -10.5927    0.0000 C   0  0  0  0  0  0  0  0  0  0  0  0
   12.5117  -11.0105    0.0000 C   0  0  0  0  0  0  0  0  0  0  0  0
 13 14  2  0
 14  9  1  0
  5  7  1  0
  7 15  2  0
  3  4  1  0
  3 16  1  0
  7  8  1  0
 16 17  1  0
  1 18  1  0
  8  9  1  0
 18 19  1  0
  4  5  2  0
  9 10  2  0
  2  3  2  0
 20 21  2  0
 20 22  1  0
 10 20  1  0
 10 11  1  0
  5  6  1  0
 23 24  2  0
 11 12  2  0
 24 25  1  0
  6  1  2  0
 25 26  2  0
 12 13  1  0
 26 27  1  0
  1  2  1  0
 27 28  2  0
 28 23  1  0
 12 23  1  0
M  CHG  2  20   1  22  -1
M  END
>  <Classification>  (404) 
1

>  <pchembl>  (404) 
5.18

>  <InChI_steorem>  (404) 
InChI=1S/C21H18N2O5/c1-27-17-10-16(11-18(13-17)28-2)21(24)22-19-9-8-15(12-20(19)23(25)26)14-6-4-3-5-7-14/h3-13H,1-2H3,(H,22,24)

>  <source>  (404) 
ChEMBL25

>  <source_id>  (404) 
25

>  <optional_reference>  (404) 
10.1021/jm201305y

>  <optional_origin>  (404) 
None

>  <target>  (404) 
MDR1

$$$$

     RDKit          2D

 28 31  0  0  0  0  0  0  0  0999 V2000
   23.5889   -0.5867    0.0000 N   0  0  0  0  0  0  0  0  0  0  0  0
   24.2547   -0.0916    0.0000 C   0  0  0  0  0  0  0  0  0  0  0  0
   24.0051    0.6866    0.0000 C   0  0  0  0  0  0  0  0  0  0  0  0
   22.9273   -0.0916    0.0000 C   0  0  0  0  0  0  0  0  0  0  0  0
   23.1770    0.6866    0.0000 C   0  0  0  0  0  0  0  0  0  0  0  0
   23.5889   -1.4106    0.0000 C   0  0  0  0  0  0  0  0  0  0  0  0
   24.4919    1.3565    0.0000 C   0  0  0  0  0  0  0  0  0  0  0  0
   22.1201   -0.2663    0.0000 C   0  0  0  0  0  0  0  0  0  0  0  0
   24.3005   -1.8225    0.0000 C   0  0  0  0  0  0  0  0  0  0  0  0
   24.0423    2.0485    0.0000 C   0  0  0  0  0  0  0  0  0  0  0  0
   22.6277    1.2982    0.0000 C   0  0  0  0  0  0  0  0  0  0  0  0
   22.8691   -1.8142    0.0000 O   0  0  0  0  0  0  0  0  0  0  0  0
   23.2158    1.9956    0.0000 O   0  0  0  0  0  0  0  0  0  0  0  0
   24.3005   -2.6506    0.0000 C   0  0  0  0  0  0  0  0  0  0  0  0
   25.0120   -1.4106    0.0000 C   0  0  0  0  0  0  0  0  0  0  0  0
   25.0370   -0.3537    0.0000 C   0  0  0  0  0  0  0  0  0  0  0  0
   21.8205    1.1318    0.0000 C   0  0  0  0  0  0  0  0  0  0  0  0
   21.5584    0.3453    0.0000 C   0  0  0  0  0  0  0  0  0  0  0  0
   25.7236   -2.6506    0.0000 C   0  0  0  0  0  0  0  0  0  0  0  0
   24.4036    2.7861    0.0000 O   0  0  0  0  0  0  0  0  0  0  0  0
   25.7236   -1.8225    0.0000 C   0  0  0  0  0  0  0  0  0  0  0  0
   25.0120   -3.0626    0.0000 C   0  0  0  0  0  0  0  0  0  0  0  0
   26.4351   -3.0626    0.0000 Cl  0  0  0  0  0  0  0  0  0  0  0  0
   25.1987   -1.1638    0.0000 C   0  0  0  0  0  0  0  0  0  0  0  0
   25.9800   -1.4261    0.0000 C   0  0  0  0  0  0  0  0  0  0  0  0
   26.5992   -0.8794    0.0000 C   0  0  0  0  0  0  0  0  0  0  0  0
   26.4316   -0.0672    0.0000 C   0  0  0  0  0  0  0  0  0  0  0  0
   25.6503    0.1912    0.0000 C   0  0  0  0  0  0  0  0  0  0  0  0
  6  1  1  0
  7  3  1  0
  8  4  2  0
  9  6  1  0
 10  7  1  0
 11  5  2  0
 12  6  2  0
 13 10  2  0
 14  9  2  0
 15  9  1  0
 16  2  1  0
 17 18  2  0
 18  8  1  0
 19 21  1  0
 20 10  1  0
 21 15  2  0
 22 14  1  0
 23 19  1  0
  3  5  1  0
 22 19  2  0
 11 17  1  0
 16 24  2  0
  2  1  1  0
 24 25  1  0
  3  2  2  0
 25 26  2  0
  4  1  1  0
 26 27  1  0
  5  4  1  0
 27 28  2  0
 28 16  1  0
M  END
>  <Classification>  (405) 
0

>  <pchembl>  (405) 
4.75

>  <InChI_steorem>  (405) 
InChI=1S/C23H16ClNO3/c24-17-12-10-16(11-13-17)23(28)25-20-9-5-4-8-18(20)19(14-21(26)27)22(25)15-6-2-1-3-7-15/h1-13H,14H2,(H,26,27)

>  <source>  (405) 
ChEMBL25

>  <source_id>  (405) 
25

>  <optional_reference>  (405) 
10.1021/jm301084z

>  <optional_origin>  (405) 
None

>  <target>  (405) 
MDR1

$$$$

     RDKit          2D

 29 31  0  0  0  0  0  0  0  0999 V2000
   -2.0514  -22.8833    0.0000 C   0  0  0  0  0  0  0  0  0  0  0  0
   -2.0526  -23.7107    0.0000 C   0  0  0  0  0  0  0  0  0  0  0  0
   -1.3378  -24.1235    0.0000 C   0  0  0  0  0  0  0  0  0  0  0  0
   -0.6213  -23.7102    0.0000 C   0  0  0  0  0  0  0  0  0  0  0  0
   -0.6242  -22.8797    0.0000 C   0  0  0  0  0  0  0  0  0  0  0  0
   -1.3396  -22.4705    0.0000 C   0  0  0  0  0  0  0  0  0  0  0  0
    0.0887  -22.4645    0.0000 C   0  0  0  0  0  0  0  0  0  0  0  0
    0.8047  -22.8743    0.0000 N   0  0  0  0  0  0  0  0  0  0  0  0
    1.5177  -22.4591    0.0000 C   0  0  0  0  0  0  0  0  0  0  0  0
    2.2321  -22.8723    0.0000 C   0  0  0  0  0  0  0  0  0  0  0  0
    2.9445  -22.4578    0.0000 C   0  0  0  0  0  0  0  0  0  0  0  0
    2.9418  -21.6319    0.0000 C   0  0  0  0  0  0  0  0  0  0  0  0
    2.2208  -21.2223    0.0000 C   0  0  0  0  0  0  0  0  0  0  0  0
    1.5113  -21.6392    0.0000 C   0  0  0  0  0  0  0  0  0  0  0  0
    0.0856  -21.6395    0.0000 O   0  0  0  0  0  0  0  0  0  0  0  0
   -1.3380  -24.9485    0.0000 O   0  0  0  0  0  0  0  0  0  0  0  0
   -2.0525  -25.3609    0.0000 C   0  0  0  0  0  0  0  0  0  0  0  0
   -2.7674  -24.1226    0.0000 O   0  0  0  0  0  0  0  0  0  0  0  0
   -3.4815  -23.7095    0.0000 C   0  0  0  0  0  0  0  0  0  0  0  0
   -2.7660  -22.4710    0.0000 O   0  0  0  0  0  0  0  0  0  0  0  0
   -2.7662  -21.6460    0.0000 C   0  0  0  0  0  0  0  0  0  0  0  0
    2.2361  -23.7009    0.0000 N   0  0  0  0  0  0  0  0  0  0  0  0
    2.9511  -24.1125    0.0000 O   0  0  0  0  0  0  0  0  0  0  0  0
    1.5222  -24.1143    0.0000 O   0  0  0  0  0  0  0  0  0  0  0  0
    3.6556  -21.2125    0.0000 C   0  0  0  0  0  0  0  0  0  0  0  0
    4.4110  -21.5442    0.0000 S   0  0  0  0  0  0  0  0  0  0  0  0
    4.9599  -20.9282    0.0000 C   0  0  0  0  0  0  0  0  0  0  0  0
    4.5437  -20.2158    0.0000 C   0  0  0  0  0  0  0  0  0  0  0  0
    3.7377  -20.3916    0.0000 C   0  0  0  0  0  0  0  0  0  0  0  0
 14  9  1  0
  5  7  1  0
  7 15  2  0
  3  4  1  0
  3 16  1  0
  7  8  1  0
 16 17  1  0
  2 18  1  0
  8  9  1  0
 18 19  1  0
  4  5  2  0
  1 20  1  0
  9 10  2  0
 20 21  1  0
  2  3  2  0
 10 11  1  0
  5  6  1  0
 22 23  2  0
 22 24  1  0
 10 22  1  0
 25 26  1  0
 11 12  2  0
  6  1  2  0
 12 13  1  0
  1  2  1  0
 13 14  2  0
 26 27  1  0
 27 28  2  0
 28 29  1  0
 29 25  2  0
 12 25  1  0
M  CHG  2  22   1  24  -1
M  END
>  <Classification>  (406) 
0

>  <pchembl>  (406) 
4.76

>  <InChI_steorem>  (406) 
InChI=1S/C20H18N2O6S/c1-26-16-10-13(11-17(27-2)19(16)28-3)20(23)21-14-7-6-12(9-15(14)22(24)25)18-5-4-8-29-18/h4-11H,1-3H3,(H,21,23)

>  <source>  (406) 
ChEMBL25

>  <source_id>  (406) 
25

>  <optional_reference>  (406) 
10.1021/jm201305y

>  <optional_origin>  (406) 
None

>  <target>  (406) 
MDR1

$$$$

     RDKit          2D

 29 31  0  0  0  0  0  0  0  0999 V2000
   -3.2098  -21.0375    0.0000 C   0  0  0  0  0  0  0  0  0  0  0  0
   -3.2109  -21.8648    0.0000 C   0  0  0  0  0  0  0  0  0  0  0  0
   -2.4961  -22.2777    0.0000 C   0  0  0  0  0  0  0  0  0  0  0  0
   -1.7797  -21.8644    0.0000 C   0  0  0  0  0  0  0  0  0  0  0  0
   -1.7825  -21.0338    0.0000 C   0  0  0  0  0  0  0  0  0  0  0  0
   -2.4979  -20.6247    0.0000 C   0  0  0  0  0  0  0  0  0  0  0  0
   -1.0696  -20.6186    0.0000 C   0  0  0  0  0  0  0  0  0  0  0  0
   -0.3536  -21.0284    0.0000 N   0  0  0  0  0  0  0  0  0  0  0  0
    0.3593  -20.6133    0.0000 C   0  0  0  0  0  0  0  0  0  0  0  0
    1.0737  -21.0265    0.0000 C   0  0  0  0  0  0  0  0  0  0  0  0
    1.7862  -20.6120    0.0000 C   0  0  0  0  0  0  0  0  0  0  0  0
    1.7835  -19.7861    0.0000 C   0  0  0  0  0  0  0  0  0  0  0  0
    1.0625  -19.3765    0.0000 C   0  0  0  0  0  0  0  0  0  0  0  0
    0.3530  -19.7933    0.0000 C   0  0  0  0  0  0  0  0  0  0  0  0
   -2.4963  -23.1027    0.0000 O   0  0  0  0  0  0  0  0  0  0  0  0
   -3.2109  -23.5150    0.0000 C   0  0  0  0  0  0  0  0  0  0  0  0
   -3.9257  -22.2768    0.0000 O   0  0  0  0  0  0  0  0  0  0  0  0
   -4.6399  -21.8637    0.0000 C   0  0  0  0  0  0  0  0  0  0  0  0
   -3.9243  -20.6251    0.0000 O   0  0  0  0  0  0  0  0  0  0  0  0
   -3.9245  -19.8001    0.0000 C   0  0  0  0  0  0  0  0  0  0  0  0
    1.0778  -21.8551    0.0000 N   0  0  0  0  0  0  0  0  0  0  0  0
    1.7928  -22.2667    0.0000 O   0  0  0  0  0  0  0  0  0  0  0  0
    0.3638  -22.2685    0.0000 O   0  0  0  0  0  0  0  0  0  0  0  0
    2.4922  -19.3696    0.0000 C   0  0  0  0  0  0  0  0  0  0  0  0
    3.2091  -19.7802    0.0000 C   0  0  0  0  0  0  0  0  0  0  0  0
    3.9210  -19.3647    0.0000 C   0  0  0  0  0  0  0  0  0  0  0  0
    3.9172  -18.5388    0.0000 C   0  0  0  0  0  0  0  0  0  0  0  0
    3.1956  -18.1302    0.0000 C   0  0  0  0  0  0  0  0  0  0  0  0
    2.4867  -18.5480    0.0000 C   0  0  0  0  0  0  0  0  0  0  0  0
 14  9  1  0
  5  7  1  0
  3 15  1  0
  3  4  1  0
 15 16  1  0
  7  8  1  0
  2 17  1  0
 17 18  1  0
  8  9  1  0
  1 19  1  0
  4  5  2  0
 19 20  1  0
  9 10  2  0
  2  3  2  0
 10 11  1  0
 21 22  2  0
 21 23  1  0
 10 21  1  0
  5  6  1  0
 11 12  2  0
 24 25  2  0
  6  1  2  0
 25 26  1  0
 12 13  1  0
 26 27  2  0
  1  2  1  0
 27 28  1  0
 13 14  2  0
 28 29  2  0
 29 24  1  0
 12 24  1  0
M  CHG  2  21   1  23  -1
M  END
>  <Classification>  (407) 
1

>  <pchembl>  (407) 
5.82

>  <InChI_steorem>  (407) 
InChI=1S/C22H22N2O5/c1-27-20-11-15(12-21(28-2)22(20)29-3)14-23-18-10-9-17(13-19(18)24(25)26)16-7-5-4-6-8-16/h4-13,23H,14H2,1-3H3

>  <source>  (407) 
ChEMBL25

>  <source_id>  (407) 
25

>  <optional_reference>  (407) 
10.1021/jm201305y

>  <optional_origin>  (407) 
None

>  <target>  (407) 
MDR1

$$$$

     RDKit          2D

 30 32  0  0  0  0  0  0  0  0999 V2000
   14.3777    0.3917    0.0000 C   0  0  0  0  0  0  0  0  0  0  0  0
   14.3766   -0.4357    0.0000 C   0  0  0  0  0  0  0  0  0  0  0  0
   15.0914   -0.8485    0.0000 C   0  0  0  0  0  0  0  0  0  0  0  0
   15.8078   -0.4352    0.0000 C   0  0  0  0  0  0  0  0  0  0  0  0
   15.8050    0.3953    0.0000 C   0  0  0  0  0  0  0  0  0  0  0  0
   15.0896    0.8045    0.0000 C   0  0  0  0  0  0  0  0  0  0  0  0
   16.5179    0.8105    0.0000 C   0  0  0  0  0  0  0  0  0  0  0  0
   17.2339    0.4007    0.0000 N   0  0  0  0  0  0  0  0  0  0  0  0
   17.9468    0.8159    0.0000 C   0  0  0  0  0  0  0  0  0  0  0  0
   18.6613    0.4027    0.0000 C   0  0  0  0  0  0  0  0  0  0  0  0
   19.3737    0.8172    0.0000 C   0  0  0  0  0  0  0  0  0  0  0  0
   19.3710    1.6431    0.0000 C   0  0  0  0  0  0  0  0  0  0  0  0
   18.6500    2.0527    0.0000 C   0  0  0  0  0  0  0  0  0  0  0  0
   17.9405    1.6358    0.0000 C   0  0  0  0  0  0  0  0  0  0  0  0
   16.5148    1.6355    0.0000 O   0  0  0  0  0  0  0  0  0  0  0  0
   15.0912   -1.6735    0.0000 O   0  0  0  0  0  0  0  0  0  0  0  0
   13.6618   -0.8476    0.0000 O   0  0  0  0  0  0  0  0  0  0  0  0
   13.6632    0.8040    0.0000 O   0  0  0  0  0  0  0  0  0  0  0  0
   18.6653   -0.4259    0.0000 N   0  0  0  0  0  0  0  0  0  0  0  0
   19.3803   -0.8375    0.0000 O   0  0  0  0  0  0  0  0  0  0  0  0
   17.9513   -0.8393    0.0000 O   0  0  0  0  0  0  0  0  0  0  0  0
   20.0797    2.0596    0.0000 C   0  0  0  0  0  0  0  0  0  0  0  0
   20.7966    1.6490    0.0000 C   0  0  0  0  0  0  0  0  0  0  0  0
   21.5085    2.0644    0.0000 C   0  0  0  0  0  0  0  0  0  0  0  0
   21.5047    2.8903    0.0000 C   0  0  0  0  0  0  0  0  0  0  0  0
   20.7831    3.2990    0.0000 C   0  0  0  0  0  0  0  0  0  0  0  0
   20.0742    2.8812    0.0000 C   0  0  0  0  0  0  0  0  0  0  0  0
   22.2248    1.6552    0.0000 C   0  0  0  0  0  0  0  0  0  0  0  0
   22.2286    0.8303    0.0000 C   0  0  0  0  0  0  0  0  0  0  0  0
   22.9374    2.0710    0.0000 O   0  0  0  0  0  0  0  0  0  0  0  0
  5  7  1  0
  7 15  2  0
  3  4  1  0
  3 16  1  0
  7  8  1  0
  2 17  1  0
  1 18  1  0
  8  9  1  0
  4  5  2  0
  9 10  2  0
 19 20  2  0
 19 21  1  0
 10 19  1  0
  2  3  2  0
 10 11  1  0
 22 23  2  0
  5  6  1  0
 23 24  1  0
 11 12  2  0
 24 25  2  0
  6  1  2  0
 25 26  1  0
 12 13  1  0
 26 27  2  0
 27 22  1  0
 12 22  1  0
  1  2  1  0
 24 28  1  0
 13 14  2  0
 28 29  1  0
 14  9  1  0
 28 30  2  0
M  CHG  2  19   1  21  -1
M  END
>  <Classification>  (408) 
0

>  <pchembl>  (408) 
4.41

>  <InChI_steorem>  (408) 
InChI=1S/C21H16N2O7/c1-11(24)12-3-2-4-13(7-12)14-5-6-16(17(8-14)23(29)30)22-21(28)15-9-18(25)20(27)19(26)10-15/h2-10,25-27H,1H3,(H,22,28)

>  <source>  (408) 
ChEMBL25

>  <source_id>  (408) 
25

>  <optional_reference>  (408) 
10.1021/jm201305y

>  <optional_origin>  (408) 
None

>  <target>  (408) 
MDR1

$$$$

     RDKit          2D

 30 32  0  0  0  0  0  0  0  0999 V2000
   16.1236  -15.4583    0.0000 C   0  0  0  0  0  0  0  0  0  0  0  0
   16.1224  -16.2857    0.0000 C   0  0  0  0  0  0  0  0  0  0  0  0
   16.8372  -16.6985    0.0000 C   0  0  0  0  0  0  0  0  0  0  0  0
   17.5537  -16.2852    0.0000 C   0  0  0  0  0  0  0  0  0  0  0  0
   17.5508  -15.4547    0.0000 C   0  0  0  0  0  0  0  0  0  0  0  0
   16.8354  -15.0455    0.0000 C   0  0  0  0  0  0  0  0  0  0  0  0
   18.2637  -15.0395    0.0000 C   0  0  0  0  0  0  0  0  0  0  0  0
   18.9797  -15.4493    0.0000 N   0  0  0  0  0  0  0  0  0  0  0  0
   19.6927  -15.0341    0.0000 C   0  0  0  0  0  0  0  0  0  0  0  0
   20.4071  -15.4473    0.0000 C   0  0  0  0  0  0  0  0  0  0  0  0
   21.1195  -15.0328    0.0000 C   0  0  0  0  0  0  0  0  0  0  0  0
   21.1168  -14.2069    0.0000 C   0  0  0  0  0  0  0  0  0  0  0  0
   20.3958  -13.7973    0.0000 C   0  0  0  0  0  0  0  0  0  0  0  0
   19.6863  -14.2142    0.0000 C   0  0  0  0  0  0  0  0  0  0  0  0
   18.2606  -14.2145    0.0000 O   0  0  0  0  0  0  0  0  0  0  0  0
   16.8370  -17.5235    0.0000 O   0  0  0  0  0  0  0  0  0  0  0  0
   16.1225  -17.9359    0.0000 C   0  0  0  0  0  0  0  0  0  0  0  0
   15.4076  -16.6976    0.0000 O   0  0  0  0  0  0  0  0  0  0  0  0
   14.6935  -16.2845    0.0000 C   0  0  0  0  0  0  0  0  0  0  0  0
   15.4090  -15.0460    0.0000 O   0  0  0  0  0  0  0  0  0  0  0  0
   15.4088  -14.2210    0.0000 C   0  0  0  0  0  0  0  0  0  0  0  0
   20.4111  -16.2759    0.0000 N   0  0  0  0  0  0  0  0  0  0  0  0
   21.1261  -16.6875    0.0000 O   0  0  0  0  0  0  0  0  0  0  0  0
   19.6972  -16.6893    0.0000 O   0  0  0  0  0  0  0  0  0  0  0  0
   20.3903  -12.9763    0.0000 C   0  0  0  0  0  0  0  0  0  0  0  0
   21.1034  -12.5592    0.0000 C   0  0  0  0  0  0  0  0  0  0  0  0
   21.0977  -11.7350    0.0000 C   0  0  0  0  0  0  0  0  0  0  0  0
   20.3797  -11.3269    0.0000 C   0  0  0  0  0  0  0  0  0  0  0  0
   19.6660  -11.7491    0.0000 C   0  0  0  0  0  0  0  0  0  0  0  0
   19.6751  -12.5719    0.0000 C   0  0  0  0  0  0  0  0  0  0  0  0
  5  7  1  0
  7 15  2  0
  3  4  1  0
  3 16  1  0
  7  8  1  0
 16 17  1  0
  2 18  1  0
  8  9  1  0
 18 19  1  0
  4  5  2  0
  1 20  1  0
  9 10  2  0
 20 21  1  0
  2  3  2  0
 10 11  1  0
  5  6  1  0
 22 23  2  0
 22 24  1  0
 10 22  1  0
 11 12  2  0
  6  1  2  0
 25 26  2  0
 12 13  1  0
 26 27  1  0
  1  2  1  0
 27 28  2  0
 13 14  2  0
 28 29  1  0
 14  9  1  0
 29 30  2  0
 30 25  1  0
 13 25  1  0
M  CHG  2  22   1  24  -1
M  END
>  <Classification>  (409) 
1

>  <pchembl>  (409) 
6.24

>  <InChI_steorem>  (409) 
InChI=1S/C22H20N2O6/c1-28-19-12-16(13-20(29-2)21(19)30-3)22(25)23-17-11-15(9-10-18(17)24(26)27)14-7-5-4-6-8-14/h4-13H,1-3H3,(H,23,25)

>  <source>  (409) 
ChEMBL25

>  <source_id>  (409) 
25

>  <optional_reference>  (409) 
10.1021/jm201305y

>  <optional_origin>  (409) 
None

>  <target>  (409) 
MDR1

$$$$

     RDKit          2D

 30 32  0  0  0  0  0  0  0  0999 V2000
   -4.1389   -6.3000    0.0000 C   0  0  0  0  0  0  0  0  0  0  0  0
   -4.1401   -7.1273    0.0000 C   0  0  0  0  0  0  0  0  0  0  0  0
   -3.4253   -7.5402    0.0000 C   0  0  0  0  0  0  0  0  0  0  0  0
   -2.7088   -7.1269    0.0000 C   0  0  0  0  0  0  0  0  0  0  0  0
   -2.7117   -6.2963    0.0000 C   0  0  0  0  0  0  0  0  0  0  0  0
   -3.4271   -5.8872    0.0000 C   0  0  0  0  0  0  0  0  0  0  0  0
   -1.9988   -5.8811    0.0000 C   0  0  0  0  0  0  0  0  0  0  0  0
   -1.2828   -6.2909    0.0000 N   0  0  0  0  0  0  0  0  0  0  0  0
   -0.5698   -5.8758    0.0000 C   0  0  0  0  0  0  0  0  0  0  0  0
    0.1446   -6.2890    0.0000 C   0  0  0  0  0  0  0  0  0  0  0  0
    0.8570   -5.8745    0.0000 C   0  0  0  0  0  0  0  0  0  0  0  0
    0.8543   -5.0486    0.0000 C   0  0  0  0  0  0  0  0  0  0  0  0
    0.1333   -4.6390    0.0000 C   0  0  0  0  0  0  0  0  0  0  0  0
   -0.5762   -5.0558    0.0000 C   0  0  0  0  0  0  0  0  0  0  0  0
   -2.0019   -5.0561    0.0000 O   0  0  0  0  0  0  0  0  0  0  0  0
   -3.4255   -8.3652    0.0000 O   0  0  0  0  0  0  0  0  0  0  0  0
   -4.1401   -8.7775    0.0000 C   0  0  0  0  0  0  0  0  0  0  0  0
   -4.8549   -7.5393    0.0000 O   0  0  0  0  0  0  0  0  0  0  0  0
   -5.5690   -7.1262    0.0000 C   0  0  0  0  0  0  0  0  0  0  0  0
   -4.8535   -5.8876    0.0000 O   0  0  0  0  0  0  0  0  0  0  0  0
   -4.8537   -5.0626    0.0000 C   0  0  0  0  0  0  0  0  0  0  0  0
    1.5631   -4.6321    0.0000 C   0  0  0  0  0  0  0  0  0  0  0  0
    2.2799   -5.0427    0.0000 C   0  0  0  0  0  0  0  0  0  0  0  0
    2.9918   -4.6272    0.0000 C   0  0  0  0  0  0  0  0  0  0  0  0
    2.9880   -3.8013    0.0000 C   0  0  0  0  0  0  0  0  0  0  0  0
    2.2665   -3.3927    0.0000 C   0  0  0  0  0  0  0  0  0  0  0  0
    1.5575   -3.8105    0.0000 C   0  0  0  0  0  0  0  0  0  0  0  0
    3.7137   -5.0371    0.0000 N   0  0  0  0  0  0  0  0  0  0  0  0
    4.4263   -4.6213    0.0000 O   0  0  0  0  0  0  0  0  0  0  0  0
    3.7175   -5.8621    0.0000 O   0  0  0  0  0  0  0  0  0  0  0  0
  5  7  1  0
  7 15  2  0
  3  4  1  0
  3 16  1  0
  7  8  1  0
 16 17  1  0
  2 18  1  0
  8  9  1  0
 18 19  1  0
  4  5  2  0
  1 20  1  0
  9 10  2  0
 20 21  1  0
  2  3  2  0
 10 11  1  0
 22 23  2  0
  5  6  1  0
 23 24  1  0
 11 12  2  0
 24 25  2  0
  6  1  2  0
 25 26  1  0
 12 13  1  0
 26 27  2  0
 27 22  1  0
 12 22  1  0
  1  2  1  0
 13 14  2  0
 14  9  1  0
 28 29  2  0
 28 30  1  0
 24 28  1  0
M  CHG  2  28   1  30  -1
M  END
>  <Classification>  (410) 
1

>  <pchembl>  (410) 
6.4

>  <InChI_steorem>  (410) 
InChI=1S/C22H20N2O6/c1-28-19-12-16(13-20(29-2)21(19)30-3)22(25)23-17-9-7-14(8-10-17)15-5-4-6-18(11-15)24(26)27/h4-13H,1-3H3,(H,23,25)

>  <source>  (410) 
ChEMBL25

>  <source_id>  (410) 
25

>  <optional_reference>  (410) 
10.1021/jm201305y

>  <optional_origin>  (410) 
None

>  <target>  (410) 
MDR1

$$$$

     RDKit          2D

 30 32  0  0  0  0  0  0  0  0999 V2000
    5.6236  -19.7750    0.0000 C   0  0  0  0  0  0  0  0  0  0  0  0
    5.6224  -20.6023    0.0000 C   0  0  0  0  0  0  0  0  0  0  0  0
    6.3372  -21.0152    0.0000 C   0  0  0  0  0  0  0  0  0  0  0  0
    7.0537  -20.6019    0.0000 C   0  0  0  0  0  0  0  0  0  0  0  0
    7.0508  -19.7713    0.0000 C   0  0  0  0  0  0  0  0  0  0  0  0
    6.3354  -19.3622    0.0000 C   0  0  0  0  0  0  0  0  0  0  0  0
    7.7637  -19.3561    0.0000 C   0  0  0  0  0  0  0  0  0  0  0  0
    8.4797  -19.7659    0.0000 N   0  0  0  0  0  0  0  0  0  0  0  0
    9.1927  -19.3508    0.0000 C   0  0  0  0  0  0  0  0  0  0  0  0
    9.9071  -19.7640    0.0000 C   0  0  0  0  0  0  0  0  0  0  0  0
   10.6195  -19.3495    0.0000 C   0  0  0  0  0  0  0  0  0  0  0  0
   10.6168  -18.5236    0.0000 C   0  0  0  0  0  0  0  0  0  0  0  0
    9.8958  -18.1140    0.0000 C   0  0  0  0  0  0  0  0  0  0  0  0
    9.1863  -18.5308    0.0000 C   0  0  0  0  0  0  0  0  0  0  0  0
    7.7606  -18.5311    0.0000 O   0  0  0  0  0  0  0  0  0  0  0  0
    6.3370  -21.8402    0.0000 O   0  0  0  0  0  0  0  0  0  0  0  0
    4.9076  -21.0143    0.0000 O   0  0  0  0  0  0  0  0  0  0  0  0
    4.9090  -19.3626    0.0000 O   0  0  0  0  0  0  0  0  0  0  0  0
    9.9111  -20.5926    0.0000 N   0  0  0  0  0  0  0  0  0  0  0  0
   10.6261  -21.0042    0.0000 O   0  0  0  0  0  0  0  0  0  0  0  0
    9.1972  -21.0060    0.0000 O   0  0  0  0  0  0  0  0  0  0  0  0
   11.3256  -18.1071    0.0000 C   0  0  0  0  0  0  0  0  0  0  0  0
   12.0424  -18.5177    0.0000 C   0  0  0  0  0  0  0  0  0  0  0  0
   12.7543  -18.1022    0.0000 C   0  0  0  0  0  0  0  0  0  0  0  0
   12.7505  -17.2763    0.0000 C   0  0  0  0  0  0  0  0  0  0  0  0
   12.0290  -16.8677    0.0000 C   0  0  0  0  0  0  0  0  0  0  0  0
   11.3200  -17.2855    0.0000 C   0  0  0  0  0  0  0  0  0  0  0  0
    4.9088  -18.5376    0.0000 C   0  0  0  0  0  0  0  0  0  0  0  0
   12.0218  -16.0427    0.0000 F   0  0  0  0  0  0  0  0  0  0  0  0
   13.4707  -18.5114    0.0000 F   0  0  0  0  0  0  0  0  0  0  0  0
  5  7  1  0
  7 15  2  0
  3  4  1  0
  3 16  1  0
  7  8  1  0
  2 17  1  0
  1 18  1  0
  8  9  1  0
  4  5  2  0
  9 10  2  0
 19 20  2  0
 19 21  1  0
 10 19  1  0
  2  3  2  0
 10 11  1  0
 22 23  2  0
  5  6  1  0
 23 24  1  0
 11 12  2  0
 24 25  2  0
  6  1  2  0
 25 26  1  0
 12 13  1  0
 26 27  2  0
 27 22  1  0
 12 22  1  0
  1  2  1  0
 18 28  1  0
 13 14  2  0
 26 29  1  0
 14  9  1  0
 24 30  1  0
M  CHG  2  19   1  21  -1
M  END
>  <Classification>  (411) 
0

>  <pchembl>  (411) 
4.78

>  <InChI_steorem>  (411) 
InChI=1S/C20H14F2N2O6/c1-30-18-8-12(7-17(25)19(18)26)20(27)23-15-3-2-10(6-16(15)24(28)29)11-4-13(21)9-14(22)5-11/h2-9,25-26H,1H3,(H,23,27)

>  <source>  (411) 
ChEMBL25

>  <source_id>  (411) 
25

>  <optional_reference>  (411) 
10.1021/jm201305y

>  <optional_origin>  (411) 
None

>  <target>  (411) 
MDR1

$$$$

     RDKit          2D

 30 32  0  0  0  0  0  0  0  0999 V2000
    6.9440  -22.5069    0.0000 C   0  0  0  0  0  0  0  0  0  0  0  0
    6.9428  -23.3342    0.0000 C   0  0  0  0  0  0  0  0  0  0  0  0
    7.6576  -23.7470    0.0000 C   0  0  0  0  0  0  0  0  0  0  0  0
    8.3740  -23.3337    0.0000 C   0  0  0  0  0  0  0  0  0  0  0  0
    8.3711  -22.5033    0.0000 C   0  0  0  0  0  0  0  0  0  0  0  0
    7.6558  -22.0941    0.0000 C   0  0  0  0  0  0  0  0  0  0  0  0
    9.0840  -22.0881    0.0000 C   0  0  0  0  0  0  0  0  0  0  0  0
    9.8000  -22.4979    0.0000 N   0  0  0  0  0  0  0  0  0  0  0  0
   10.5128  -22.0827    0.0000 C   0  0  0  0  0  0  0  0  0  0  0  0
   11.2272  -22.4959    0.0000 C   0  0  0  0  0  0  0  0  0  0  0  0
   11.9395  -22.0814    0.0000 C   0  0  0  0  0  0  0  0  0  0  0  0
   11.9369  -21.2556    0.0000 C   0  0  0  0  0  0  0  0  0  0  0  0
   11.2159  -20.8460    0.0000 C   0  0  0  0  0  0  0  0  0  0  0  0
   10.5065  -21.2629    0.0000 C   0  0  0  0  0  0  0  0  0  0  0  0
    9.0808  -21.2632    0.0000 O   0  0  0  0  0  0  0  0  0  0  0  0
    7.6574  -24.5719    0.0000 O   0  0  0  0  0  0  0  0  0  0  0  0
    6.9429  -24.9843    0.0000 C   0  0  0  0  0  0  0  0  0  0  0  0
    6.2280  -23.7461    0.0000 O   0  0  0  0  0  0  0  0  0  0  0  0
    5.5140  -23.3330    0.0000 C   0  0  0  0  0  0  0  0  0  0  0  0
    6.2294  -22.0946    0.0000 O   0  0  0  0  0  0  0  0  0  0  0  0
    6.2292  -21.2697    0.0000 C   0  0  0  0  0  0  0  0  0  0  0  0
   11.2313  -23.3244    0.0000 N   0  0  0  0  0  0  0  0  0  0  0  0
   11.9462  -23.7360    0.0000 O   0  0  0  0  0  0  0  0  0  0  0  0
   10.5173  -23.7378    0.0000 O   0  0  0  0  0  0  0  0  0  0  0  0
   12.6456  -20.8391    0.0000 C   0  0  0  0  0  0  0  0  0  0  0  0
   13.3625  -21.2497    0.0000 C   0  0  0  0  0  0  0  0  0  0  0  0
   14.0742  -20.8343    0.0000 N   0  0  0  0  0  0  0  0  0  0  0  0
   14.0705  -20.0084    0.0000 C   0  0  0  0  0  0  0  0  0  0  0  0
   13.3490  -19.5998    0.0000 C   0  0  0  0  0  0  0  0  0  0  0  0
   12.6401  -20.0175    0.0000 C   0  0  0  0  0  0  0  0  0  0  0  0
  5  7  1  0
  7 15  2  0
  3  4  1  0
  3 16  1  0
  7  8  1  0
 16 17  1  0
  2 18  1  0
  8  9  1  0
 18 19  1  0
  4  5  2  0
  1 20  1  0
  9 10  2  0
 20 21  1  0
  2  3  2  0
 10 11  1  0
  5  6  1  0
 22 23  2  0
 22 24  1  0
 10 22  1  0
 11 12  2  0
  6  1  2  0
 25 26  2  0
 12 13  1  0
 26 27  1  0
  1  2  1  0
 27 28  2  0
 13 14  2  0
 28 29  1  0
 14  9  1  0
 29 30  2  0
 30 25  1  0
 12 25  1  0
M  CHG  2  22   1  24  -1
M  END
>  <Classification>  (412) 
1

>  <pchembl>  (412) 
5.17

>  <InChI_steorem>  (412) 
InChI=1S/C21H19N3O6/c1-28-18-10-15(11-19(29-2)20(18)30-3)21(25)23-16-7-6-13(9-17(16)24(26)27)14-5-4-8-22-12-14/h4-12H,1-3H3,(H,23,25)

>  <source>  (412) 
ChEMBL25

>  <source_id>  (412) 
25

>  <optional_reference>  (412) 
10.1021/jm201305y

>  <optional_origin>  (412) 
None

>  <target>  (412) 
MDR1

$$$$

     RDKit          2D

 30 32  0  0  0  0  0  0  0  0999 V2000
    7.3069  -20.3458    0.0000 C   0  0  0  0  0  0  0  0  0  0  0  0
    7.3057  -21.1732    0.0000 C   0  0  0  0  0  0  0  0  0  0  0  0
    8.0206  -21.5860    0.0000 C   0  0  0  0  0  0  0  0  0  0  0  0
    8.7370  -21.1727    0.0000 C   0  0  0  0  0  0  0  0  0  0  0  0
    8.7341  -20.3422    0.0000 C   0  0  0  0  0  0  0  0  0  0  0  0
    8.0188  -19.9330    0.0000 C   0  0  0  0  0  0  0  0  0  0  0  0
    9.4471  -19.9270    0.0000 N   0  0  0  0  0  0  0  0  0  0  0  0
   10.1631  -20.3368    0.0000 C   0  0  0  0  0  0  0  0  0  0  0  0
   10.8760  -19.9216    0.0000 C   0  0  0  0  0  0  0  0  0  0  0  0
   11.5904  -20.3348    0.0000 C   0  0  0  0  0  0  0  0  0  0  0  0
   12.3028  -19.9203    0.0000 C   0  0  0  0  0  0  0  0  0  0  0  0
   12.3002  -19.0944    0.0000 C   0  0  0  0  0  0  0  0  0  0  0  0
   11.5791  -18.6848    0.0000 C   0  0  0  0  0  0  0  0  0  0  0  0
   10.8697  -19.1017    0.0000 C   0  0  0  0  0  0  0  0  0  0  0  0
    8.0204  -22.4110    0.0000 O   0  0  0  0  0  0  0  0  0  0  0  0
    7.3058  -22.8234    0.0000 C   0  0  0  0  0  0  0  0  0  0  0  0
    6.5909  -21.5851    0.0000 O   0  0  0  0  0  0  0  0  0  0  0  0
    5.8768  -21.1720    0.0000 C   0  0  0  0  0  0  0  0  0  0  0  0
    6.5923  -19.9335    0.0000 O   0  0  0  0  0  0  0  0  0  0  0  0
    6.5921  -19.1085    0.0000 C   0  0  0  0  0  0  0  0  0  0  0  0
   11.5945  -21.1634    0.0000 N   0  0  0  0  0  0  0  0  0  0  0  0
   12.3095  -21.5750    0.0000 O   0  0  0  0  0  0  0  0  0  0  0  0
   10.8805  -21.5768    0.0000 O   0  0  0  0  0  0  0  0  0  0  0  0
   13.0089  -18.6779    0.0000 C   0  0  0  0  0  0  0  0  0  0  0  0
   13.7258  -19.0885    0.0000 C   0  0  0  0  0  0  0  0  0  0  0  0
   14.4376  -18.6731    0.0000 C   0  0  0  0  0  0  0  0  0  0  0  0
   14.4339  -17.8472    0.0000 C   0  0  0  0  0  0  0  0  0  0  0  0
   13.7123  -17.4385    0.0000 C   0  0  0  0  0  0  0  0  0  0  0  0
   13.0034  -17.8563    0.0000 C   0  0  0  0  0  0  0  0  0  0  0  0
   10.1662  -21.1618    0.0000 O   0  0  0  0  0  0  0  0  0  0  0  0
  5  7  1  0
  3 15  1  0
  3  4  1  0
 15 16  1  0
  7  8  1  0
  2 17  1  0
 17 18  1  0
  8  9  1  0
  1 19  1  0
  4  5  2  0
 19 20  1  0
  9 10  2  0
  2  3  2  0
 10 11  1  0
 21 22  2  0
 21 23  1  0
 10 21  1  0
  5  6  1  0
 11 12  2  0
 24 25  2  0
  6  1  2  0
 25 26  1  0
 12 13  1  0
 26 27  2  0
  1  2  1  0
 27 28  1  0
 13 14  2  0
 28 29  2  0
 29 24  1  0
 12 24  1  0
 14  9  1  0
  8 30  2  0
M  CHG  2  21   1  23  -1
M  END
>  <Classification>  (413) 
1

>  <pchembl>  (413) 
5.7

>  <InChI_steorem>  (413) 
InChI=1S/C22H20N2O6/c1-28-19-12-16(13-20(29-2)21(19)30-3)23-22(25)17-10-9-15(11-18(17)24(26)27)14-7-5-4-6-8-14/h4-13H,1-3H3,(H,23,25)

>  <source>  (413) 
ChEMBL25

>  <source_id>  (413) 
25

>  <optional_reference>  (413) 
10.1021/jm201305y

>  <optional_origin>  (413) 
None

>  <target>  (413) 
MDR1

$$$$

     RDKit          2D

 31 32  0  0  0  0  0  0  0  0999 V2000
    3.5167    1.6583    0.0000 C   0  0  0  0  0  0  0  0  0  0  0  0
    3.5292    0.8333    0.0000 C   0  0  0  0  0  0  0  0  0  0  0  0
    2.7958    2.0625    0.0000 C   0  0  0  0  0  0  0  0  0  0  0  0
    2.8167    0.4125    0.0000 C   0  0  0  0  0  0  0  0  0  0  0  0
    2.0917    1.6458    0.0000 C   0  0  0  0  0  0  0  0  0  0  0  0
   -0.0583    2.0333    0.0000 N   0  0  0  0  0  0  0  0  0  0  0  0
    2.0958    0.8208    0.0000 C   0  0  0  0  0  0  0  0  0  0  0  0
    0.6667    1.6250    0.0000 C   0  0  0  0  0  0  0  0  0  0  0  0
    4.2292    2.0833    0.0000 O   0  0  0  0  0  0  0  0  0  0  0  0
    1.3792    2.0458    0.0000 C   0  0  0  0  0  0  0  0  0  0  0  0
   -1.4667    0.3708    0.0000 C   0  0  0  0  0  0  0  0  0  0  0  0
    4.2333    0.4250    0.0000 O   0  0  0  0  0  0  0  0  0  0  0  0
   -0.7583    0.7875    0.0000 C   0  0  0  0  0  0  0  0  0  0  0  0
   -0.7667    1.6125    0.0000 C   0  0  0  0  0  0  0  0  0  0  0  0
   -0.0667    2.8583    0.0000 C   0  0  0  0  0  0  0  0  0  0  0  0
    4.9458    1.6750    0.0000 C   0  0  0  0  0  0  0  0  0  0  0  0
    4.2542   -0.4000    0.0000 C   0  0  0  0  0  0  0  0  0  0  0  0
   -2.1845    0.7775    0.0000 C   0  0  0  0  0  0  0  0  0  0  0  0
   -2.8956    0.3592    0.0000 C   0  0  0  0  0  0  0  0  0  0  0  0
   -2.1912    1.6025    0.0000 C   0  0  0  0  0  0  0  0  0  0  0  0
   -1.4801    2.0208    0.0000 C   0  0  0  0  0  0  0  0  0  0  0  0
   -2.9090    2.0092    0.0000 C   0  0  0  0  0  0  0  0  0  0  0  0
   -2.1917   -0.0458    0.0000 C   0  0  0  0  0  0  0  0  0  0  0  0
   -3.6099    0.7675    0.0000 C   0  0  0  0  0  0  0  0  0  0  0  0
   -4.3206    0.3499    0.0000 C   0  0  0  0  0  0  0  0  0  0  0  0
   -4.3143   -0.4760    0.0000 C   0  0  0  0  0  0  0  0  0  0  0  0
   -3.5915   -0.8825    0.0000 C   0  0  0  0  0  0  0  0  0  0  0  0
   -2.8838   -0.4625    0.0000 C   0  0  0  0  0  0  0  0  0  0  0  0
   -5.0382    0.7569    0.0000 O   0  0  0  0  0  0  0  0  0  0  0  0
   -5.0248   -0.8952    0.0000 O   0  0  0  0  0  0  0  0  0  0  0  0
   -2.1989   -0.8692    0.0000 N   0  0  0  0  0  0  0  0  0  0  0  0
 15  6  1  0
 16  9  1  0
 17 12  1  0
  2  1  2  0
 11 18  1  0
  1  3  1  0
 18 19  1  0
  2  4  1  0
 18 20  1  0
  3  5  2  0
 20 21  1  0
  4  7  2  0
 20 22  1  0
  5 10  1  0
 18 23  1  0
  6 14  1  0
 19 24  2  0
  7  5  1  0
 24 25  1  0
  8  6  1  0
 25 26  2  0
  9  1  1  0
 26 27  1  0
 10  8  1  0
 27 28  2  0
 28 19  1  0
 12  2  1  0
 25 29  1  0
 13 11  1  0
 26 30  1  0
 14 13  1  0
 23 31  3  0
M  END
>  <Classification>  (414) 
0

>  <pchembl>  (414) 
4.5

>  <InChI_steorem>  (414) 
InChI=1S/C25H34N2O4/c1-18(2)25(17-26,20-8-9-21(28)22(29)16-20)12-6-13-27(3)14-11-19-7-10-23(30-4)24(15-19)31-5/h7-10,15-16,18,28-29H,6,11-14H2,1-5H3

>  <source>  (414) 
ChEMBL25

>  <source_id>  (414) 
25

>  <optional_reference>  (414) 
10.1021/jm201305y

>  <optional_origin>  (414) 
None

>  <target>  (414) 
MDR1

$$$$

     RDKit          2D

 31 33  0  0  0  0  0  0  0  0999 V2000
   16.4361   -7.1833    0.0000 C   0  0  0  0  0  0  0  0  0  0  0  0
   16.4349   -8.0107    0.0000 C   0  0  0  0  0  0  0  0  0  0  0  0
   17.1497   -8.4235    0.0000 C   0  0  0  0  0  0  0  0  0  0  0  0
   17.8662   -8.0102    0.0000 C   0  0  0  0  0  0  0  0  0  0  0  0
   17.8633   -7.1797    0.0000 C   0  0  0  0  0  0  0  0  0  0  0  0
   17.1479   -6.7705    0.0000 C   0  0  0  0  0  0  0  0  0  0  0  0
   18.5762   -6.7645    0.0000 C   0  0  0  0  0  0  0  0  0  0  0  0
   19.2922   -7.1743    0.0000 N   0  0  0  0  0  0  0  0  0  0  0  0
   20.0052   -6.7591    0.0000 C   0  0  0  0  0  0  0  0  0  0  0  0
   20.7196   -7.1723    0.0000 C   0  0  0  0  0  0  0  0  0  0  0  0
   21.4320   -6.7578    0.0000 C   0  0  0  0  0  0  0  0  0  0  0  0
   21.4293   -5.9319    0.0000 C   0  0  0  0  0  0  0  0  0  0  0  0
   20.7083   -5.5223    0.0000 C   0  0  0  0  0  0  0  0  0  0  0  0
   19.9988   -5.9392    0.0000 C   0  0  0  0  0  0  0  0  0  0  0  0
   18.5731   -5.9395    0.0000 O   0  0  0  0  0  0  0  0  0  0  0  0
   22.1381   -5.5154    0.0000 C   0  0  0  0  0  0  0  0  0  0  0  0
   22.8549   -5.9260    0.0000 C   0  0  0  0  0  0  0  0  0  0  0  0
   23.5668   -5.5106    0.0000 C   0  0  0  0  0  0  0  0  0  0  0  0
   23.5630   -4.6847    0.0000 C   0  0  0  0  0  0  0  0  0  0  0  0
   22.8415   -4.2760    0.0000 C   0  0  0  0  0  0  0  0  0  0  0  0
   22.1325   -4.6938    0.0000 C   0  0  0  0  0  0  0  0  0  0  0  0
   17.1495   -9.2485    0.0000 O   0  0  0  0  0  0  0  0  0  0  0  0
   16.4350   -9.6609    0.0000 C   0  0  0  0  0  0  0  0  0  0  0  0
   15.7201   -8.4226    0.0000 O   0  0  0  0  0  0  0  0  0  0  0  0
   15.0060   -8.0095    0.0000 C   0  0  0  0  0  0  0  0  0  0  0  0
   15.7215   -6.7710    0.0000 O   0  0  0  0  0  0  0  0  0  0  0  0
   15.7213   -5.9460    0.0000 C   0  0  0  0  0  0  0  0  0  0  0  0
   20.7206   -7.9973    0.0000 N   0  0  0  0  0  0  0  0  0  0  0  0
   21.4356   -8.4089    0.0000 C   0  0  0  0  0  0  0  0  0  0  0  0
   21.4367   -9.2339    0.0000 O   0  0  0  0  0  0  0  0  0  0  0  0
   22.1496   -7.9955    0.0000 C   0  0  0  0  0  0  0  0  0  0  0  0
  7 15  2  0
  3  4  1  0
  7  8  1  0
 16 17  2  0
 17 18  1  0
  8  9  1  0
 18 19  2  0
  4  5  2  0
 19 20  1  0
  9 10  2  0
 20 21  2  0
 21 16  1  0
 12 16  1  0
  2  3  2  0
  3 22  1  0
 10 11  1  0
 22 23  1  0
  5  6  1  0
  2 24  1  0
 11 12  2  0
 24 25  1  0
  6  1  2  0
  1 26  1  0
 12 13  1  0
 26 27  1  0
  1  2  1  0
 10 28  1  0
 13 14  2  0
 28 29  1  0
 14  9  1  0
 29 30  2  0
  5  7  1  0
 29 31  1  0
M  END
>  <Classification>  (415) 
1

>  <pchembl>  (415) 
5.72

>  <InChI_steorem>  (415) 
InChI=1S/C24H24N2O5/c1-15(27)25-20-12-17(16-8-6-5-7-9-16)10-11-19(20)26-24(28)18-13-21(29-2)23(31-4)22(14-18)30-3/h5-14H,1-4H3,(H,25,27)(H,26,28)

>  <source>  (415) 
ChEMBL25

>  <source_id>  (415) 
25

>  <optional_reference>  (415) 
10.1021/jm201305y

>  <optional_origin>  (415) 
None

>  <target>  (415) 
MDR1

$$$$

     RDKit          2D

 31 33  0  0  0  0  0  0  0  0999 V2000
   -4.7306   -0.5083    0.0000 C   0  0  0  0  0  0  0  0  0  0  0  0
   -4.7318   -1.3357    0.0000 C   0  0  0  0  0  0  0  0  0  0  0  0
   -4.0169   -1.7485    0.0000 C   0  0  0  0  0  0  0  0  0  0  0  0
   -3.3005   -1.3352    0.0000 C   0  0  0  0  0  0  0  0  0  0  0  0
   -3.3034   -0.5047    0.0000 C   0  0  0  0  0  0  0  0  0  0  0  0
   -4.0187   -0.0955    0.0000 C   0  0  0  0  0  0  0  0  0  0  0  0
   -2.5904   -0.0895    0.0000 C   0  0  0  0  0  0  0  0  0  0  0  0
   -1.8744   -0.4993    0.0000 N   0  0  0  0  0  0  0  0  0  0  0  0
   -1.1615   -0.0841    0.0000 C   0  0  0  0  0  0  0  0  0  0  0  0
   -0.4471   -0.4973    0.0000 C   0  0  0  0  0  0  0  0  0  0  0  0
    0.2653   -0.0828    0.0000 C   0  0  0  0  0  0  0  0  0  0  0  0
    0.2627    0.7431    0.0000 C   0  0  0  0  0  0  0  0  0  0  0  0
   -0.4584    1.1527    0.0000 C   0  0  0  0  0  0  0  0  0  0  0  0
   -1.1678    0.7358    0.0000 C   0  0  0  0  0  0  0  0  0  0  0  0
   -2.5936    0.7355    0.0000 O   0  0  0  0  0  0  0  0  0  0  0  0
   -4.0171   -2.5735    0.0000 O   0  0  0  0  0  0  0  0  0  0  0  0
   -5.4466   -1.7476    0.0000 O   0  0  0  0  0  0  0  0  0  0  0  0
   -5.4452   -0.0960    0.0000 O   0  0  0  0  0  0  0  0  0  0  0  0
   -0.4430   -1.3259    0.0000 N   0  0  0  0  0  0  0  0  0  0  0  0
    0.2720   -1.7375    0.0000 O   0  0  0  0  0  0  0  0  0  0  0  0
   -1.1570   -1.7393    0.0000 O   0  0  0  0  0  0  0  0  0  0  0  0
    0.9714    1.1596    0.0000 C   0  0  0  0  0  0  0  0  0  0  0  0
    1.6883    0.7490    0.0000 C   0  0  0  0  0  0  0  0  0  0  0  0
    2.4001    1.1644    0.0000 C   0  0  0  0  0  0  0  0  0  0  0  0
    2.3964    1.9903    0.0000 C   0  0  0  0  0  0  0  0  0  0  0  0
    1.6748    2.3990    0.0000 C   0  0  0  0  0  0  0  0  0  0  0  0
    0.9659    1.9812    0.0000 C   0  0  0  0  0  0  0  0  0  0  0  0
   -5.4454    0.7290    0.0000 C   0  0  0  0  0  0  0  0  0  0  0  0
    3.1165    0.7552    0.0000 C   0  0  0  0  0  0  0  0  0  0  0  0
    3.1203   -0.0697    0.0000 C   0  0  0  0  0  0  0  0  0  0  0  0
    3.8291    1.1710    0.0000 O   0  0  0  0  0  0  0  0  0  0  0  0
  7 15  2  0
  3  4  1  0
  3 16  1  0
  7  8  1  0
  2 17  1  0
  1 18  1  0
  8  9  1  0
  4  5  2  0
  9 10  2  0
 19 20  2  0
 19 21  1  0
 10 19  1  0
  2  3  2  0
 10 11  1  0
 22 23  2  0
  5  6  1  0
 23 24  1  0
 11 12  2  0
 24 25  2  0
  6  1  2  0
 25 26  1  0
 12 13  1  0
 26 27  2  0
 27 22  1  0
 12 22  1  0
  1  2  1  0
 18 28  1  0
 13 14  2  0
 24 29  1  0
 14  9  1  0
 29 30  1  0
  5  7  1  0
 29 31  2  0
M  CHG  2  19   1  21  -1
M  END
>  <Classification>  (416) 
1

>  <pchembl>  (416) 
5.04

>  <InChI_steorem>  (416) 
InChI=1S/C22H18N2O7/c1-12(25)13-4-3-5-14(8-13)15-6-7-17(18(9-15)24(29)30)23-22(28)16-10-19(26)21(27)20(11-16)31-2/h3-11,26-27H,1-2H3,(H,23,28)

>  <source>  (416) 
ChEMBL25

>  <source_id>  (416) 
25

>  <optional_reference>  (416) 
10.1021/jm201305y

>  <optional_origin>  (416) 
None

>  <target>  (416) 
MDR1

$$$$

     RDKit          2D

 31 33  0  0  0  0  0  0  0  0999 V2000
    6.5152   -7.0625    0.0000 C   0  0  0  0  0  0  0  0  0  0  0  0
    6.5141   -7.8898    0.0000 C   0  0  0  0  0  0  0  0  0  0  0  0
    7.2289   -8.3027    0.0000 C   0  0  0  0  0  0  0  0  0  0  0  0
    7.9453   -7.8894    0.0000 C   0  0  0  0  0  0  0  0  0  0  0  0
    7.9425   -7.0588    0.0000 C   0  0  0  0  0  0  0  0  0  0  0  0
    7.2271   -6.6497    0.0000 C   0  0  0  0  0  0  0  0  0  0  0  0
    8.6554   -6.6436    0.0000 C   0  0  0  0  0  0  0  0  0  0  0  0
    9.3714   -7.0534    0.0000 N   0  0  0  0  0  0  0  0  0  0  0  0
   10.0843   -6.6383    0.0000 C   0  0  0  0  0  0  0  0  0  0  0  0
   10.7987   -7.0515    0.0000 C   0  0  0  0  0  0  0  0  0  0  0  0
   11.5112   -6.6370    0.0000 C   0  0  0  0  0  0  0  0  0  0  0  0
   11.5085   -5.8111    0.0000 C   0  0  0  0  0  0  0  0  0  0  0  0
   10.7875   -5.4015    0.0000 C   0  0  0  0  0  0  0  0  0  0  0  0
   10.0780   -5.8183    0.0000 C   0  0  0  0  0  0  0  0  0  0  0  0
    8.6523   -5.8186    0.0000 O   0  0  0  0  0  0  0  0  0  0  0  0
    7.2287   -9.1277    0.0000 O   0  0  0  0  0  0  0  0  0  0  0  0
    6.5141   -9.5400    0.0000 C   0  0  0  0  0  0  0  0  0  0  0  0
    5.7993   -8.3018    0.0000 O   0  0  0  0  0  0  0  0  0  0  0  0
    5.0851   -7.8887    0.0000 C   0  0  0  0  0  0  0  0  0  0  0  0
    5.8007   -6.6501    0.0000 O   0  0  0  0  0  0  0  0  0  0  0  0
    5.8005   -5.8251    0.0000 C   0  0  0  0  0  0  0  0  0  0  0  0
   10.8028   -7.8801    0.0000 N   0  0  0  0  0  0  0  0  0  0  0  0
   11.5178   -8.2917    0.0000 O   0  0  0  0  0  0  0  0  0  0  0  0
   10.0888   -8.2935    0.0000 O   0  0  0  0  0  0  0  0  0  0  0  0
   12.2209   -5.3950    0.0000 C   0  0  0  0  0  0  0  0  0  0  0  0
   12.9341   -5.8052    0.0000 C   0  0  0  0  0  0  0  0  0  0  0  0
   13.6460   -5.3897    0.0000 N   0  0  0  0  0  0  0  0  0  0  0  0
   13.6422   -4.5638    0.0000 C   0  0  0  0  0  0  0  0  0  0  0  0
   12.9206   -4.1552    0.0000 C   0  0  0  0  0  0  0  0  0  0  0  0
   12.2117   -4.5730    0.0000 C   0  0  0  0  0  0  0  0  0  0  0  0
   14.3623   -5.7989    0.0000 C   0  0  0  0  0  0  0  0  0  0  0  0
  7 15  2  0
  5  7  1  0
  3 16  1  0
 16 17  1  0
  7  8  1  0
  2 18  1  0
  3  4  2  0
 18 19  1  0
  8  9  1  0
  1 20  1  0
  1  2  2  0
 20 21  1  0
  9 10  2  0
  4  5  1  0
 10 11  1  0
 22 23  2  0
 22 24  1  0
 10 22  1  0
 12 25  1  0
 11 12  2  0
 25 26  2  0
  5  6  2  0
 26 27  1  0
 12 13  1  0
 27 28  2  0
  6  1  1  0
 28 29  1  0
 13 14  2  0
 29 30  2  0
 30 25  1  0
 14  9  1  0
 27 31  1  0
  2  3  1  0
M  CHG  3  22   1  24  -1  27   1
M  END
>  <Classification>  (417) 
0

>  <pchembl>  (417) 
4.47

>  <InChI_steorem>  (417) 
InChI=1S/C22H21N3O6/c1-24-9-5-6-15(13-24)14-7-8-17(18(10-14)25(27)28)23-22(26)16-11-19(29-2)21(31-4)20(12-16)30-3/h5-13H,1-4H3

>  <source>  (417) 
ChEMBL25

>  <source_id>  (417) 
25

>  <optional_reference>  (417) 
10.1021/jm201305y

>  <optional_origin>  (417) 
None

>  <target>  (417) 
MDR1

$$$$

     RDKit          2D

 32 34  0  0  0  0  0  0  0  0999 V2000
   16.2611  -22.1958    0.0000 C   0  0  0  0  0  0  0  0  0  0  0  0
   16.2599  -23.0232    0.0000 C   0  0  0  0  0  0  0  0  0  0  0  0
   16.9747  -23.4360    0.0000 C   0  0  0  0  0  0  0  0  0  0  0  0
   17.6912  -23.0227    0.0000 C   0  0  0  0  0  0  0  0  0  0  0  0
   17.6883  -22.1922    0.0000 C   0  0  0  0  0  0  0  0  0  0  0  0
   16.9729  -21.7830    0.0000 C   0  0  0  0  0  0  0  0  0  0  0  0
   18.4012  -21.7770    0.0000 C   0  0  0  0  0  0  0  0  0  0  0  0
   19.1172  -22.1868    0.0000 N   0  0  0  0  0  0  0  0  0  0  0  0
   19.8302  -21.7716    0.0000 C   0  0  0  0  0  0  0  0  0  0  0  0
   20.5446  -22.1848    0.0000 C   0  0  0  0  0  0  0  0  0  0  0  0
   21.2570  -21.7703    0.0000 C   0  0  0  0  0  0  0  0  0  0  0  0
   21.2543  -20.9444    0.0000 C   0  0  0  0  0  0  0  0  0  0  0  0
   20.5333  -20.5348    0.0000 C   0  0  0  0  0  0  0  0  0  0  0  0
   19.8238  -20.9517    0.0000 C   0  0  0  0  0  0  0  0  0  0  0  0
   18.3981  -20.9520    0.0000 O   0  0  0  0  0  0  0  0  0  0  0  0
   16.9745  -24.2610    0.0000 O   0  0  0  0  0  0  0  0  0  0  0  0
   16.2600  -24.6734    0.0000 C   0  0  0  0  0  0  0  0  0  0  0  0
   15.5451  -23.4351    0.0000 O   0  0  0  0  0  0  0  0  0  0  0  0
   14.8310  -23.0220    0.0000 C   0  0  0  0  0  0  0  0  0  0  0  0
   15.5465  -21.7835    0.0000 O   0  0  0  0  0  0  0  0  0  0  0  0
   15.5463  -20.9585    0.0000 C   0  0  0  0  0  0  0  0  0  0  0  0
   20.5486  -23.0134    0.0000 N   0  0  0  0  0  0  0  0  0  0  0  0
   21.2636  -23.4250    0.0000 O   0  0  0  0  0  0  0  0  0  0  0  0
   19.8347  -23.4268    0.0000 O   0  0  0  0  0  0  0  0  0  0  0  0
   21.9631  -20.5279    0.0000 C   0  0  0  0  0  0  0  0  0  0  0  0
   22.6799  -20.9385    0.0000 C   0  0  0  0  0  0  0  0  0  0  0  0
   23.3918  -20.5231    0.0000 C   0  0  0  0  0  0  0  0  0  0  0  0
   23.3880  -19.6972    0.0000 C   0  0  0  0  0  0  0  0  0  0  0  0
   22.6665  -19.2885    0.0000 C   0  0  0  0  0  0  0  0  0  0  0  0
   21.9575  -19.7063    0.0000 C   0  0  0  0  0  0  0  0  0  0  0  0
   24.1082  -20.9323    0.0000 F   0  0  0  0  0  0  0  0  0  0  0  0
   22.6593  -18.4635    0.0000 F   0  0  0  0  0  0  0  0  0  0  0  0
  3  4  1  0
  3 16  1  0
  7  8  1  0
 16 17  1  0
  2 18  1  0
  8  9  1  0
 18 19  1  0
  4  5  2  0
  1 20  1  0
  9 10  2  0
 20 21  1  0
  2  3  2  0
 10 11  1  0
  5  6  1  0
 22 23  2  0
 22 24  1  0
 10 22  1  0
 11 12  2  0
  6  1  2  0
 25 26  2  0
 12 13  1  0
 26 27  1  0
  1  2  1  0
 27 28  2  0
 13 14  2  0
 28 29  1  0
 14  9  1  0
 29 30  2  0
 30 25  1  0
 12 25  1  0
  5  7  1  0
 27 31  1  0
  7 15  2  0
 29 32  1  0
M  CHG  2  22   1  24  -1
M  END
>  <Classification>  (418) 
1

>  <pchembl>  (418) 
5.58

>  <InChI_steorem>  (418) 
InChI=1S/C22H18F2N2O6/c1-30-19-9-14(10-20(31-2)21(19)32-3)22(27)25-17-5-4-12(8-18(17)26(28)29)13-6-15(23)11-16(24)7-13/h4-11H,1-3H3,(H,25,27)

>  <source>  (418) 
ChEMBL25

>  <source_id>  (418) 
25

>  <optional_reference>  (418) 
10.1021/jm201305y

>  <optional_origin>  (418) 
None

>  <target>  (418) 
MDR1

$$$$

     RDKit          2D

 32 34  0  0  0  0  0  0  0  0999 V2000
    5.3027   -0.7958    0.0000 C   0  0  0  0  0  0  0  0  0  0  0  0
    5.3016   -1.6232    0.0000 C   0  0  0  0  0  0  0  0  0  0  0  0
    6.0164   -2.0360    0.0000 C   0  0  0  0  0  0  0  0  0  0  0  0
    6.7328   -1.6227    0.0000 C   0  0  0  0  0  0  0  0  0  0  0  0
    6.7300   -0.7922    0.0000 C   0  0  0  0  0  0  0  0  0  0  0  0
    6.0146   -0.3830    0.0000 C   0  0  0  0  0  0  0  0  0  0  0  0
    7.4429   -0.3770    0.0000 C   0  0  0  0  0  0  0  0  0  0  0  0
    8.1589   -0.7868    0.0000 N   0  0  0  0  0  0  0  0  0  0  0  0
    8.8718   -0.3716    0.0000 C   0  0  0  0  0  0  0  0  0  0  0  0
    9.5862   -0.7848    0.0000 C   0  0  0  0  0  0  0  0  0  0  0  0
   10.2987   -0.3703    0.0000 C   0  0  0  0  0  0  0  0  0  0  0  0
   10.2960    0.4556    0.0000 C   0  0  0  0  0  0  0  0  0  0  0  0
    9.5750    0.8652    0.0000 C   0  0  0  0  0  0  0  0  0  0  0  0
    8.8655    0.4483    0.0000 C   0  0  0  0  0  0  0  0  0  0  0  0
    7.4398    0.4480    0.0000 O   0  0  0  0  0  0  0  0  0  0  0  0
    6.0162   -2.8610    0.0000 O   0  0  0  0  0  0  0  0  0  0  0  0
    4.5868   -2.0351    0.0000 O   0  0  0  0  0  0  0  0  0  0  0  0
    4.5882   -0.3835    0.0000 O   0  0  0  0  0  0  0  0  0  0  0  0
    9.5903   -1.6134    0.0000 N   0  0  0  0  0  0  0  0  0  0  0  0
   10.3053   -2.0250    0.0000 O   0  0  0  0  0  0  0  0  0  0  0  0
    8.8763   -2.0268    0.0000 O   0  0  0  0  0  0  0  0  0  0  0  0
   11.0047    0.8721    0.0000 C   0  0  0  0  0  0  0  0  0  0  0  0
   11.7216    0.4615    0.0000 C   0  0  0  0  0  0  0  0  0  0  0  0
   12.4335    0.8769    0.0000 C   0  0  0  0  0  0  0  0  0  0  0  0
   12.4297    1.7028    0.0000 C   0  0  0  0  0  0  0  0  0  0  0  0
   11.7081    2.1115    0.0000 C   0  0  0  0  0  0  0  0  0  0  0  0
   10.9992    1.6937    0.0000 C   0  0  0  0  0  0  0  0  0  0  0  0
    4.5880    0.4415    0.0000 C   0  0  0  0  0  0  0  0  0  0  0  0
   13.1498    0.4677    0.0000 O   0  0  0  0  0  0  0  0  0  0  0  0
   13.1415    2.1199    0.0000 O   0  0  0  0  0  0  0  0  0  0  0  0
   11.7010    2.9365    0.0000 O   0  0  0  0  0  0  0  0  0  0  0  0
   12.4119    3.3551    0.0000 C   0  0  0  0  0  0  0  0  0  0  0  0
  3  4  1  0
  3 16  1  0
  7  8  1  0
  2 17  1  0
  1 18  1  0
  8  9  1  0
  4  5  2  0
  9 10  2  0
 19 20  2  0
 19 21  1  0
 10 19  1  0
  2  3  2  0
 10 11  1  0
 22 23  2  0
  5  6  1  0
 23 24  1  0
 11 12  2  0
 24 25  2  0
  6  1  2  0
 25 26  1  0
 12 13  1  0
 26 27  2  0
 27 22  1  0
 12 22  1  0
  1  2  1  0
 18 28  1  0
 13 14  2  0
 24 29  1  0
 14  9  1  0
 25 30  1  0
  5  7  1  0
 26 31  1  0
  7 15  2  0
 31 32  1  0
M  CHG  2  19   1  21  -1
M  END
>  <Classification>  (419) 
1

>  <pchembl>  (419) 
5.51

>  <InChI_steorem>  (419) 
InChI=1S/C21H18N2O9/c1-31-17-8-11(6-15(24)19(17)26)10-3-4-13(14(5-10)23(29)30)22-21(28)12-7-16(25)20(27)18(9-12)32-2/h3-9,24-27H,1-2H3,(H,22,28)

>  <source>  (419) 
ChEMBL25

>  <source_id>  (419) 
25

>  <optional_reference>  (419) 
10.1021/jm201305y

>  <optional_origin>  (419) 
None

>  <target>  (419) 
MDR1

$$$$

     RDKit          2D

 33 35  0  0  0  0  0  0  0  0999 V2000
    5.8236   -0.1750    0.0000 C   0  0  0  0  0  0  0  0  0  0  0  0
    5.8224   -1.0023    0.0000 C   0  0  0  0  0  0  0  0  0  0  0  0
    6.5372   -1.4152    0.0000 C   0  0  0  0  0  0  0  0  0  0  0  0
    7.2537   -1.0019    0.0000 C   0  0  0  0  0  0  0  0  0  0  0  0
    7.2508   -0.1713    0.0000 C   0  0  0  0  0  0  0  0  0  0  0  0
    6.5354    0.2378    0.0000 C   0  0  0  0  0  0  0  0  0  0  0  0
    7.9637    0.2439    0.0000 C   0  0  0  0  0  0  0  0  0  0  0  0
    8.6797   -0.1659    0.0000 N   0  0  0  0  0  0  0  0  0  0  0  0
    9.3927    0.2492    0.0000 C   0  0  0  0  0  0  0  0  0  0  0  0
   10.1071   -0.1640    0.0000 C   0  0  0  0  0  0  0  0  0  0  0  0
   10.8195    0.2505    0.0000 C   0  0  0  0  0  0  0  0  0  0  0  0
   10.8168    1.0764    0.0000 C   0  0  0  0  0  0  0  0  0  0  0  0
   10.0958    1.4860    0.0000 C   0  0  0  0  0  0  0  0  0  0  0  0
    9.3863    1.0692    0.0000 C   0  0  0  0  0  0  0  0  0  0  0  0
    7.9606    1.0689    0.0000 O   0  0  0  0  0  0  0  0  0  0  0  0
    6.5370   -2.2402    0.0000 O   0  0  0  0  0  0  0  0  0  0  0  0
    5.8224   -2.6525    0.0000 C   0  0  0  0  0  0  0  0  0  0  0  0
    5.1076   -1.4143    0.0000 O   0  0  0  0  0  0  0  0  0  0  0  0
    4.3935   -1.0012    0.0000 C   0  0  0  0  0  0  0  0  0  0  0  0
    5.1090    0.2374    0.0000 O   0  0  0  0  0  0  0  0  0  0  0  0
    5.1088    1.0624    0.0000 C   0  0  0  0  0  0  0  0  0  0  0  0
   10.1111   -0.9926    0.0000 N   0  0  0  0  0  0  0  0  0  0  0  0
   10.8261   -1.4042    0.0000 O   0  0  0  0  0  0  0  0  0  0  0  0
    9.3972   -1.4060    0.0000 O   0  0  0  0  0  0  0  0  0  0  0  0
   11.5256    1.4929    0.0000 C   0  0  0  0  0  0  0  0  0  0  0  0
   12.2424    1.0823    0.0000 C   0  0  0  0  0  0  0  0  0  0  0  0
   12.9543    1.4978    0.0000 C   0  0  0  0  0  0  0  0  0  0  0  0
   12.9505    2.3237    0.0000 C   0  0  0  0  0  0  0  0  0  0  0  0
   12.2290    2.7323    0.0000 C   0  0  0  0  0  0  0  0  0  0  0  0
   11.5200    2.3145    0.0000 C   0  0  0  0  0  0  0  0  0  0  0  0
   13.6707    1.0886    0.0000 C   0  0  0  0  0  0  0  0  0  0  0  0
   13.6745    0.2636    0.0000 C   0  0  0  0  0  0  0  0  0  0  0  0
   14.3832    1.5044    0.0000 O   0  0  0  0  0  0  0  0  0  0  0  0
  3 16  1  0
  7  8  1  0
 16 17  1  0
  2 18  1  0
  8  9  1  0
 18 19  1  0
  4  5  2  0
  1 20  1  0
  9 10  2  0
 20 21  1  0
  2  3  2  0
 10 11  1  0
  5  6  1  0
 22 23  2  0
 22 24  1  0
 10 22  1  0
 11 12  2  0
  6  1  2  0
 25 26  2  0
 12 13  1  0
 26 27  1  0
  1  2  1  0
 27 28  2  0
 13 14  2  0
 28 29  1  0
 14  9  1  0
 29 30  2  0
 30 25  1  0
 12 25  1  0
  5  7  1  0
 27 31  1  0
  7 15  2  0
 31 32  1  0
  3  4  1  0
 31 33  2  0
M  CHG  2  22   1  24  -1
M  END
>  <Classification>  (420) 
1

>  <pchembl>  (420) 
6.22

>  <InChI_steorem>  (420) 
InChI=1S/C24H22N2O7/c1-14(27)15-6-5-7-16(10-15)17-8-9-19(20(11-17)26(29)30)25-24(28)18-12-21(31-2)23(33-4)22(13-18)32-3/h5-13H,1-4H3,(H,25,28)

>  <source>  (420) 
ChEMBL25

>  <source_id>  (420) 
25

>  <optional_reference>  (420) 
10.1021/jm201305y

>  <optional_origin>  (420) 
None

>  <target>  (420) 
MDR1

$$$$

     RDKit          2D

 33 36  0  0  0  0  0  0  0  0999 V2000
   -3.8927    0.1375    0.0000 C   0  0  0  0  0  0  0  0  0  0  0  0
   -3.8939   -0.6897    0.0000 C   0  0  0  0  0  0  0  0  0  0  0  0
   -3.1791   -1.1026    0.0000 C   0  0  0  0  0  0  0  0  0  0  0  0
   -2.4628   -0.6893    0.0000 C   0  0  0  0  0  0  0  0  0  0  0  0
   -2.4657    0.1412    0.0000 C   0  0  0  0  0  0  0  0  0  0  0  0
   -3.1809    0.5502    0.0000 C   0  0  0  0  0  0  0  0  0  0  0  0
   -1.7527    0.5563    0.0000 C   0  0  0  0  0  0  0  0  0  0  0  0
   -1.0368    0.1466    0.0000 N   0  0  0  0  0  0  0  0  0  0  0  0
   -0.3240    0.5616    0.0000 C   0  0  0  0  0  0  0  0  0  0  0  0
    0.3904    0.1485    0.0000 C   0  0  0  0  0  0  0  0  0  0  0  0
    1.1027    0.5629    0.0000 C   0  0  0  0  0  0  0  0  0  0  0  0
    1.1001    1.3888    0.0000 C   0  0  0  0  0  0  0  0  0  0  0  0
    0.3791    1.7983    0.0000 C   0  0  0  0  0  0  0  0  0  0  0  0
   -0.3303    1.3816    0.0000 C   0  0  0  0  0  0  0  0  0  0  0  0
   -1.7559    1.3813    0.0000 O   0  0  0  0  0  0  0  0  0  0  0  0
   -3.1793   -1.9275    0.0000 O   0  0  0  0  0  0  0  0  0  0  0  0
   -3.8938   -2.3398    0.0000 C   0  0  0  0  0  0  0  0  0  0  0  0
   -4.6086   -1.1017    0.0000 O   0  0  0  0  0  0  0  0  0  0  0  0
   -5.3227   -0.6886    0.0000 C   0  0  0  0  0  0  0  0  0  0  0  0
   -4.6072    0.5498    0.0000 O   0  0  0  0  0  0  0  0  0  0  0  0
   -4.6074    1.3748    0.0000 C   0  0  0  0  0  0  0  0  0  0  0  0
    0.3945   -0.6800    0.0000 N   0  0  0  0  0  0  0  0  0  0  0  0
    1.1094   -1.0916    0.0000 O   0  0  0  0  0  0  0  0  0  0  0  0
   -0.3195   -1.0934    0.0000 O   0  0  0  0  0  0  0  0  0  0  0  0
    1.8087    1.8052    0.0000 C   0  0  0  0  0  0  0  0  0  0  0  0
    2.5255    1.3947    0.0000 C   0  0  0  0  0  0  0  0  0  0  0  0
    2.5121    3.0445    0.0000 C   0  0  0  0  0  0  0  0  0  0  0  0
    1.8032    2.6267    0.0000 C   0  0  0  0  0  0  0  0  0  0  0  0
    3.2336    2.6359    0.0000 C   0  0  0  0  0  0  0  0  0  0  0  0
    3.2352    1.8103    0.0000 C   0  0  0  0  0  0  0  0  0  0  0  0
    4.0208    1.5566    0.0000 O   0  0  0  0  0  0  0  0  0  0  0  0
    4.5049    2.2255    0.0000 C   0  0  0  0  0  0  0  0  0  0  0  0
    4.0183    2.8924    0.0000 O   0  0  0  0  0  0  0  0  0  0  0  0
  3 16  1  0
  7  8  1  0
 16 17  1  0
  2 18  1  0
  8  9  1  0
 18 19  1  0
  4  5  2  0
  1 20  1  0
  9 10  2  0
 20 21  1  0
  2  3  2  0
 10 11  1  0
  5  6  1  0
 22 23  2  0
 22 24  1  0
 10 22  1  0
 11 12  2  0
  6  1  2  0
 25 26  2  0
 26 30  1  0
 12 13  1  0
 29 27  1  0
  1  2  1  0
 27 28  2  0
 28 25  1  0
 12 25  1  0
 29 30  2  0
 13 14  2  0
 14  9  1  0
  5  7  1  0
  7 15  2  0
  3  4  1  0
 30 31  1  0
 31 32  1  0
 32 33  1  0
 33 29  1  0
M  CHG  2  22   1  24  -1
M  END
>  <Classification>  (421) 
1

>  <pchembl>  (421) 
6.7

>  <InChI_steorem>  (421) 
InChI=1S/C23H20N2O8/c1-29-20-10-15(11-21(30-2)22(20)31-3)23(26)24-16-6-4-13(8-17(16)25(27)28)14-5-7-18-19(9-14)33-12-32-18/h4-11H,12H2,1-3H3,(H,24,26)

>  <source>  (421) 
ChEMBL25

>  <source_id>  (421) 
25

>  <optional_reference>  (421) 
10.1021/jm201305y

>  <optional_origin>  (421) 
None

>  <target>  (421) 
MDR1

$$$$

     RDKit          2D

 36 38  0  0  0  0  0  0  0  0999 V2000
   15.9069   -0.6541    0.0000 C   0  0  0  0  0  0  0  0  0  0  0  0
   15.9057   -1.4815    0.0000 C   0  0  0  0  0  0  0  0  0  0  0  0
   16.6206   -1.8944    0.0000 C   0  0  0  0  0  0  0  0  0  0  0  0
   17.3370   -1.4810    0.0000 C   0  0  0  0  0  0  0  0  0  0  0  0
   17.3341   -0.6505    0.0000 C   0  0  0  0  0  0  0  0  0  0  0  0
   16.6187   -0.2414    0.0000 C   0  0  0  0  0  0  0  0  0  0  0  0
   18.0471   -0.2353    0.0000 C   0  0  0  0  0  0  0  0  0  0  0  0
   18.7631   -0.6451    0.0000 N   0  0  0  0  0  0  0  0  0  0  0  0
   19.4760   -0.2299    0.0000 C   0  0  0  0  0  0  0  0  0  0  0  0
   20.1904   -0.6432    0.0000 C   0  0  0  0  0  0  0  0  0  0  0  0
   20.9028   -0.2287    0.0000 C   0  0  0  0  0  0  0  0  0  0  0  0
   20.9002    0.5972    0.0000 C   0  0  0  0  0  0  0  0  0  0  0  0
   20.1791    1.0068    0.0000 C   0  0  0  0  0  0  0  0  0  0  0  0
   19.4697    0.5900    0.0000 C   0  0  0  0  0  0  0  0  0  0  0  0
   18.0439    0.5897    0.0000 O   0  0  0  0  0  0  0  0  0  0  0  0
   16.6204   -2.7194    0.0000 O   0  0  0  0  0  0  0  0  0  0  0  0
   15.9058   -3.1317    0.0000 C   0  0  0  0  0  0  0  0  0  0  0  0
   15.1910   -1.8934    0.0000 O   0  0  0  0  0  0  0  0  0  0  0  0
   14.4768   -1.4804    0.0000 C   0  0  0  0  0  0  0  0  0  0  0  0
   15.1923   -0.2418    0.0000 O   0  0  0  0  0  0  0  0  0  0  0  0
   15.1921    0.5832    0.0000 C   0  0  0  0  0  0  0  0  0  0  0  0
   20.1945   -1.4717    0.0000 N   0  0  0  0  0  0  0  0  0  0  0  0
   20.9095   -1.8833    0.0000 O   0  0  0  0  0  0  0  0  0  0  0  0
   19.4805   -1.8851    0.0000 O   0  0  0  0  0  0  0  0  0  0  0  0
   21.6089    1.0137    0.0000 C   0  0  0  0  0  0  0  0  0  0  0  0
   22.3258    0.6032    0.0000 C   0  0  0  0  0  0  0  0  0  0  0  0
   23.0376    1.0186    0.0000 C   0  0  0  0  0  0  0  0  0  0  0  0
   23.0339    1.8445    0.0000 C   0  0  0  0  0  0  0  0  0  0  0  0
   22.3123    2.2531    0.0000 C   0  0  0  0  0  0  0  0  0  0  0  0
   21.6034    1.8353    0.0000 C   0  0  0  0  0  0  0  0  0  0  0  0
   23.7540    0.6094    0.0000 O   0  0  0  0  0  0  0  0  0  0  0  0
   23.7578   -0.2156    0.0000 C   0  0  0  0  0  0  0  0  0  0  0  0
   23.7457    2.2616    0.0000 O   0  0  0  0  0  0  0  0  0  0  0  0
   24.4628    1.8537    0.0000 C   0  0  0  0  0  0  0  0  0  0  0  0
   22.3052    3.0781    0.0000 O   0  0  0  0  0  0  0  0  0  0  0  0
   23.0161    3.4968    0.0000 C   0  0  0  0  0  0  0  0  0  0  0  0
  2 18  1  0
  8  9  1  0
 18 19  1  0
  4  5  2  0
  1 20  1  0
  9 10  2  0
 20 21  1  0
  2  3  2  0
 10 11  1  0
  5  6  1  0
 22 23  2  0
 22 24  1  0
 10 22  1  0
 11 12  2  0
  6  1  2  0
 25 26  2  0
 12 13  1  0
 26 27  1  0
  1  2  1  0
 27 28  2  0
 13 14  2  0
 28 29  1  0
 14  9  1  0
 29 30  2  0
 30 25  1  0
 12 25  1  0
  5  7  1  0
 27 31  1  0
  7 15  2  0
 31 32  1  0
  3  4  1  0
 28 33  1  0
  3 16  1  0
 33 34  1  0
  7  8  1  0
 29 35  1  0
 16 17  1  0
 35 36  1  0
M  CHG  2  22   1  24  -1
M  END
>  <Classification>  (422) 
0

>  <pchembl>  (422) 
4.61

>  <InChI_steorem>  (422) 
InChI=1S/C25H26N2O9/c1-31-19-10-15(11-20(32-2)23(19)35-5)14-7-8-17(18(9-14)27(29)30)26-25(28)16-12-21(33-3)24(36-6)22(13-16)34-4/h7-13H,1-6H3,(H,26,28)

>  <source>  (422) 
ChEMBL25

>  <source_id>  (422) 
25

>  <optional_reference>  (422) 
10.1021/jm201305y

>  <optional_origin>  (422) 
None

>  <target>  (422) 
MDR1

$$$$

     RDKit          2D

 26 28  0  0  0  0  0  0  0  0999 V2000
   19.4225  -12.0748    0.0000 C   0  0  0  0  0  0  0  0  0  0  0  0
   20.1321  -11.6654    0.0000 C   0  0  0  0  0  0  0  0  0  0  0  0
   20.1293  -10.8427    0.0000 C   0  0  0  0  0  0  0  0  0  0  0  0
   19.4207  -10.4375    0.0000 C   0  0  0  0  0  0  0  0  0  0  0  0
   20.8355  -10.4315    0.0000 C   0  0  0  0  0  0  0  0  0  0  0  0
   21.5447  -10.8374    0.0000 C   0  0  0  0  0  0  0  0  0  0  0  0
   20.8324   -9.6143    0.0000 O   0  0  0  0  0  0  0  0  0  0  0  0
   22.2509  -10.4261    0.0000 C   0  0  0  0  0  0  0  0  0  0  0  0
   22.9601  -10.8321    0.0000 C   0  0  0  0  0  0  0  0  0  0  0  0
   22.9601  -11.6481    0.0000 C   0  0  0  0  0  0  0  0  0  0  0  0
   23.6685  -12.0540    0.0000 C   0  0  0  0  0  0  0  0  0  0  0  0
   24.3756  -11.6426    0.0000 C   0  0  0  0  0  0  0  0  0  0  0  0
   24.3699  -10.8212    0.0000 C   0  0  0  0  0  0  0  0  0  0  0  0
   23.6610  -10.4191    0.0000 C   0  0  0  0  0  0  0  0  0  0  0  0
   25.0746  -10.4075    0.0000 O   0  0  0  0  0  0  0  0  0  0  0  0
   25.7853  -10.8109    0.0000 C   0  0  0  0  0  0  0  0  0  0  0  0
   25.0854  -12.0476    0.0000 O   0  0  0  0  0  0  0  0  0  0  0  0
   25.0896  -12.8648    0.0000 C   0  0  0  0  0  0  0  0  0  0  0  0
   23.6712  -12.8712    0.0000 O   0  0  0  0  0  0  0  0  0  0  0  0
   22.9648  -13.2821    0.0000 C   0  0  0  0  0  0  0  0  0  0  0  0
   18.7144  -11.6659    0.0000 C   0  0  0  0  0  0  0  0  0  0  0  0
   18.7167  -10.8481    0.0000 C   0  0  0  0  0  0  0  0  0  0  0  0
   18.0108  -10.4390    0.0000 C   0  0  0  0  0  0  0  0  0  0  0  0
   17.3021  -10.8466    0.0000 C   0  0  0  0  0  0  0  0  0  0  0  0
   17.3037  -11.6675    0.0000 C   0  0  0  0  0  0  0  0  0  0  0  0
   18.0103  -12.0728    0.0000 C   0  0  0  0  0  0  0  0  0  0  0  0
 21  1  2  0
  1  2  1  0
  2  3  2  0
  3  4  1  0
  4 22  2  0
  3  5  1  0
  5  6  1  0
  5  7  2  0
  6  8  2  3
  8  9  1  0
  9 10  2  0
 10 11  1  0
 11 12  2  0
 12 13  1  0
 13 14  2  0
 14  9  1  0
 13 15  1  0
 15 16  1  0
 12 17  1  0
 17 18  1  0
 11 19  1  0
 19 20  1  0
 21 22  1  0
 22 23  1  0
 23 24  2  0
 24 25  1  0
 25 26  2  0
 26 21  1  0
M  END
>  <Classification>  (423) 
0

>  <pchembl>  (423) 
4.89

>  <InChI_steorem>  (423) 
InChI=1S/C22H20O4/c1-24-20-12-15(13-21(25-2)22(20)26-3)8-11-19(23)18-10-9-16-6-4-5-7-17(16)14-18/h4-14H,1-3H3

>  <source>  (423) 
ChEMBL25

>  <source_id>  (423) 
25

>  <optional_reference>  (423) 
10.1016/j.bmcl.2016.09.076

>  <optional_origin>  (423) 
None

>  <target>  (423) 
MDR1

$$$$

     RDKit          2D

 24 25  0  0  0  0  0  0  0  0999 V2000
    3.5617   -9.9233    0.0000 C   0  0  0  0  0  0  0  0  0  0  0  0
    4.3772   -9.9244    0.0000 C   0  0  0  0  0  0  0  0  0  0  0  0
    4.7841   -9.2199    0.0000 C   0  0  0  0  0  0  0  0  0  0  0  0
    4.3767   -8.5138    0.0000 C   0  0  0  0  0  0  0  0  0  0  0  0
    3.5582   -8.5167    0.0000 C   0  0  0  0  0  0  0  0  0  0  0  0
    3.1549   -9.2217    0.0000 C   0  0  0  0  0  0  0  0  0  0  0  0
    5.6013   -9.2201    0.0000 C   0  0  0  0  0  0  0  0  0  0  0  0
    6.0097   -9.9279    0.0000 O   0  0  0  0  0  0  0  0  0  0  0  0
    6.0100   -8.5125    0.0000 N   0  0  0  0  0  0  0  0  0  0  0  0
    6.8272   -8.5127    0.0000 N   0  0  0  0  0  0  0  0  0  0  0  0
    5.6016   -7.8047    0.0000 C   0  0  0  0  0  0  0  0  0  0  0  0
    6.0104   -7.0971    0.0000 C   0  0  0  0  0  0  0  0  0  0  0  0
    4.7844   -7.8045    0.0000 C   0  0  0  0  0  0  0  0  0  0  0  0
    5.1879   -7.0947    0.0000 C   0  0  0  0  0  0  0  0  0  0  0  0
    7.2356   -9.2205    0.0000 C   0  0  0  0  0  0  0  0  0  0  0  0
    8.0528   -9.2207    0.0000 C   0  0  0  0  0  0  0  0  0  0  0  0
    6.8269   -9.9281    0.0000 O   0  0  0  0  0  0  0  0  0  0  0  0
    8.4586   -9.9307    0.0000 C   0  0  0  0  0  0  0  0  0  0  0  0
    9.2751   -9.9313    0.0000 C   0  0  0  0  0  0  0  0  0  0  0  0
    9.6846   -9.2231    0.0000 C   0  0  0  0  0  0  0  0  0  0  0  0
    9.2718   -8.5130    0.0000 C   0  0  0  0  0  0  0  0  0  0  0  0
    8.4567   -8.5159    0.0000 C   0  0  0  0  0  0  0  0  0  0  0  0
    4.7852  -10.6325    0.0000 Cl  0  0  0  0  0  0  0  0  0  0  0  0
    9.6831  -10.6393    0.0000 Cl  0  0  0  0  0  0  0  0  0  0  0  0
  1  2  2  0
  2  3  1  0
  3  4  2  0
  4  5  1  0
  5  6  2  0
  6  1  1  0
  3  7  1  0
  7  8  2  0
  7  9  1  0
  9 10  1  0
  9 11  1  0
 11 12  1  0
 11 13  1  0
 11 14  1  0
 10 15  1  0
 15 16  1  0
 15 17  2  0
 16 18  2  0
 18 19  1  0
 19 20  2  0
 20 21  1  0
 21 22  2  0
 22 16  1  0
  2 23  1  0
 19 24  1  0
M  END
>  <Classification>  (424) 
0

>  <pchembl>  (424) 
4.34

>  <InChI_steorem>  (424) 
InChI=1S/C18H18Cl2N2O2/c1-18(2,3)22(17(24)14-9-4-5-10-15(14)20)21-16(23)12-7-6-8-13(19)11-12/h4-11H,1-3H3,(H,21,23)

>  <source>  (424) 
ChEMBL25

>  <source_id>  (424) 
25

>  <optional_reference>  (424) 
10.1016/j.bmc.2016.05.039

>  <optional_origin>  (424) 
None

>  <target>  (424) 
MDR1

$$$$

     RDKit          2D

 25 26  0  0  0  0  0  0  0  0999 V2000
   17.4691   -1.3867    0.0000 C   0  0  0  0  0  0  0  0  0  0  0  0
   17.4680   -2.2062    0.0000 C   0  0  0  0  0  0  0  0  0  0  0  0
   18.1760   -2.6152    0.0000 C   0  0  0  0  0  0  0  0  0  0  0  0
   18.8857   -2.2058    0.0000 C   0  0  0  0  0  0  0  0  0  0  0  0
   18.8829   -1.3831    0.0000 C   0  0  0  0  0  0  0  0  0  0  0  0
   18.1743   -0.9778    0.0000 C   0  0  0  0  0  0  0  0  0  0  0  0
   19.5941   -2.6133    0.0000 C   0  0  0  0  0  0  0  0  0  0  0  0
   19.5953   -3.4305    0.0000 O   0  0  0  0  0  0  0  0  0  0  0  0
   20.3011   -2.2036    0.0000 N   0  0  0  0  0  0  0  0  0  0  0  0
   21.0095   -2.6110    0.0000 N   0  0  0  0  0  0  0  0  0  0  0  0
   21.7165   -2.2013    0.0000 C   0  0  0  0  0  0  0  0  0  0  0  0
   22.4249   -2.6088    0.0000 C   0  0  0  0  0  0  0  0  0  0  0  0
   21.7153   -1.3841    0.0000 O   0  0  0  0  0  0  0  0  0  0  0  0
   20.2998   -1.3864    0.0000 C   0  0  0  0  0  0  0  0  0  0  0  0
   21.0069   -0.9767    0.0000 C   0  0  0  0  0  0  0  0  0  0  0  0
   19.5915   -0.9789    0.0000 C   0  0  0  0  0  0  0  0  0  0  0  0
   20.2936   -0.5654    0.0000 C   0  0  0  0  0  0  0  0  0  0  0  0
   22.4218   -3.4267    0.0000 C   0  0  0  0  0  0  0  0  0  0  0  0
   23.1293   -3.8341    0.0000 C   0  0  0  0  0  0  0  0  0  0  0  0
   23.8373   -3.4243    0.0000 C   0  0  0  0  0  0  0  0  0  0  0  0
   23.8334   -2.6029    0.0000 C   0  0  0  0  0  0  0  0  0  0  0  0
   23.1253   -2.1992    0.0000 C   0  0  0  0  0  0  0  0  0  0  0  0
   18.1758   -3.4324    0.0000 Cl  0  0  0  0  0  0  0  0  0  0  0  0
   23.1208   -1.3820    0.0000 C   0  0  0  0  0  0  0  0  0  0  0  0
   23.1302   -4.6513    0.0000 C   0  0  0  0  0  0  0  0  0  0  0  0
  1  2  2  0
  2  3  1  0
  3  4  2  0
  4  5  1  0
  5  6  2  0
  6  1  1  0
  4  7  1  0
  7  8  2  0
  7  9  1  0
  9 10  1  0
 10 11  1  0
 11 12  1  0
 11 13  2  0
  9 14  1  0
 14 15  1  0
 14 16  1  0
 14 17  1  0
 12 18  2  0
 18 19  1  0
 19 20  2  0
 20 21  1  0
 21 22  2  0
 22 12  1  0
  3 23  1  0
 22 24  1  0
 19 25  1  0
M  END
>  <Classification>  (425) 
0

>  <pchembl>  (425) 
4.13

>  <InChI_steorem>  (425) 
InChI=1S/C20H23ClN2O2/c1-13-10-11-14(2)16(12-13)18(24)22-23(20(3,4)5)19(25)15-8-6-7-9-17(15)21/h6-12H,1-5H3,(H,22,24)

>  <source>  (425) 
ChEMBL25

>  <source_id>  (425) 
25

>  <optional_reference>  (425) 
10.1016/j.bmc.2016.05.039

>  <optional_origin>  (425) 
None

>  <target>  (425) 
MDR1

$$$$

     RDKit          2D

 26 27  0  0  0  0  0  0  0  0999 V2000
   35.4143   -1.9975    0.0000 C   0  0  0  0  0  0  0  0  0  0  0  0
   35.4132   -2.8171    0.0000 C   0  0  0  0  0  0  0  0  0  0  0  0
   36.1212   -3.2260    0.0000 C   0  0  0  0  0  0  0  0  0  0  0  0
   36.8309   -2.8166    0.0000 C   0  0  0  0  0  0  0  0  0  0  0  0
   36.8281   -1.9939    0.0000 C   0  0  0  0  0  0  0  0  0  0  0  0
   36.1194   -1.5887    0.0000 C   0  0  0  0  0  0  0  0  0  0  0  0
   37.5392   -3.2241    0.0000 C   0  0  0  0  0  0  0  0  0  0  0  0
   37.5405   -4.0413    0.0000 O   0  0  0  0  0  0  0  0  0  0  0  0
   38.2463   -2.8144    0.0000 N   0  0  0  0  0  0  0  0  0  0  0  0
   38.9547   -3.2219    0.0000 N   0  0  0  0  0  0  0  0  0  0  0  0
   39.6617   -2.8122    0.0000 C   0  0  0  0  0  0  0  0  0  0  0  0
   40.3701   -3.2196    0.0000 C   0  0  0  0  0  0  0  0  0  0  0  0
   39.6604   -1.9950    0.0000 O   0  0  0  0  0  0  0  0  0  0  0  0
   38.2450   -1.9972    0.0000 C   0  0  0  0  0  0  0  0  0  0  0  0
   38.9521   -1.5875    0.0000 C   0  0  0  0  0  0  0  0  0  0  0  0
   37.5367   -1.5897    0.0000 C   0  0  0  0  0  0  0  0  0  0  0  0
   38.2388   -1.1763    0.0000 C   0  0  0  0  0  0  0  0  0  0  0  0
   40.3670   -4.0375    0.0000 C   0  0  0  0  0  0  0  0  0  0  0  0
   41.0745   -4.4449    0.0000 C   0  0  0  0  0  0  0  0  0  0  0  0
   41.7825   -4.0351    0.0000 C   0  0  0  0  0  0  0  0  0  0  0  0
   41.7786   -3.2137    0.0000 C   0  0  0  0  0  0  0  0  0  0  0  0
   41.0705   -2.8100    0.0000 C   0  0  0  0  0  0  0  0  0  0  0  0
   34.7052   -3.2251    0.0000 C   0  0  0  0  0  0  0  0  0  0  0  0
   36.1170   -0.7715    0.0000 C   0  0  0  0  0  0  0  0  0  0  0  0
   42.4842   -2.8015    0.0000 O   0  0  0  0  0  0  0  0  0  0  0  0
   43.1940   -3.2065    0.0000 C   0  0  0  0  0  0  0  0  0  0  0  0
  1  2  2  0
  2  3  1  0
  3  4  2  0
  4  5  1  0
  5  6  2  0
  6  1  1  0
  4  7  1  0
  7  8  2  0
  7  9  1  0
  9 10  1  0
 10 11  1  0
 11 12  1  0
 11 13  2  0
  9 14  1  0
 14 15  1  0
 14 16  1  0
 14 17  1  0
 12 18  2  0
 18 19  1  0
 19 20  2  0
 20 21  1  0
 21 22  2  0
 22 12  1  0
  2 23  1  0
  6 24  1  0
 21 25  1  0
 25 26  1  0
M  END
>  <Classification>  (426) 
0

>  <pchembl>  (426) 
4.24

>  <InChI_steorem>  (426) 
InChI=1S/C21H26N2O3/c1-14-10-15(2)12-17(11-14)20(25)23(21(3,4)5)22-19(24)16-8-7-9-18(13-16)26-6/h7-13H,1-6H3,(H,22,24)

>  <source>  (426) 
ChEMBL25

>  <source_id>  (426) 
25

>  <optional_reference>  (426) 
10.1016/j.bmc.2016.05.039

>  <optional_origin>  (426) 
None

>  <target>  (426) 
MDR1

$$$$

     RDKit          2D

 45 52  0  0  0  0  0  0  0  0999 V2000
    0.2757   -6.5640    0.0000 C   0  0  0  0  0  0  0  0  0  0  0  0
    0.2781   -7.3906    0.0000 C   0  0  0  0  0  0  0  0  0  0  0  0
    0.9894   -6.1502    0.0000 C   0  0  0  0  0  0  0  0  0  0  0  0
    1.7044   -6.5585    0.0000 C   0  0  0  0  0  0  0  0  0  0  0  0
    2.4180   -7.8010    0.0000 C   0  0  0  0  0  0  0  0  0  0  0  0
    3.1338   -7.3899    0.0000 C   0  0  0  0  0  0  0  0  0  0  0  0
    1.7025   -7.3868    0.0000 C   0  0  0  0  0  0  0  0  0  0  0  0
    0.9958   -7.8011    0.0000 C   0  0  0  0  0  0  0  0  0  0  0  0
    1.1725   -8.6044    0.0000 N   0  0  0  0  0  0  0  0  0  0  0  0
    2.1973   -8.5960    0.0000 C   0  0  0  0  0  0  0  0  0  0  0  0
    2.4174   -6.1446    0.0000 C   0  0  0  0  0  0  0  0  0  0  0  0
    3.1352   -6.5635    0.0000 C   0  0  0  0  0  0  0  0  0  0  0  0
    3.8525   -6.1566    0.0000 N   0  0  0  0  0  0  0  0  0  0  0  0
    3.8617   -5.3282    0.0000 C   0  0  0  0  0  0  0  0  0  0  0  0
    3.1480   -4.9050    0.0000 C   0  0  0  0  0  0  0  0  0  0  0  0
    2.4211   -5.3145    0.0000 C   0  0  0  0  0  0  0  0  0  0  0  0
    3.1549   -4.0822    0.0000 C   0  0  0  0  0  0  0  0  0  0  0  0
    3.8696   -3.6739    0.0000 N   0  0  0  0  0  0  0  0  0  0  0  0
    2.4426   -3.6632    0.0000 O   0  0  0  0  0  0  0  0  0  0  0  0
    4.5818   -4.0928    0.0000 C   0  0  0  0  0  0  0  0  0  0  0  0
    4.6597   -4.9136    0.0000 C   0  0  0  0  0  0  0  0  0  0  0  0
    5.3380   -3.7639    0.0000 O   0  0  0  0  0  0  0  0  0  0  0  0
    5.8845   -4.3807    0.0000 C   0  0  0  0  0  0  0  0  0  0  0  0
    5.4630   -5.0931    0.0000 N   0  0  0  0  0  0  0  0  0  0  0  0
    5.8669   -5.8084    0.0000 C   0  0  0  0  0  0  0  0  0  0  0  0
    6.6902   -5.8207    0.0000 C   0  0  0  0  0  0  0  0  0  0  0  0
    6.7055   -4.3878    0.0000 C   0  0  0  0  0  0  0  0  0  0  0  0
    7.1065   -5.1058    0.0000 N   0  0  0  0  0  0  0  0  0  0  0  0
    7.9178   -4.9474    0.0000 C   0  0  0  0  0  0  0  0  0  0  0  0
    8.0132   -4.1297    0.0000 C   0  0  0  0  0  0  0  0  0  0  0  0
    7.2651   -3.7830    0.0000 C   0  0  0  0  0  0  0  0  0  0  0  0
    5.4447   -6.5186    0.0000 C   0  0  0  0  0  0  0  0  0  0  0  0
    4.6217   -6.5081    0.0000 C   0  0  0  0  0  0  0  0  0  0  0  0
    5.8495   -7.2353    0.0000 C   0  0  0  0  0  0  0  0  0  0  0  0
    5.4251   -7.9402    0.0000 C   0  0  0  0  0  0  0  0  0  0  0  0
    5.8291   -8.6603    0.0000 C   0  0  0  0  0  0  0  0  0  0  0  0
    6.6533   -8.6716    0.0000 C   0  0  0  0  0  0  0  0  0  0  0  0
    7.0753   -7.9537    0.0000 C   0  0  0  0  0  0  0  0  0  0  0  0
    6.6677   -7.2421    0.0000 C   0  0  0  0  0  0  0  0  0  0  0  0
    7.0933   -6.5359    0.0000 O   0  0  0  0  0  0  0  0  0  0  0  0
    4.2378   -5.6223    0.0000 O   0  0  0  0  0  0  0  0  0  0  0  0
    6.0936   -3.5819    0.0000 O   0  0  0  0  0  0  0  0  0  0  0  0
    4.5750   -3.2639    0.0000 C   0  0  0  0  0  0  0  0  0  0  0  0
    5.2893   -2.8486    0.0000 C   0  0  0  0  0  0  0  0  0  0  0  0
    3.8622   -2.8563    0.0000 C   0  0  0  0  0  0  0  0  0  0  0  0
 23 24  1  0
  9 10  1  0
 11 12  1  0
  1  2  2  0
 23 27  1  0
 24 25  1  0
 25 26  1  0
 26 28  1  0
 27 28  1  0
  2  8  1  0
  4 11  1  0
  7  5  1  0
  5  6  1  0
 11 16  1  0
 28 29  1  0
 29 30  1  0
 30 31  1  0
 31 27  1  0
 12 13  1  0
 25 32  1  0
 13 14  1  0
 14 15  1  0
 32 34  1  0
 15 16  1  0
 34 35  2  0
  6 12  1  0
 35 36  1  0
 36 37  2  0
  7  8  2  0
 37 38  1  0
 38 39  2  0
 39 34  1  0
 13 33  1  0
 26 40  2  0
 15 17  1  0
 21 41  2  0
  4  3  2  0
 23 42  1  0
 17 18  1  0
 20 43  1  0
  3  1  1  0
 43 44  1  0
 17 19  2  0
 43 45  1  0
  8  9  1  0
 18 20  1  0
 20 21  1  0
  4  7  1  0
  5 10  2  0
 21 24  1  0
 23 22  1  0
 22 20  1  0
M  END
>  <Classification>  (427) 
0

>  <pchembl>  (427) 
4.8

>  <InChI_steorem>  (427) 
InChI=1S/C35H41N5O5/c1-20(2)34(37-31(41)23-16-25-24-11-7-12-26-30(24)22(18-36-26)17-27(25)38(3)19-23)33(43)40-28(15-21-9-5-4-6-10-21)32(42)39-14-8-13-29(39)35(40,44)45-34/h4-7,9-12,18,20,23,25,27-29,36,44H,8,13-17,19H2,1-3H3,(H,37,41)

>  <source>  (427) 
ChEMBL25

>  <source_id>  (427) 
25

>  <optional_reference>  (427) 
10.1124/mol.61.5.964

>  <optional_origin>  (427) 
None

>  <target>  (427) 
MDR1

$$$$

     RDKit          2D

 42 46  0  0  0  0  0  0  0  0999 V2000
    7.3787  -14.7816    0.0000 C   0  0  0  0  0  0  0  0  0  0  0  0
    8.0952  -14.3682    0.0000 C   0  0  0  0  0  0  0  0  0  0  0  0
    8.0923  -13.5378    0.0000 C   0  0  0  0  0  0  0  0  0  0  0  0
    7.3770  -13.1286    0.0000 C   0  0  0  0  0  0  0  0  0  0  0  0
    6.6640  -14.3687    0.0000 C   0  0  0  0  0  0  0  0  0  0  0  0
    6.6663  -13.5431    0.0000 C   0  0  0  0  0  0  0  0  0  0  0  0
    5.9535  -13.1302    0.0000 C   0  0  0  0  0  0  0  0  0  0  0  0
    5.2382  -13.5416    0.0000 N   0  0  0  0  0  0  0  0  0  0  0  0
    5.2398  -14.3704    0.0000 C   0  0  0  0  0  0  0  0  0  0  0  0
    5.9531  -14.7796    0.0000 C   0  0  0  0  0  0  0  0  0  0  0  0
    4.5236  -13.1293    0.0000 C   0  0  0  0  0  0  0  0  0  0  0  0
    3.8092  -13.5419    0.0000 C   0  0  0  0  0  0  0  0  0  0  0  0
    3.0947  -13.1295    0.0000 N   0  0  0  0  0  0  0  0  0  0  0  0
    8.8052  -13.1226    0.0000 O   0  0  0  0  0  0  0  0  0  0  0  0
    9.5212  -13.5323    0.0000 C   0  0  0  0  0  0  0  0  0  0  0  0
    8.8103  -14.7796    0.0000 O   0  0  0  0  0  0  0  0  0  0  0  0
    8.8115  -15.6046    0.0000 C   0  0  0  0  0  0  0  0  0  0  0  0
    3.0121  -12.3076    0.0000 N   0  0  0  0  0  0  0  0  0  0  0  0
    2.2051  -12.1362    0.0000 N   0  0  0  0  0  0  0  0  0  0  0  0
    1.7927  -12.8507    0.0000 C   0  0  0  0  0  0  0  0  0  0  0  0
    2.3450  -13.4636    0.0000 C   0  0  0  0  0  0  0  0  0  0  0  0
    0.9723  -12.9372    0.0000 C   0  0  0  0  0  0  0  0  0  0  0  0
    0.4872  -12.2699    0.0000 O   0  0  0  0  0  0  0  0  0  0  0  0
   -0.3333  -12.3563    0.0000 C   0  0  0  0  0  0  0  0  0  0  0  0
   -0.8180  -11.6884    0.0000 C   0  0  0  0  0  0  0  0  0  0  0  0
   -1.6399  -11.7744    0.0000 C   0  0  0  0  0  0  0  0  0  0  0  0
   -1.9788  -12.5288    0.0000 C   0  0  0  0  0  0  0  0  0  0  0  0
   -1.4852  -13.1980    0.0000 C   0  0  0  0  0  0  0  0  0  0  0  0
   -0.6699  -13.1086    0.0000 C   0  0  0  0  0  0  0  0  0  0  0  0
   -0.1830  -13.7737    0.0000 N   0  0  0  0  0  0  0  0  0  0  0  0
   -0.5093  -14.5290    0.0000 C   0  0  0  0  0  0  0  0  0  0  0  0
   -0.0224  -15.1941    0.0000 C   0  0  0  0  0  0  0  0  0  0  0  0
   -1.3309  -14.6191    0.0000 O   0  0  0  0  0  0  0  0  0  0  0  0
   -0.3621  -15.9461    0.0000 C   0  0  0  0  0  0  0  0  0  0  0  0
    0.1328  -16.6108    0.0000 C   0  0  0  0  0  0  0  0  0  0  0  0
    0.9537  -16.5211    0.0000 C   0  0  0  0  0  0  0  0  0  0  0  0
    1.2850  -15.7608    0.0000 C   0  0  0  0  0  0  0  0  0  0  0  0
    0.7956  -15.0993    0.0000 C   0  0  0  0  0  0  0  0  0  0  0  0
    1.4426  -17.1856    0.0000 C   0  0  0  0  0  0  0  0  0  0  0  0
    1.1117  -17.9412    0.0000 C   0  0  0  0  0  0  0  0  0  0  0  0
    2.2626  -17.0943    0.0000 C   0  0  0  0  0  0  0  0  0  0  0  0
    1.8500  -17.8955    0.0000 C   0  0  0  0  0  0  0  0  0  0  0  0
  5  1  2  0
  1  2  1  0
  2  3  2  0
  3  4  1  0
  4  6  2  0
  5  6  1  0
  6  7  1  0
  7  8  1  0
  8  9  1  0
  9 10  1  0
 10  5  1  0
  8 11  1  0
 11 12  1  0
 12 13  1  0
  3 14  1  0
 14 15  1  0
  2 16  1  0
 16 17  1  0
 13 18  1  0
 18 19  2  0
 19 20  1  0
 20 21  2  0
 21 13  1  0
 20 22  1  0
 22 23  1  0
 23 24  1  0
 24 25  2  0
 25 26  1  0
 26 27  2  0
 27 28  1  0
 28 29  2  0
 29 24  1  0
 29 30  1  0
 30 31  1  0
 31 32  1  0
 31 33  2  0
 32 34  2  0
 34 35  1  0
 35 36  2  0
 36 37  1  0
 37 38  2  0
 38 32  1  0
 36 39  1  0
 39 40  1  0
 39 41  1  0
 39 42  1  0
M  END
>  <Classification>  (428) 
1

>  <pchembl>  (428) 
5.47

>  <InChI_steorem>  (428) 
InChI=1S/C33H39N5O4/c1-33(2,3)26-12-10-23(11-13-26)32(39)34-28-8-6-7-9-29(28)42-22-27-21-38(36-35-27)17-16-37-15-14-24-18-30(40-4)31(41-5)19-25(24)20-37/h6-13,18-19,21H,14-17,20,22H2,1-5H3,(H,34,39)

>  <source>  (428) 
ChEMBL25

>  <source_id>  (428) 
25

>  <optional_reference>  (428) 
10.1016/j.bmc.2017.06.015

>  <optional_origin>  (428) 
None

>  <target>  (428) 
MDR1

$$$$

     RDKit          2D

 21 23  0  0  0  0  0  0  0  0999 V2000
   -4.3988   -3.6644    0.0000 C   0  0  0  0  0  0  0  0  0  0  0  0
   -4.4000   -4.4914    0.0000 C   0  0  0  0  0  0  0  0  0  0  0  0
   -3.6856   -4.9040    0.0000 C   0  0  0  0  0  0  0  0  0  0  0  0
   -3.6874   -3.2520    0.0000 C   0  0  0  0  0  0  0  0  0  0  0  0
   -2.9725   -3.6608    0.0000 C   0  0  0  0  0  0  0  0  0  0  0  0
   -2.9737   -4.4935    0.0000 C   0  0  0  0  0  0  0  0  0  0  0  0
   -2.2572   -4.9084    0.0000 C   0  0  0  0  0  0  0  0  0  0  0  0
   -1.5349   -4.4955    0.0000 C   0  0  0  0  0  0  0  0  0  0  0  0
   -1.5337   -3.6629    0.0000 C   0  0  0  0  0  0  0  0  0  0  0  0
   -2.2548   -3.2433    0.0000 O   0  0  0  0  0  0  0  0  0  0  0  0
   -2.2595   -5.7329    0.0000 O   0  0  0  0  0  0  0  0  0  0  0  0
   -0.8204   -3.2550    0.0000 C   0  0  0  0  0  0  0  0  0  0  0  0
   -0.1070   -3.6707    0.0000 C   0  0  0  0  0  0  0  0  0  0  0  0
    0.6075   -3.2609    0.0000 C   0  0  0  0  0  0  0  0  0  0  0  0
    0.6099   -2.4355    0.0000 C   0  0  0  0  0  0  0  0  0  0  0  0
   -0.1081   -2.0216    0.0000 C   0  0  0  0  0  0  0  0  0  0  0  0
   -0.8197   -2.4339    0.0000 C   0  0  0  0  0  0  0  0  0  0  0  0
   -5.1144   -4.9030    0.0000 C   0  0  0  0  0  0  0  0  0  0  0  0
   -3.6859   -5.7285    0.0000 O   0  0  0  0  0  0  0  0  0  0  0  0
   -5.1130   -3.2524    0.0000 O   0  0  0  0  0  0  0  0  0  0  0  0
   -5.1132   -2.4279    0.0000 C   0  0  0  0  0  0  0  0  0  0  0  0
  9 10  1  0
  5  6  1  0
  7 11  2  0
  2  3  1  0
 12 13  2  0
  3  6  2  0
 13 14  1  0
  1  2  2  0
 14 15  2  0
  5  4  2  0
 15 16  1  0
  4  1  1  0
 16 17  2  0
 17 12  1  0
  9 12  1  0
  5 10  1  0
  2 18  1  0
  6  7  1  0
  3 19  1  0
  7  8  1  0
  1 20  1  0
  8  9  1  0
 20 21  1  0
M  END
>  <Classification>  (429) 
0

>  <pchembl>  (429) 
4.54

>  <InChI_steorem>  (429) 
InChI=1S/C17H16O4/c1-10-13(20-2)9-15-16(17(10)19)12(18)8-14(21-15)11-6-4-3-5-7-11/h3-7,9,14,19H,8H2,1-2H3

>  <source>  (429) 
ChEMBL25

>  <source_id>  (429) 
25

>  <optional_reference>  (429) 
10.1016/j.bmc.2010.12.043

>  <optional_origin>  (429) 
None

>  <target>  (429) 
MDR1

$$$$

     RDKit          2D

 22 24  0  0  0  0  0  0  0  0999 V2000
   17.6018  -25.9196    0.0000 C   0  0  0  0  0  0  0  0  0  0  0  0
   17.6006  -26.7466    0.0000 C   0  0  0  0  0  0  0  0  0  0  0  0
   18.3150  -27.1592    0.0000 C   0  0  0  0  0  0  0  0  0  0  0  0
   18.3132  -25.5071    0.0000 C   0  0  0  0  0  0  0  0  0  0  0  0
   19.0283  -25.9160    0.0000 C   0  0  0  0  0  0  0  0  0  0  0  0
   19.0271  -26.7486    0.0000 C   0  0  0  0  0  0  0  0  0  0  0  0
   19.7436  -27.1637    0.0000 C   0  0  0  0  0  0  0  0  0  0  0  0
   20.4659  -26.7507    0.0000 C   0  0  0  0  0  0  0  0  0  0  0  0
   20.4671  -25.9180    0.0000 C   0  0  0  0  0  0  0  0  0  0  0  0
   19.7460  -25.4985    0.0000 O   0  0  0  0  0  0  0  0  0  0  0  0
   19.7413  -27.9882    0.0000 O   0  0  0  0  0  0  0  0  0  0  0  0
   21.1804  -25.5102    0.0000 C   0  0  0  0  0  0  0  0  0  0  0  0
   21.8939  -25.9258    0.0000 C   0  0  0  0  0  0  0  0  0  0  0  0
   22.6085  -25.5160    0.0000 C   0  0  0  0  0  0  0  0  0  0  0  0
   22.6109  -24.6906    0.0000 C   0  0  0  0  0  0  0  0  0  0  0  0
   21.8928  -24.2767    0.0000 C   0  0  0  0  0  0  0  0  0  0  0  0
   21.1811  -24.6890    0.0000 C   0  0  0  0  0  0  0  0  0  0  0  0
   18.3147  -27.9837    0.0000 O   0  0  0  0  0  0  0  0  0  0  0  0
   16.8862  -27.1583    0.0000 C   0  0  0  0  0  0  0  0  0  0  0  0
   16.8876  -25.5076    0.0000 O   0  0  0  0  0  0  0  0  0  0  0  0
   16.1736  -25.9199    0.0000 C   0  0  0  0  0  0  0  0  0  0  0  0
   17.6005  -28.3958    0.0000 C   0  0  0  0  0  0  0  0  0  0  0  0
  5  6  1  0
  7 11  2  0
  2  3  1  0
 12 13  2  0
  3  6  2  0
 13 14  1  0
  1  2  2  0
 14 15  2  0
  5  4  2  0
 15 16  1  0
  4  1  1  0
 16 17  2  0
 17 12  1  0
  9 12  1  0
  5 10  1  0
  3 18  1  0
  6  7  1  0
  2 19  1  0
  7  8  1  0
  1 20  1  0
  8  9  2  0
 20 21  1  0
  9 10  1  0
 18 22  1  0
M  END
>  <Classification>  (430) 
0

>  <pchembl>  (430) 
4.72

>  <InChI_steorem>  (430) 
InChI=1S/C18H16O4/c1-11-14(20-2)10-16-17(18(11)21-3)13(19)9-15(22-16)12-7-5-4-6-8-12/h4-10H,1-3H3

>  <source>  (430) 
ChEMBL25

>  <source_id>  (430) 
25

>  <optional_reference>  (430) 
10.1016/j.bmc.2010.12.043

>  <optional_origin>  (430) 
None

>  <target>  (430) 
MDR1

$$$$

     RDKit          2D

 22 24  0  0  0  0  0  0  0  0999 V2000
    2.9636   -3.9687    0.0000 C   0  0  0  0  0  0  0  0  0  0  0  0
    2.9625   -4.7957    0.0000 C   0  0  0  0  0  0  0  0  0  0  0  0
    3.6770   -5.2083    0.0000 C   0  0  0  0  0  0  0  0  0  0  0  0
    3.6752   -3.5561    0.0000 C   0  0  0  0  0  0  0  0  0  0  0  0
    4.3902   -3.9651    0.0000 C   0  0  0  0  0  0  0  0  0  0  0  0
    4.3890   -4.7977    0.0000 C   0  0  0  0  0  0  0  0  0  0  0  0
    5.1055   -5.2128    0.0000 C   0  0  0  0  0  0  0  0  0  0  0  0
    5.8277   -4.7998    0.0000 C   0  0  0  0  0  0  0  0  0  0  0  0
    5.8289   -3.9671    0.0000 C   0  0  0  0  0  0  0  0  0  0  0  0
    5.1079   -3.5475    0.0000 O   0  0  0  0  0  0  0  0  0  0  0  0
    5.1031   -6.0373    0.0000 O   0  0  0  0  0  0  0  0  0  0  0  0
    6.5424   -3.5592    0.0000 C   0  0  0  0  0  0  0  0  0  0  0  0
    7.2557   -3.9749    0.0000 C   0  0  0  0  0  0  0  0  0  0  0  0
    7.9703   -3.5651    0.0000 C   0  0  0  0  0  0  0  0  0  0  0  0
    7.9728   -2.7397    0.0000 C   0  0  0  0  0  0  0  0  0  0  0  0
    7.2547   -2.3258    0.0000 C   0  0  0  0  0  0  0  0  0  0  0  0
    6.5431   -2.7381    0.0000 C   0  0  0  0  0  0  0  0  0  0  0  0
    3.6767   -6.0328    0.0000 O   0  0  0  0  0  0  0  0  0  0  0  0
    2.9624   -6.4449    0.0000 C   0  0  0  0  0  0  0  0  0  0  0  0
    2.2495   -3.5566    0.0000 O   0  0  0  0  0  0  0  0  0  0  0  0
    2.2493   -2.7321    0.0000 C   0  0  0  0  0  0  0  0  0  0  0  0
    3.6727   -2.7316    0.0000 C   0  0  0  0  0  0  0  0  0  0  0  0
  5  6  1  0
  7 11  2  0
  2  3  1  0
 12 13  2  0
  3  6  2  0
 13 14  1  0
  1  2  2  0
 14 15  2  0
  5  4  2  0
 15 16  1  0
  4  1  1  0
 16 17  2  0
 17 12  1  0
  9 12  1  0
  5 10  1  0
  3 18  1  0
  6  7  1  0
 18 19  1  0
  7  8  1  0
  1 20  1  0
  8  9  1  0
 20 21  1  0
  9 10  1  0
  4 22  1  0
M  END
>  <Classification>  (431) 
0

>  <pchembl>  (431) 
4.82

>  <InChI_steorem>  (431) 
InChI=1S/C18H18O4/c1-11-14(20-2)10-16(21-3)17-13(19)9-15(22-18(11)17)12-7-5-4-6-8-12/h4-8,10,15H,9H2,1-3H3

>  <source>  (431) 
ChEMBL25

>  <source_id>  (431) 
25

>  <optional_reference>  (431) 
10.1016/j.bmc.2010.12.043

>  <optional_origin>  (431) 
None

>  <target>  (431) 
MDR1

$$$$

     RDKit          2D

 34 35  0  0  0  0  0  0  0  0999 V2000
   11.9167   -3.6833    0.0000 C   0  0  0  0  0  0  0  0  0  0  0  0
   12.7417   -3.6833    0.0000 C   0  0  0  0  0  0  0  0  0  0  0  0
   13.1519   -2.9728    0.0000 C   0  0  0  0  0  0  0  0  0  0  0  0
   12.7417   -2.2577    0.0000 C   0  0  0  0  0  0  0  0  0  0  0  0
   11.9167   -2.2577    0.0000 C   0  0  0  0  0  0  0  0  0  0  0  0
   11.5019   -2.9728    0.0000 C   0  0  0  0  0  0  0  0  0  0  0  0
   11.5049   -1.5428    0.0000 C   0  0  0  0  0  0  0  0  0  0  0  0
   13.1500   -1.5375    0.0000 C   0  0  0  0  0  0  0  0  0  0  0  0
   13.8625   -1.9500    0.0000 C   0  0  0  0  0  0  0  0  0  0  0  0
   14.6875   -1.9500    0.0000 C   0  0  0  0  0  0  0  0  0  0  0  0
   13.4542   -4.0958    0.0000 C   0  0  0  0  0  0  0  0  0  0  0  0
   14.1691   -3.6842    0.0000 C   0  0  0  0  0  0  0  0  0  0  0  0
   14.8831   -4.0975    0.0000 C   0  0  0  0  0  0  0  0  0  0  0  0
   15.5981   -3.6859    0.0000 C   0  0  0  0  0  0  0  0  0  0  0  0
   16.3120   -4.0993    0.0000 O   0  0  0  0  0  0  0  0  0  0  0  0
   15.5958   -1.5250    0.0000 C   0  0  0  0  0  0  0  0  0  0  0  0
   13.8625   -3.3833    0.0000 C   0  0  0  0  0  0  0  0  0  0  0  0
   13.8625   -2.5542    0.0000 C   0  0  0  0  0  0  0  0  0  0  0  0
   13.4532   -4.9208    0.0000 O   0  0  0  0  0  0  0  0  0  0  0  0
   12.7382   -5.3325    0.0000 C   0  0  0  0  0  0  0  0  0  0  0  0
   13.1458   -0.7125    0.0000 O   0  0  0  0  0  0  0  0  0  0  0  0
   12.4293   -0.3036    0.0000 C   0  0  0  0  0  0  0  0  0  0  0  0
   12.4251    0.5214    0.0000 O   0  0  0  0  0  0  0  0  0  0  0  0
   11.7086    0.9303    0.0000 C   0  0  0  0  0  0  0  0  0  0  0  0
   11.7044    1.7553    0.0000 C   0  0  0  0  0  0  0  0  0  0  0  0
   10.9879    2.1641    0.0000 O   0  0  0  0  0  0  0  0  0  0  0  0
   10.9837    2.9891    0.0000 C   0  0  0  0  0  0  0  0  0  0  0  0
   16.3111   -4.9243    0.0000 C   0  0  0  0  0  0  0  0  0  0  0  0
   17.0250   -5.3376    0.0000 C   0  0  0  0  0  0  0  0  0  0  0  0
   15.5961   -5.3359    0.0000 O   0  0  0  0  0  0  0  0  0  0  0  0
   16.0042   -0.8083    0.0000 O   0  0  0  0  0  0  0  0  0  0  0  0
   16.8292   -0.8036    0.0000 C   0  0  0  0  0  0  0  0  0  0  0  0
   17.2376   -0.0868    0.0000 C   0  0  0  0  0  0  0  0  0  0  0  0
   17.2457   -1.5157    0.0000 O   0  0  0  0  0  0  0  0  0  0  0  0
  1  6  1  0
  3 18  1  0
  8  9  1  0
  2  3  1  0
 11 19  1  0
  9 10  2  0
 19 20  1  0
  3  4  1  0
  8 21  1  0
  2 11  1  0
 21 22  1  0
  4  5  2  0
 22 23  1  0
 11 12  1  0
 23 24  1  0
  5  6  1  0
 24 25  1  0
 12 13  2  0
 25 26  1  0
 26 27  1  0
 13 14  1  0
 15 28  1  0
  5  7  1  0
 28 29  1  0
 14 15  1  0
 28 30  2  0
 14 16  1  0
  1  2  1  0
 16 31  1  0
 10 16  1  0
 31 32  1  0
  4  8  1  0
 32 33  1  0
  3 17  1  0
 32 34  2  0
M  END
>  <Classification>  (432) 
0

>  <pchembl>  (432) 
4.62

>  <InChI_steorem>  (432) 
InChI=1S/C26H40O8/c1-17-8-9-20-21(30-7)10-11-22(33-18(2)27)23(34-19(3)28)12-13-24(25(17)26(20,4)5)32-16-31-15-14-29-6/h10-13,20-24H,8-9,14-16H2,1-7H3

>  <source>  (432) 
ChEMBL25

>  <source_id>  (432) 
25

>  <optional_reference>  (432) 
10.1021/ml100118k

>  <optional_origin>  (432) 
None

>  <target>  (432) 
MDR1

$$$$

     RDKit          2D

 37 39  0  0  0  0  0  0  0  0999 V2000
    5.5833   -4.1000    0.0000 C   0  0  0  0  0  0  0  0  0  0  0  0
    6.4083   -4.1000    0.0000 C   0  0  0  0  0  0  0  0  0  0  0  0
    6.8186   -3.3895    0.0000 C   0  0  0  0  0  0  0  0  0  0  0  0
    6.4083   -2.6744    0.0000 C   0  0  0  0  0  0  0  0  0  0  0  0
    5.5833   -2.6744    0.0000 C   0  0  0  0  0  0  0  0  0  0  0  0
    5.1686   -3.3895    0.0000 C   0  0  0  0  0  0  0  0  0  0  0  0
    5.1716   -1.9595    0.0000 C   0  0  0  0  0  0  0  0  0  0  0  0
    6.8167   -1.9542    0.0000 C   0  0  0  0  0  0  0  0  0  0  0  0
    7.5292   -2.3667    0.0000 C   0  0  0  0  0  0  0  0  0  0  0  0
    8.3542   -2.3667    0.0000 C   0  0  0  0  0  0  0  0  0  0  0  0
    7.1208   -4.5125    0.0000 C   0  0  0  0  0  0  0  0  0  0  0  0
    7.8358   -4.1009    0.0000 C   0  0  0  0  0  0  0  0  0  0  0  0
    8.5498   -4.5142    0.0000 C   0  0  0  0  0  0  0  0  0  0  0  0
    9.2647   -4.1026    0.0000 C   0  0  0  0  0  0  0  0  0  0  0  0
    9.9787   -4.5159    0.0000 O   0  0  0  0  0  0  0  0  0  0  0  0
    9.0667   -1.9500    0.0000 C   0  0  0  0  0  0  0  0  0  0  0  0
    9.7834   -2.3585    0.0000 O   0  0  0  0  0  0  0  0  0  0  0  0
    7.5292   -3.8000    0.0000 C   0  0  0  0  0  0  0  0  0  0  0  0
    7.5292   -2.9708    0.0000 C   0  0  0  0  0  0  0  0  0  0  0  0
    7.1198   -5.3375    0.0000 O   0  0  0  0  0  0  0  0  0  0  0  0
    6.4049   -5.7491    0.0000 C   0  0  0  0  0  0  0  0  0  0  0  0
    6.8125   -1.1292    0.0000 O   0  0  0  0  0  0  0  0  0  0  0  0
    6.0960   -0.7203    0.0000 C   0  0  0  0  0  0  0  0  0  0  0  0
    6.0918    0.1047    0.0000 O   0  0  0  0  0  0  0  0  0  0  0  0
    5.3752    0.5136    0.0000 C   0  0  0  0  0  0  0  0  0  0  0  0
    5.3711    1.3386    0.0000 C   0  0  0  0  0  0  0  0  0  0  0  0
    4.6545    1.7475    0.0000 O   0  0  0  0  0  0  0  0  0  0  0  0
    4.6504    2.5725    0.0000 C   0  0  0  0  0  0  0  0  0  0  0  0
    4.3436   -3.3906    0.0000 O   0  0  0  0  0  0  0  0  0  0  0  0
    3.9301   -2.6767    0.0000 C   0  0  0  0  0  0  0  0  0  0  0  0
    3.1051   -2.6779    0.0000 C   0  0  0  0  0  0  0  0  0  0  0  0
    4.3416   -1.9617    0.0000 O   0  0  0  0  0  0  0  0  0  0  0  0
    2.6956   -1.9637    0.0000 C   0  0  0  0  0  0  0  0  0  0  0  0
    1.8714   -1.9645    0.0000 C   0  0  0  0  0  0  0  0  0  0  0  0
    1.4591   -2.6801    0.0000 C   0  0  0  0  0  0  0  0  0  0  0  0
    1.8770   -3.3963    0.0000 C   0  0  0  0  0  0  0  0  0  0  0  0
    2.6999   -3.3920    0.0000 C   0  0  0  0  0  0  0  0  0  0  0  0
  8  9  1  0
  3 19  1  0
  2  3  1  0
  9 10  2  0
 11 20  1  0
  3  4  1  0
 20 21  1  0
  2 11  1  0
  8 22  1  0
  4  5  2  0
 22 23  1  0
 11 12  1  0
 23 24  1  0
  5  6  1  0
 24 25  1  0
 12 13  2  0
 25 26  1  0
 26 27  1  0
 13 14  1  0
 27 28  1  0
  5  7  1  0
  6 29  1  0
 14 15  2  0
 29 30  1  0
  1  2  1  0
 30 31  1  0
 10 16  1  0
 30 32  2  0
  4  8  1  0
 31 33  2  0
 16 17  1  0
 33 34  1  0
 14 17  1  0
 34 35  2  0
  1  6  1  0
 35 36  1  0
  3 18  1  0
 36 37  2  0
 37 31  1  0
M  END
>  <Classification>  (433) 
1

>  <pchembl>  (433) 
5.14

>  <InChI_steorem>  (433) 
InChI=1S/C29H38O8/c1-20-25(37-28(31)21-10-7-6-8-11-21)18-22-23(33-5)13-14-26(30)35-15-9-12-24(27(20)29(22,2)3)36-19-34-17-16-32-4/h6-14,22-25H,15-19H2,1-5H3

>  <source>  (433) 
ChEMBL25

>  <source_id>  (433) 
25

>  <optional_reference>  (433) 
10.1021/ml100118k

>  <optional_origin>  (433) 
None

>  <target>  (433) 
MDR1

$$$$

     RDKit          2D

 45 51  0  0  0  0  0  0  0  0999 V2000
   -1.1755  -17.5333    0.0000 C   0  0  0  0  0  0  0  0  0  0  0  0
   -0.4635  -17.1250    0.0000 C   0  0  0  0  0  0  0  0  0  0  0  0
   -0.4635  -16.3000    0.0000 C   0  0  0  0  0  0  0  0  0  0  0  0
   -1.8875  -17.1250    0.0000 C   0  0  0  0  0  0  0  0  0  0  0  0
   -2.5980  -15.8898    0.0000 O   0  0  0  0  0  0  0  0  0  0  0  0
   -3.3131  -16.3000    0.0000 C   0  0  0  0  0  0  0  0  0  0  0  0
   -3.3131  -17.1250    0.0000 C   0  0  0  0  0  0  0  0  0  0  0  0
   -2.5980  -17.5398    0.0000 C   0  0  0  0  0  0  0  0  0  0  0  0
   -1.1755  -18.3583    0.0000 O   0  0  0  0  0  0  0  0  0  0  0  0
    0.2504  -17.5385    0.0000 O   0  0  0  0  0  0  0  0  0  0  0  0
    0.2492  -18.3635    0.0000 C   0  0  0  0  0  0  0  0  0  0  0  0
    0.9655  -16.3042    0.0000 C   0  0  0  0  0  0  0  0  0  0  0  0
   -4.0270  -15.8865    0.0000 C   0  0  0  0  0  0  0  0  0  0  0  0
   -4.0209  -15.0636    0.0000 C   0  0  0  0  0  0  0  0  0  0  0  0
   -4.7340  -14.6502    0.0000 C   0  0  0  0  0  0  0  0  0  0  0  0
   -5.4500  -15.0618    0.0000 C   0  0  0  0  0  0  0  0  0  0  0  0
   -5.4485  -15.8910    0.0000 C   0  0  0  0  0  0  0  0  0  0  0  0
   -4.7349  -16.3007    0.0000 C   0  0  0  0  0  0  0  0  0  0  0  0
   -1.1755  -15.0583    0.0000 C   0  0  0  0  0  0  0  0  0  0  0  0
   -0.4589  -14.6473    0.0000 C   0  0  0  0  0  0  0  0  0  0  0  0
   -0.4586  -13.8231    0.0000 C   0  0  0  0  0  0  0  0  0  0  0  0
   -1.8873  -14.6495    0.0000 C   0  0  0  0  0  0  0  0  0  0  0  0
   -1.8898  -16.2961    0.0000 C   0  0  0  0  0  0  0  0  0  0  0  0
   -1.1755  -15.8833    0.0000 C   0  0  0  0  0  0  0  0  0  0  0  0
   -2.2333  -15.4375    0.0000 O   0  0  0  0  0  0  0  0  0  0  0  0
   -1.8904  -13.8267    0.0000 C   0  0  0  0  0  0  0  0  0  0  0  0
   -1.1741  -13.4118    0.0000 C   0  0  0  0  0  0  0  0  0  0  0  0
   -1.1752  -12.5887    0.0000 O   0  0  0  0  0  0  0  0  0  0  0  0
   -1.8910  -12.1741    0.0000 C   0  0  0  0  0  0  0  0  0  0  0  0
   -2.6072  -12.5889    0.0000 C   0  0  0  0  0  0  0  0  0  0  0  0
   -2.6078  -13.4183    0.0000 C   0  0  0  0  0  0  0  0  0  0  0  0
   -1.8909  -11.3491    0.0000 C   0  0  0  0  0  0  0  0  0  0  0  0
   -1.1765  -10.9407    0.0000 C   0  0  0  0  0  0  0  0  0  0  0  0
   -1.1761  -10.1165    0.0000 C   0  0  0  0  0  0  0  0  0  0  0  0
   -1.8911   -9.7031    0.0000 C   0  0  0  0  0  0  0  0  0  0  0  0
   -2.6080  -10.1200    0.0000 C   0  0  0  0  0  0  0  0  0  0  0  0
   -2.6049  -10.9429    0.0000 C   0  0  0  0  0  0  0  0  0  0  0  0
   -3.3212  -13.8328    0.0000 O   0  0  0  0  0  0  0  0  0  0  0  0
    0.2556  -13.4100    0.0000 O   0  0  0  0  0  0  0  0  0  0  0  0
    0.9704  -13.8219    0.0000 C   0  0  0  0  0  0  0  0  0  0  0  0
    0.2549  -15.0609    0.0000 O   0  0  0  0  0  0  0  0  0  0  0  0
    0.2536  -15.8859    0.0000 O   0  0  0  0  0  0  0  0  0  0  0  0
    0.9700  -14.6496    0.0000 C   0  0  0  0  0  0  0  0  0  0  0  0
   -0.4667  -15.4667    0.0000 O   0  0  0  0  0  0  0  0  0  0  0  0
    0.3583  -15.4667    0.0000 C   0  0  0  0  0  0  0  0  0  0  0  0
  1  9  2  0
 20 21  2  0
 21 27  1  0
 26 22  1  0
 22 19  2  0
 23 24  1  0
  2 10  1  0
  4  1  1  0
 10 11  1  0
 23 25  1  0
 22 25  1  0
 26 27  2  0
  3 42  1  0
  1  2  1  0
 42 12  1  0
  2  3  2  0
  6 13  1  0
  3 24  1  0
 26 31  1  0
 27 28  1  0
 28 29  1  0
 29 30  1  0
 30 31  1  0
 13 14  2  0
 29 32  1  0
  4  8  2  0
 32 33  2  0
 14 15  1  0
 33 34  1  0
 23  5  1  0
 34 35  2  0
 15 16  2  0
 35 36  1  0
  5  6  1  0
 36 37  2  0
 37 32  1  0
 16 17  1  0
 31 38  1  0
  6  7  1  0
 21 39  1  0
 17 18  2  0
 39 40  1  0
 18 13  1  0
 20 41  1  0
  7  8  1  0
 24 19  1  0
 41 43  1  0
  4 23  1  0
 24 44  1  0
 19 20  1  0
 44 45  1  0
M  END
>  <Classification>  (434) 
1

>  <pchembl>  (434) 
5.1

>  <InChI_steorem>  (434) 
InChI=1S/C35H34O10/c1-38-30-26-28(25-22(36)18-24(20-14-10-7-11-15-20)43-29(25)32(30)40-3)45-35-21(16-17-23(44-35)19-12-8-6-9-13-19)27(37)31(39-2)33(41-4)34(26,35)42-5/h6-16,22-24,36H,17-18H2,1-5H3

>  <source>  (434) 
ChEMBL25

>  <source_id>  (434) 
25

>  <optional_reference>  (434) 
10.1016/j.bmc.2010.12.043

>  <optional_origin>  (434) 
None

>  <target>  (434) 
MDR1

$$$$

     RDKit          2D

 46 52  0  0  0  0  0  0  0  0999 V2000
    8.3245  -17.0083    0.0000 C   0  0  0  0  0  0  0  0  0  0  0  0
    9.0365  -16.6000    0.0000 C   0  0  0  0  0  0  0  0  0  0  0  0
    9.0365  -15.7750    0.0000 C   0  0  0  0  0  0  0  0  0  0  0  0
    7.6125  -16.6000    0.0000 C   0  0  0  0  0  0  0  0  0  0  0  0
    6.9020  -15.3648    0.0000 O   0  0  0  0  0  0  0  0  0  0  0  0
    6.1869  -15.7750    0.0000 C   0  0  0  0  0  0  0  0  0  0  0  0
    6.1869  -16.6000    0.0000 C   0  0  0  0  0  0  0  0  0  0  0  0
    6.9020  -17.0148    0.0000 C   0  0  0  0  0  0  0  0  0  0  0  0
    8.3245  -17.8333    0.0000 O   0  0  0  0  0  0  0  0  0  0  0  0
    9.7504  -17.0135    0.0000 O   0  0  0  0  0  0  0  0  0  0  0  0
    9.7492  -17.8385    0.0000 C   0  0  0  0  0  0  0  0  0  0  0  0
   10.4655  -15.7792    0.0000 C   0  0  0  0  0  0  0  0  0  0  0  0
    5.4730  -15.3615    0.0000 C   0  0  0  0  0  0  0  0  0  0  0  0
    5.4791  -14.5386    0.0000 C   0  0  0  0  0  0  0  0  0  0  0  0
    4.7660  -14.1252    0.0000 C   0  0  0  0  0  0  0  0  0  0  0  0
    4.0500  -14.5368    0.0000 C   0  0  0  0  0  0  0  0  0  0  0  0
    4.0515  -15.3660    0.0000 C   0  0  0  0  0  0  0  0  0  0  0  0
    4.7651  -15.7757    0.0000 C   0  0  0  0  0  0  0  0  0  0  0  0
    8.3245  -14.5333    0.0000 C   0  0  0  0  0  0  0  0  0  0  0  0
    9.0411  -14.1223    0.0000 C   0  0  0  0  0  0  0  0  0  0  0  0
    9.0414  -13.2981    0.0000 C   0  0  0  0  0  0  0  0  0  0  0  0
    7.6127  -14.1245    0.0000 C   0  0  0  0  0  0  0  0  0  0  0  0
    7.6102  -15.7711    0.0000 C   0  0  0  0  0  0  0  0  0  0  0  0
    8.3245  -15.3583    0.0000 C   0  0  0  0  0  0  0  0  0  0  0  0
    7.2667  -14.9125    0.0000 O   0  0  0  0  0  0  0  0  0  0  0  0
    7.6096  -13.3017    0.0000 C   0  0  0  0  0  0  0  0  0  0  0  0
    8.3259  -12.8868    0.0000 C   0  0  0  0  0  0  0  0  0  0  0  0
    8.3248  -12.0637    0.0000 O   0  0  0  0  0  0  0  0  0  0  0  0
    7.6090  -11.6491    0.0000 C   0  0  0  0  0  0  0  0  0  0  0  0
    6.8928  -12.0639    0.0000 C   0  0  0  0  0  0  0  0  0  0  0  0
    6.8922  -12.8933    0.0000 C   0  0  0  0  0  0  0  0  0  0  0  0
    7.6091  -10.8241    0.0000 C   0  0  0  0  0  0  0  0  0  0  0  0
    8.3235  -10.4157    0.0000 C   0  0  0  0  0  0  0  0  0  0  0  0
    8.3239   -9.5915    0.0000 C   0  0  0  0  0  0  0  0  0  0  0  0
    7.6089   -9.1781    0.0000 C   0  0  0  0  0  0  0  0  0  0  0  0
    6.8920   -9.5950    0.0000 C   0  0  0  0  0  0  0  0  0  0  0  0
    6.8951  -10.4179    0.0000 C   0  0  0  0  0  0  0  0  0  0  0  0
    6.1788  -13.3078    0.0000 O   0  0  0  0  0  0  0  0  0  0  0  0
    9.7556  -12.8850    0.0000 O   0  0  0  0  0  0  0  0  0  0  0  0
   10.4704  -13.2969    0.0000 C   0  0  0  0  0  0  0  0  0  0  0  0
    9.7549  -14.5359    0.0000 O   0  0  0  0  0  0  0  0  0  0  0  0
    9.7536  -15.3609    0.0000 O   0  0  0  0  0  0  0  0  0  0  0  0
   10.4700  -14.1246    0.0000 C   0  0  0  0  0  0  0  0  0  0  0  0
    9.0333  -14.9417    0.0000 O   0  0  0  0  0  0  0  0  0  0  0  0
    9.8583  -14.9417    0.0000 C   0  0  0  0  0  0  0  0  0  0  0  0
    5.4632  -12.8972    0.0000 C   0  0  0  0  0  0  0  0  0  0  0  0
 20 21  2  0
 21 27  1  0
 26 22  1  0
 22 19  2  0
 23 24  1  0
  2 10  1  0
  4  1  1  0
 10 11  1  0
 23 25  1  0
 22 25  1  0
 26 27  2  0
  3 42  1  0
  1  2  1  0
 42 12  1  0
  2  3  2  0
  6 13  1  0
  3 24  1  0
 26 31  1  0
 27 28  1  0
 28 29  1  0
 29 30  1  0
 30 31  1  0
 13 14  2  0
 29 32  1  0
  4  8  2  0
 32 33  2  0
 14 15  1  0
 33 34  1  0
 23  5  1  0
 34 35  2  0
 15 16  2  0
 35 36  1  0
  5  6  1  0
 36 37  2  0
 37 32  1  0
 16 17  1  0
 31 38  1  0
  6  7  1  0
 21 39  1  0
 17 18  2  0
 39 40  1  0
 18 13  1  0
 20 41  1  0
  7  8  1  0
 24 19  1  0
 41 43  1  0
  4 23  1  0
 24 44  1  0
 19 20  1  0
 44 45  1  0
  1  9  2  0
 38 46  1  0
M  END
>  <Classification>  (435) 
1

>  <pchembl>  (435) 
5.85

>  <InChI_steorem>  (435) 
InChI=1S/C36H36O10/c1-38-25-19-24(21-15-11-8-12-16-21)44-30-26(25)29-27(31(39-2)33(30)41-4)35(43-6)34(42-5)32(40-3)28(37)22-17-18-23(45-36(22,35)46-29)20-13-9-7-10-14-20/h7-17,23-25H,18-19H2,1-6H3

>  <source>  (435) 
ChEMBL25

>  <source_id>  (435) 
25

>  <optional_reference>  (435) 
10.1016/j.bmc.2010.12.043

>  <optional_origin>  (435) 
None

>  <target>  (435) 
MDR1

$$$$

     RDKit          2D

 47 53  0  0  0  0  0  0  0  0999 V2000
   15.3771  -15.1683    0.0000 C   0  0  0  0  0  0  0  0  0  0  0  0
   15.3771  -15.9954    0.0000 C   0  0  0  0  0  0  0  0  0  0  0  0
   16.0910  -16.4048    0.0000 C   0  0  0  0  0  0  0  0  0  0  0  0
   16.8048  -15.1683    0.0000 C   0  0  0  0  0  0  0  0  0  0  0  0
   16.8013  -15.9954    0.0000 C   0  0  0  0  0  0  0  0  0  0  0  0
   17.5119  -16.4097    0.0000 C   0  0  0  0  0  0  0  0  0  0  0  0
   18.2306  -16.0014    0.0000 C   0  0  0  0  0  0  0  0  0  0  0  0
   17.5073  -17.2368    0.0000 O   0  0  0  0  0  0  0  0  0  0  0  0
   17.5190  -14.7554    0.0000 C   0  0  0  0  0  0  0  0  0  0  0  0
   18.2315  -15.1705    0.0000 C   0  0  0  0  0  0  0  0  0  0  0  0
   18.8465  -14.6211    0.0000 O   0  0  0  0  0  0  0  0  0  0  0  0
   17.6935  -13.9496    0.0000 C   0  0  0  0  0  0  0  0  0  0  0  0
   18.5108  -13.8688    0.0000 C   0  0  0  0  0  0  0  0  0  0  0  0
   17.5487  -12.5402    0.0000 C   0  0  0  0  0  0  0  0  0  0  0  0
   17.2154  -13.2873    0.0000 C   0  0  0  0  0  0  0  0  0  0  0  0
   18.3687  -12.4552    0.0000 C   0  0  0  0  0  0  0  0  0  0  0  0
   18.8445  -13.1236    0.0000 C   0  0  0  0  0  0  0  0  0  0  0  0
   19.6567  -13.0462    0.0000 C   0  0  0  0  0  0  0  0  0  0  0  0
   19.9995  -12.3016    0.0000 C   0  0  0  0  0  0  0  0  0  0  0  0
   19.5237  -11.6332    0.0000 C   0  0  0  0  0  0  0  0  0  0  0  0
   18.7052  -11.7095    0.0000 O   0  0  0  0  0  0  0  0  0  0  0  0
   19.8683  -10.8812    0.0000 C   0  0  0  0  0  0  0  0  0  0  0  0
   20.6900  -10.8071    0.0000 C   0  0  0  0  0  0  0  0  0  0  0  0
   21.0345  -10.0559    0.0000 C   0  0  0  0  0  0  0  0  0  0  0  0
   20.5555   -9.3806    0.0000 C   0  0  0  0  0  0  0  0  0  0  0  0
   19.7280   -9.4612    0.0000 C   0  0  0  0  0  0  0  0  0  0  0  0
   19.3872  -10.2125    0.0000 C   0  0  0  0  0  0  0  0  0  0  0  0
   20.1353  -13.7208    0.0000 O   0  0  0  0  0  0  0  0  0  0  0  0
   17.0633  -11.8705    0.0000 O   0  0  0  0  0  0  0  0  0  0  0  0
   17.4005  -11.1153    0.0000 C   0  0  0  0  0  0  0  0  0  0  0  0
   16.0919  -17.2319    0.0000 O   0  0  0  0  0  0  0  0  0  0  0  0
   15.3760  -17.6463    0.0000 C   0  0  0  0  0  0  0  0  0  0  0  0
   14.6596  -14.7568    0.0000 C   0  0  0  0  0  0  0  0  0  0  0  0
   14.6610  -13.9307    0.0000 C   0  0  0  0  0  0  0  0  0  0  0  0
   13.9442  -13.5192    0.0000 C   0  0  0  0  0  0  0  0  0  0  0  0
   13.2282  -13.9350    0.0000 C   0  0  0  0  0  0  0  0  0  0  0  0
   13.2333  -14.7664    0.0000 C   0  0  0  0  0  0  0  0  0  0  0  0
   13.9506  -15.1740    0.0000 C   0  0  0  0  0  0  0  0  0  0  0  0
   16.3927  -13.3723    0.0000 O   0  0  0  0  0  0  0  0  0  0  0  0
   15.9077  -12.7021    0.0000 C   0  0  0  0  0  0  0  0  0  0  0  0
   18.9446  -15.5819    0.0000 O   0  0  0  0  0  0  0  0  0  0  0  0
   16.7975  -14.3412    0.0000 O   0  0  0  0  0  0  0  0  0  0  0  0
   16.0822  -14.7563    0.0000 O   0  0  0  0  0  0  0  0  0  0  0  0
   15.9704  -14.3370    0.0000 C   0  0  0  0  0  0  0  0  0  0  0  0
   19.6608  -15.1680    0.0000 C   0  0  0  0  0  0  0  0  0  0  0  0
   18.9452  -16.4179    0.0000 O   0  0  0  0  0  0  0  0  0  0  0  0
   18.9419  -17.2451    0.0000 C   0  0  0  0  0  0  0  0  0  0  0  0
 20 21  1  0
  4 43  1  0
 20 22  1  0
  4  5  2  0
 22 23  2  0
  1  2  1  0
 23 24  1  0
 10 11  1  0
 24 25  2  0
 11 13  1  0
 25 26  1  0
 12  9  1  0
 26 27  2  0
 27 22  1  0
 18 28  1  0
  1 43  1  0
 14 29  1  0
 12 13  2  0
 29 30  1  0
 13 17  1  0
  3 31  1  0
  2  3  1  0
 31 32  1  0
 16 14  1  0
  1 33  1  0
  4  9  1  0
 33 34  2  0
 14 15  2  0
 34 35  1  0
 15 12  1  0
 35 36  2  0
 16 17  2  0
 36 37  1  0
  5  6  1  0
 37 38  2  0
 38 33  1  0
  6  7  1  0
 15 39  1  0
  7 10  1  0
 39 40  1  0
  3  5  1  0
 10 41  1  0
  6  8  2  0
  9 42  1  0
  9 10  1  0
 16 21  1  0
 42 44  1  0
 17 18  1  0
 41 45  1  0
 18 19  1  0
  7 46  1  0
 19 20  1  0
 46 47  1  0
M  END
>  <Classification>  (436) 
1

>  <pchembl>  (436) 
5.1

>  <InChI_steorem>  (436) 
InChI=1S/C36H38O11/c1-39-24-18-23(20-15-11-8-12-16-20)46-33-26(24)28(38)34(42-4)36(44-6)35(33,43-5)27-29(47-36)25-21(37)17-22(19-13-9-7-10-14-19)45-30(25)32(41-3)31(27)40-2/h7-16,21-24,34,37H,17-18H2,1-6H3

>  <source>  (436) 
ChEMBL25

>  <source_id>  (436) 
25

>  <optional_reference>  (436) 
10.1016/j.bmc.2010.12.043

>  <optional_origin>  (436) 
None

>  <target>  (436) 
MDR1

$$$$

     RDKit          2D

 47 52  0  0  0  0  0  0  0  0999 V2000
   23.4203   -1.7607    0.0000 C   0  0  0  0  0  0  0  0  0  0  0  0
   23.4203   -2.5863    0.0000 C   0  0  0  0  0  0  0  0  0  0  0  0
   24.1328   -2.9950    0.0000 C   0  0  0  0  0  0  0  0  0  0  0  0
   24.8454   -2.5863    0.0000 C   0  0  0  0  0  0  0  0  0  0  0  0
   24.8454   -1.7607    0.0000 C   0  0  0  0  0  0  0  0  0  0  0  0
   24.1328   -1.3437    0.0000 C   0  0  0  0  0  0  0  0  0  0  0  0
   25.5617   -1.3500    0.0000 N   0  0  0  0  0  0  0  0  0  0  0  0
   26.2754   -1.7649    0.0000 C   0  0  0  0  0  0  0  0  0  0  0  0
   25.5641   -0.5201    0.0000 C   0  0  0  0  0  0  0  0  0  0  0  0
   26.2677   -2.5960    0.0000 C   0  0  0  0  0  0  0  0  0  0  0  0
   26.9775   -3.0109    0.0000 C   0  0  0  0  0  0  0  0  0  0  0  0
   27.6961   -2.6036    0.0000 C   0  0  0  0  0  0  0  0  0  0  0  0
   27.7005   -1.7771    0.0000 C   0  0  0  0  0  0  0  0  0  0  0  0
   26.9863   -1.3577    0.0000 C   0  0  0  0  0  0  0  0  0  0  0  0
   22.7058   -3.0002    0.0000 O   0  0  0  0  0  0  0  0  0  0  0  0
   21.9902   -2.5884    0.0000 C   0  0  0  0  0  0  0  0  0  0  0  0
   21.2757   -3.0023    0.0000 C   0  0  0  0  0  0  0  0  0  0  0  0
   21.9890   -1.7628    0.0000 O   0  0  0  0  0  0  0  0  0  0  0  0
   28.4084   -3.0213    0.0000 O   0  0  0  0  0  0  0  0  0  0  0  0
   29.1261   -2.6132    0.0000 C   0  0  0  0  0  0  0  0  0  0  0  0
   29.1316   -1.7876    0.0000 O   0  0  0  0  0  0  0  0  0  0  0  0
   20.5602   -2.5905    0.0000 C   0  0  0  0  0  0  0  0  0  0  0  0
   19.8457   -3.0043    0.0000 C   0  0  0  0  0  0  0  0  0  0  0  0
   19.1309   -2.5909    0.0000 C   0  0  0  0  0  0  0  0  0  0  0  0
   18.4170   -3.0041    0.0000 C   0  0  0  0  0  0  0  0  0  0  0  0
   18.4178   -3.8307    0.0000 C   0  0  0  0  0  0  0  0  0  0  0  0
   19.1384   -4.2422    0.0000 C   0  0  0  0  0  0  0  0  0  0  0  0
   19.8494   -3.8267    0.0000 C   0  0  0  0  0  0  0  0  0  0  0  0
   17.7016   -2.5920    0.0000 O   0  0  0  0  0  0  0  0  0  0  0  0
   17.7008   -1.7664    0.0000 C   0  0  0  0  0  0  0  0  0  0  0  0
   17.7039   -4.2454    0.0000 O   0  0  0  0  0  0  0  0  0  0  0  0
   16.9877   -3.8346    0.0000 C   0  0  0  0  0  0  0  0  0  0  0  0
   19.1425   -5.0679    0.0000 O   0  0  0  0  0  0  0  0  0  0  0  0
   18.4296   -5.4843    0.0000 C   0  0  0  0  0  0  0  0  0  0  0  0
   29.8133   -3.0709    0.0000 C   0  0  0  0  0  0  0  0  0  0  0  0
   30.5855   -2.7832    0.0000 C   0  0  0  0  0  0  0  0  0  0  0  0
   31.0929   -3.4298    0.0000 C   0  0  0  0  0  0  0  0  0  0  0  0
   31.9046   -3.3129    0.0000 C   0  0  0  0  0  0  0  0  0  0  0  0
   32.2099   -2.5500    0.0000 C   0  0  0  0  0  0  0  0  0  0  0  0
   31.6974   -1.9035    0.0000 C   0  0  0  0  0  0  0  0  0  0  0  0
   30.8876   -2.0236    0.0000 C   0  0  0  0  0  0  0  0  0  0  0  0
   30.6402   -4.1179    0.0000 C   0  0  0  0  0  0  0  0  0  0  0  0
   29.8469   -3.8938    0.0000 C   0  0  0  0  0  0  0  0  0  0  0  0
   29.2582   -4.4683    0.0000 C   0  0  0  0  0  0  0  0  0  0  0  0
   29.4616   -5.2669    0.0000 C   0  0  0  0  0  0  0  0  0  0  0  0
   30.2591   -5.4880    0.0000 C   0  0  0  0  0  0  0  0  0  0  0  0
   30.8444   -4.9120    0.0000 C   0  0  0  0  0  0  0  0  0  0  0  0
  1  2  1  0
  1  6  1  0
  2  3  1  0
  3  4  1  0
  4  5  1  0
  5  6  1  0
  5  7  1  0
  8  7  1  0
  7  9  1  0
  8 10  1  0
  8 14  1  0
 10 11  1  0
 11 12  1  0
 12 13  1  0
 13 14  1  0
  2 15  1  0
 15 16  1  0
 16 17  1  0
 16 18  2  0
 12 19  1  0
 19 20  1  0
 20 21  2  0
 17 22  2  3
 22 23  1  0
 23 24  2  0
 24 25  1  0
 25 26  2  0
 26 27  1  0
 27 28  2  0
 28 23  1  0
 25 29  1  0
 29 30  1  0
 26 31  1  0
 31 32  1  0
 27 33  1  0
 33 34  1  0
 20 35  1  0
 35 43  1  0
 42 37  1  0
 36 35  1  0
 36 37  1  0
 37 38  2  0
 38 39  1  0
 39 40  2  0
 40 41  1  0
 41 36  2  0
 42 43  2  0
 43 44  1  0
 44 45  2  0
 45 46  1  0
 46 47  2  0
 47 42  1  0
M  END
>  <Classification>  (437) 
1

>  <pchembl>  (437) 
7.12

>  <InChI_steorem>  (437) 
InChI=1S/C39H45NO7/c1-40(26-14-18-28(19-15-26)46-36(41)22-13-25-23-34(43-2)38(45-4)35(24-25)44-3)27-16-20-29(21-17-27)47-39(42)37-32-11-7-5-9-30(32)31-10-6-8-12-33(31)37/h5-13,22-24,26-29,37H,14-21H2,1-4H3

>  <source>  (437) 
ChEMBL25

>  <source_id>  (437) 
25

>  <optional_reference>  (437) 
10.1016/j.bmc.2012.11.019

>  <optional_origin>  (437) 
None

>  <target>  (437) 
MDR1

$$$$

     RDKit          2D

 47 52  0  0  0  0  0  0  0  0999 V2000
   25.8043   -1.3445    0.0000 C   0  0  0  0  0  0  0  0  0  0  0  0
   25.8043   -2.1697    0.0000 C   0  0  0  0  0  0  0  0  0  0  0  0
   26.5166   -2.5783    0.0000 C   0  0  0  0  0  0  0  0  0  0  0  0
   27.2288   -2.1697    0.0000 C   0  0  0  0  0  0  0  0  0  0  0  0
   27.2288   -1.3445    0.0000 C   0  0  0  0  0  0  0  0  0  0  0  0
   26.5166   -0.9277    0.0000 C   0  0  0  0  0  0  0  0  0  0  0  0
   27.9448   -0.9339    0.0000 N   0  0  0  0  0  0  0  0  0  0  0  0
   28.6582   -1.3487    0.0000 C   0  0  0  0  0  0  0  0  0  0  0  0
   27.9472   -0.1086    0.0000 C   0  0  0  0  0  0  0  0  0  0  0  0
   28.6505   -2.1794    0.0000 C   0  0  0  0  0  0  0  0  0  0  0  0
   29.3600   -2.5941    0.0000 C   0  0  0  0  0  0  0  0  0  0  0  0
   30.0783   -2.1870    0.0000 C   0  0  0  0  0  0  0  0  0  0  0  0
   30.0827   -1.3608    0.0000 C   0  0  0  0  0  0  0  0  0  0  0  0
   29.3688   -0.9416    0.0000 C   0  0  0  0  0  0  0  0  0  0  0  0
   25.0902   -2.5835    0.0000 O   0  0  0  0  0  0  0  0  0  0  0  0
   24.3749   -2.1718    0.0000 C   0  0  0  0  0  0  0  0  0  0  0  0
   24.3737   -1.3466    0.0000 O   0  0  0  0  0  0  0  0  0  0  0  0
   30.7902   -2.6045    0.0000 O   0  0  0  0  0  0  0  0  0  0  0  0
   31.5077   -2.1966    0.0000 C   0  0  0  0  0  0  0  0  0  0  0  0
   31.5132   -1.3714    0.0000 O   0  0  0  0  0  0  0  0  0  0  0  0
   32.2196   -2.6141    0.0000 C   0  0  0  0  0  0  0  0  0  0  0  0
   23.6607   -2.5855    0.0000 C   0  0  0  0  0  0  0  0  0  0  0  0
   22.9473   -3.0028    0.0000 C   0  0  0  0  0  0  0  0  0  0  0  0
   22.2348   -3.4195    0.0000 C   0  0  0  0  0  0  0  0  0  0  0  0
   21.5225   -3.0072    0.0000 C   0  0  0  0  0  0  0  0  0  0  0  0
   20.8107   -3.4232    0.0000 C   0  0  0  0  0  0  0  0  0  0  0  0
   20.8149   -4.2493    0.0000 C   0  0  0  0  0  0  0  0  0  0  0  0
   21.5368   -4.6578    0.0000 C   0  0  0  0  0  0  0  0  0  0  0  0
   22.2458   -4.2394    0.0000 C   0  0  0  0  0  0  0  0  0  0  0  0
   20.0938   -3.0142    0.0000 O   0  0  0  0  0  0  0  0  0  0  0  0
   20.0896   -2.1889    0.0000 C   0  0  0  0  0  0  0  0  0  0  0  0
   20.1030   -4.6669    0.0000 O   0  0  0  0  0  0  0  0  0  0  0  0
   19.3854   -4.2592    0.0000 C   0  0  0  0  0  0  0  0  0  0  0  0
   21.5444   -5.4831    0.0000 O   0  0  0  0  0  0  0  0  0  0  0  0
   20.8335   -5.9022    0.0000 C   0  0  0  0  0  0  0  0  0  0  0  0
   32.9784   -2.2825    0.0000 C   0  0  0  0  0  0  0  0  0  0  0  0
   33.5242   -2.8988    0.0000 C   0  0  0  0  0  0  0  0  0  0  0  0
   34.3287   -2.7336    0.0000 C   0  0  0  0  0  0  0  0  0  0  0  0
   34.5886   -1.9528    0.0000 C   0  0  0  0  0  0  0  0  0  0  0  0
   34.0377   -1.3368    0.0000 C   0  0  0  0  0  0  0  0  0  0  0  0
   33.2353   -1.5051    0.0000 C   0  0  0  0  0  0  0  0  0  0  0  0
   33.1091   -3.6113    0.0000 C   0  0  0  0  0  0  0  0  0  0  0  0
   32.3072   -3.4320    0.0000 C   0  0  0  0  0  0  0  0  0  0  0  0
   31.7528   -4.0361    0.0000 C   0  0  0  0  0  0  0  0  0  0  0  0
   31.9991   -4.8198    0.0000 C   0  0  0  0  0  0  0  0  0  0  0  0
   32.8051   -4.9960    0.0000 C   0  0  0  0  0  0  0  0  0  0  0  0
   33.3559   -4.3905    0.0000 C   0  0  0  0  0  0  0  0  0  0  0  0
  1  2  1  0
  1  6  1  0
  2  3  1  0
  3  4  1  0
  4  5  1  0
  5  6  1  0
  5  7  1  0
  8  7  1  0
  7  9  1  0
  8 10  1  0
  8 14  1  0
 10 11  1  0
 11 12  1  0
 12 13  1  0
 13 14  1  0
  2 15  1  0
 15 16  1  0
 16 17  2  0
 12 18  1  0
 18 19  1  0
 19 20  2  0
 19 21  1  0
 16 22  1  0
 22 23  3  0
 23 24  1  0
 24 25  2  0
 25 26  1  0
 26 27  2  0
 27 28  1  0
 28 29  2  0
 29 24  1  0
 26 30  1  0
 30 31  1  0
 27 32  1  0
 32 33  1  0
 28 34  1  0
 34 35  1  0
 21 43  1  0
 42 37  1  0
 36 21  1  0
 36 37  1  0
 37 38  2  0
 38 39  1  0
 39 40  2  0
 40 41  1  0
 41 36  2  0
 42 43  2  0
 43 44  1  0
 44 45  2  0
 45 46  1  0
 46 47  2  0
 47 42  1  0
M  END
>  <Classification>  (438) 
1

>  <pchembl>  (438) 
6.3

>  <InChI_steorem>  (438) 
InChI=1S/C39H43NO7/c1-40(26-14-18-28(19-15-26)46-36(41)22-13-25-23-34(43-2)38(45-4)35(24-25)44-3)27-16-20-29(21-17-27)47-39(42)37-32-11-7-5-9-30(32)31-10-6-8-12-33(31)37/h5-12,23-24,26-29,37H,14-21H2,1-4H3

>  <source>  (438) 
ChEMBL25

>  <source_id>  (438) 
25

>  <optional_reference>  (438) 
10.1016/j.bmc.2012.11.019

>  <optional_origin>  (438) 
None

>  <target>  (438) 
MDR1

$$$$

     RDKit          2D

 51 55  0  0  0  0  0  0  0  0999 V2000
   24.1958   -8.0488    0.0000 C   0  0  0  0  0  0  0  0  0  0  0  0
   24.1958   -8.8739    0.0000 C   0  0  0  0  0  0  0  0  0  0  0  0
   24.9079   -9.2823    0.0000 C   0  0  0  0  0  0  0  0  0  0  0  0
   25.6199   -8.8739    0.0000 C   0  0  0  0  0  0  0  0  0  0  0  0
   25.6199   -8.0488    0.0000 C   0  0  0  0  0  0  0  0  0  0  0  0
   24.9079   -7.6322    0.0000 C   0  0  0  0  0  0  0  0  0  0  0  0
   26.3357   -7.6384    0.0000 N   0  0  0  0  0  0  0  0  0  0  0  0
   27.0490   -8.0530    0.0000 C   0  0  0  0  0  0  0  0  0  0  0  0
   26.3381   -6.8133    0.0000 C   0  0  0  0  0  0  0  0  0  0  0  0
   27.0413   -8.8836    0.0000 C   0  0  0  0  0  0  0  0  0  0  0  0
   27.7505   -9.2981    0.0000 C   0  0  0  0  0  0  0  0  0  0  0  0
   28.4686   -8.8912    0.0000 C   0  0  0  0  0  0  0  0  0  0  0  0
   28.4730   -8.0651    0.0000 C   0  0  0  0  0  0  0  0  0  0  0  0
   27.7593   -7.6461    0.0000 C   0  0  0  0  0  0  0  0  0  0  0  0
   23.4818   -9.2875    0.0000 O   0  0  0  0  0  0  0  0  0  0  0  0
   22.7667   -8.8760    0.0000 C   0  0  0  0  0  0  0  0  0  0  0  0
   22.0528   -9.2895    0.0000 C   0  0  0  0  0  0  0  0  0  0  0  0
   22.7655   -8.0509    0.0000 O   0  0  0  0  0  0  0  0  0  0  0  0
   29.1804   -9.3085    0.0000 O   0  0  0  0  0  0  0  0  0  0  0  0
   29.8976   -8.9008    0.0000 C   0  0  0  0  0  0  0  0  0  0  0  0
   29.9032   -8.0757    0.0000 O   0  0  0  0  0  0  0  0  0  0  0  0
   21.3372   -9.7027    0.0000 C   0  0  0  0  0  0  0  0  0  0  0  0
   20.6227  -10.1153    0.0000 C   0  0  0  0  0  0  0  0  0  0  0  0
   19.9130   -9.6998    0.0000 C   0  0  0  0  0  0  0  0  0  0  0  0
   19.1990  -10.1118    0.0000 C   0  0  0  0  0  0  0  0  0  0  0  0
   19.1985  -10.9376    0.0000 C   0  0  0  0  0  0  0  0  0  0  0  0
   19.9182  -11.3499    0.0000 C   0  0  0  0  0  0  0  0  0  0  0  0
   20.6292  -10.9357    0.0000 C   0  0  0  0  0  0  0  0  0  0  0  0
   18.4847   -9.6988    0.0000 O   0  0  0  0  0  0  0  0  0  0  0  0
   18.4850   -8.8738    0.0000 C   0  0  0  0  0  0  0  0  0  0  0  0
   18.4846  -11.3511    0.0000 O   0  0  0  0  0  0  0  0  0  0  0  0
   17.7695  -10.9396    0.0000 C   0  0  0  0  0  0  0  0  0  0  0  0
   19.9211  -12.1750    0.0000 O   0  0  0  0  0  0  0  0  0  0  0  0
   19.2080  -12.5901    0.0000 C   0  0  0  0  0  0  0  0  0  0  0  0
   30.6094   -9.3181    0.0000 C   0  0  0  0  0  0  0  0  0  0  0  0
   30.6039  -10.1431    0.0000 C   0  0  0  0  0  0  0  0  0  0  0  0
   31.3266   -8.9104    0.0000 C   0  0  0  0  0  0  0  0  0  0  0  0
   32.0347   -9.3301    0.0000 C   0  0  0  0  0  0  0  0  0  0  0  0
   32.7514   -8.9230    0.0000 C   0  0  0  0  0  0  0  0  0  0  0  0
   32.7574   -8.0971    0.0000 C   0  0  0  0  0  0  0  0  0  0  0  0
   32.0407   -7.6799    0.0000 C   0  0  0  0  0  0  0  0  0  0  0  0
   31.3268   -8.0893    0.0000 C   0  0  0  0  0  0  0  0  0  0  0  0
   29.8867  -10.5484    0.0000 C   0  0  0  0  0  0  0  0  0  0  0  0
   29.8809  -11.3726    0.0000 C   0  0  0  0  0  0  0  0  0  0  0  0
   30.5932  -11.7908    0.0000 C   0  0  0  0  0  0  0  0  0  0  0  0
   31.3128  -11.3786    0.0000 C   0  0  0  0  0  0  0  0  0  0  0  0
   31.3151  -10.5557    0.0000 C   0  0  0  0  0  0  0  0  0  0  0  0
   33.4742   -7.6884    0.0000 O   0  0  0  0  0  0  0  0  0  0  0  0
   34.1864   -8.1048    0.0000 C   0  0  0  0  0  0  0  0  0  0  0  0
   30.5887  -12.6158    0.0000 O   0  0  0  0  0  0  0  0  0  0  0  0
   29.8720  -13.0245    0.0000 C   0  0  0  0  0  0  0  0  0  0  0  0
  1  2  1  0
  1  6  1  0
  2  3  1  0
  3  4  1  0
  4  5  1  0
  5  6  1  0
  5  7  1  0
  8  7  1  0
  7  9  1  0
  8 10  1  0
  8 14  1  0
 10 11  1  0
 11 12  1  0
 12 13  1  0
 13 14  1  0
  2 15  1  0
 15 16  1  0
 16 17  1  0
 16 18  2  0
 12 19  1  0
 19 20  1  0
 20 21  2  0
 17 22  3  0
 22 23  1  0
 23 24  2  0
 24 25  1  0
 25 26  2  0
 26 27  1  0
 27 28  2  0
 28 23  1  0
 25 29  1  0
 29 30  1  0
 26 31  1  0
 31 32  1  0
 27 33  1  0
 33 34  1  0
 20 35  1  0
 35 36  1  0
 35 37  1  0
 37 38  2  0
 38 39  1  0
 39 40  2  0
 40 41  1  0
 41 42  2  0
 42 37  1  0
 36 43  2  0
 43 44  1  0
 44 45  2  0
 45 46  1  0
 46 47  2  0
 47 36  1  0
 40 48  1  0
 48 49  1  0
 45 50  1  0
 50 51  1  0
M  END
>  <Classification>  (439) 
1

>  <pchembl>  (439) 
7.7

>  <InChI_steorem>  (439) 
InChI=1S/C41H49NO9/c1-42(30-12-20-34(21-13-30)50-38(43)24-7-27-25-36(47-4)40(49-6)37(26-27)48-5)31-14-22-35(23-15-31)51-41(44)39(28-8-16-32(45-2)17-9-28)29-10-18-33(46-3)19-11-29/h8-11,16-19,25-26,30-31,34-35,39H,12-15,20-23H2,1-6H3

>  <source>  (439) 
ChEMBL25

>  <source_id>  (439) 
25

>  <optional_reference>  (439) 
10.1016/j.bmc.2012.11.019

>  <optional_origin>  (439) 
None

>  <target>  (439) 
MDR1

$$$$

     RDKit          2D

 52 55  0  0  0  0  0  0  0  0999 V2000
   15.1922  -15.0052    0.0000 C   0  0  0  0  0  0  0  0  0  0  0  0
   14.7838  -14.2927    0.0000 C   0  0  0  0  0  0  0  0  0  0  0  0
   14.3709  -15.0025    0.0000 C   0  0  0  0  0  0  0  0  0  0  0  0
    6.9421  -13.0177    0.0000 C   0  0  0  0  0  0  0  0  0  0  0  0
    6.9421  -13.8427    0.0000 C   0  0  0  0  0  0  0  0  0  0  0  0
    7.6542  -14.2510    0.0000 C   0  0  0  0  0  0  0  0  0  0  0  0
    8.3662  -13.8427    0.0000 C   0  0  0  0  0  0  0  0  0  0  0  0
    8.3662  -13.0177    0.0000 C   0  0  0  0  0  0  0  0  0  0  0  0
    7.6542  -12.6010    0.0000 C   0  0  0  0  0  0  0  0  0  0  0  0
    9.0819  -12.6073    0.0000 N   0  0  0  0  0  0  0  0  0  0  0  0
    9.7951  -13.0218    0.0000 C   0  0  0  0  0  0  0  0  0  0  0  0
    9.0843  -11.7823    0.0000 C   0  0  0  0  0  0  0  0  0  0  0  0
    9.7874  -13.8523    0.0000 C   0  0  0  0  0  0  0  0  0  0  0  0
   10.4966  -14.2668    0.0000 C   0  0  0  0  0  0  0  0  0  0  0  0
   11.2147  -13.8599    0.0000 C   0  0  0  0  0  0  0  0  0  0  0  0
   11.2191  -13.0340    0.0000 C   0  0  0  0  0  0  0  0  0  0  0  0
   10.5054  -12.6149    0.0000 C   0  0  0  0  0  0  0  0  0  0  0  0
    6.2283  -14.2562    0.0000 O   0  0  0  0  0  0  0  0  0  0  0  0
    5.5132  -13.8447    0.0000 C   0  0  0  0  0  0  0  0  0  0  0  0
    4.7993  -14.2583    0.0000 C   0  0  0  0  0  0  0  0  0  0  0  0
    5.5120  -13.0197    0.0000 O   0  0  0  0  0  0  0  0  0  0  0  0
   11.9264  -14.2772    0.0000 O   0  0  0  0  0  0  0  0  0  0  0  0
   12.6436  -13.8695    0.0000 C   0  0  0  0  0  0  0  0  0  0  0  0
   12.6491  -13.0445    0.0000 O   0  0  0  0  0  0  0  0  0  0  0  0
    4.0843  -13.8468    0.0000 C   0  0  0  0  0  0  0  0  0  0  0  0
    3.3704  -14.2603    0.0000 C   0  0  0  0  0  0  0  0  0  0  0  0
    2.6562  -13.8472    0.0000 C   0  0  0  0  0  0  0  0  0  0  0  0
    1.9428  -14.2601    0.0000 C   0  0  0  0  0  0  0  0  0  0  0  0
    1.9436  -15.0860    0.0000 C   0  0  0  0  0  0  0  0  0  0  0  0
    2.6637  -15.4973    0.0000 C   0  0  0  0  0  0  0  0  0  0  0  0
    3.3741  -15.0820    0.0000 C   0  0  0  0  0  0  0  0  0  0  0  0
    1.2230  -13.8483    0.0000 O   0  0  0  0  0  0  0  0  0  0  0  0
    1.2238  -13.0233    0.0000 C   0  0  0  0  0  0  0  0  0  0  0  0
    1.2290  -15.5004    0.0000 O   0  0  0  0  0  0  0  0  0  0  0  0
    0.5113  -15.0899    0.0000 C   0  0  0  0  0  0  0  0  0  0  0  0
    2.6678  -16.3222    0.0000 O   0  0  0  0  0  0  0  0  0  0  0  0
    1.9554  -16.7383    0.0000 C   0  0  0  0  0  0  0  0  0  0  0  0
   13.3553  -14.2868    0.0000 C   0  0  0  0  0  0  0  0  0  0  0  0
   14.0725  -13.8791    0.0000 C   0  0  0  0  0  0  0  0  0  0  0  0
   15.5014  -13.8887    0.0000 C   0  0  0  0  0  0  0  0  0  0  0  0
   16.2120  -14.3096    0.0000 C   0  0  0  0  0  0  0  0  0  0  0  0
   16.9287  -13.9026    0.0000 C   0  0  0  0  0  0  0  0  0  0  0  0
   16.9347  -13.0767    0.0000 C   0  0  0  0  0  0  0  0  0  0  0  0
   16.2180  -12.6596    0.0000 C   0  0  0  0  0  0  0  0  0  0  0  0
   15.5042  -13.0690    0.0000 C   0  0  0  0  0  0  0  0  0  0  0  0
   13.9616  -15.7097    0.0000 N   0  0  0  0  0  0  0  0  0  0  0  0
   16.0171  -15.0078    0.0000 C   0  0  0  0  0  0  0  0  0  0  0  0
   14.9755  -15.8010    0.0000 C   0  0  0  0  0  0  0  0  0  0  0  0
   17.6402  -14.3202    0.0000 O   0  0  0  0  0  0  0  0  0  0  0  0
   17.6514  -12.6680    0.0000 O   0  0  0  0  0  0  0  0  0  0  0  0
   17.6558  -11.8430    0.0000 C   0  0  0  0  0  0  0  0  0  0  0  0
   18.3576  -13.9129    0.0000 C   0  0  0  0  0  0  0  0  0  0  0  0
  2  1  1  0
  3  2  1  0
  4  5  1  0
  4  9  1  0
  5  6  1  0
  6  7  1  0
  7  8  1  0
  8  9  1  0
  8 10  1  0
 11 10  1  0
 10 12  1  0
 11 13  1  0
 11 17  1  0
 13 14  1  0
 14 15  1  0
 15 16  1  0
 16 17  1  0
  5 18  1  0
 18 19  1  0
 19 20  1  0
 19 21  2  0
 15 22  1  0
 22 23  1  0
 23 24  2  0
 20 25  2  3
 25 26  1  0
 26 27  2  0
 27 28  1  0
 28 29  2  0
 29 30  1  0
 30 31  2  0
 31 26  1  0
 28 32  1  0
 32 33  1  0
 29 34  1  0
 34 35  1  0
 30 36  1  0
 36 37  1  0
 23 38  1  0
 38 39  1  0
 39  2  1  0
  2 40  1  0
 40 41  2  0
 41 42  1  0
 42 43  2  0
 43 44  1  0
 44 45  2  0
 45 40  1  0
  3 46  3  0
  1 47  1  0
  1 48  1  0
 42 49  1  0
 43 50  1  0
 50 51  1  0
 49 52  1  0
M  END
>  <Classification>  (440) 
1

>  <pchembl>  (440) 
6.62

>  <InChI_steorem>  (440) 
InChI=1S/C41H56N2O9/c1-27(2)41(26-42,29-10-19-34(46-4)35(25-29)47-5)22-21-39(45)52-33-17-13-31(14-18-33)43(3)30-11-15-32(16-12-30)51-38(44)20-9-28-23-36(48-6)40(50-8)37(24-28)49-7/h9-10,19-20,23-25,27,30-33H,11-18,21-22H2,1-8H3

>  <source>  (440) 
ChEMBL25

>  <source_id>  (440) 
25

>  <optional_reference>  (440) 
10.1016/j.bmc.2012.11.019

>  <optional_origin>  (440) 
None

>  <target>  (440) 
MDR1

$$$$

     RDKit          2D

 40 45  0  0  0  0  0  0  0  0999 V2000
   12.4251   -6.7723    0.0000 C   0  0  0  0  0  0  0  0  0  0  0  0
   10.2989   -6.3547    0.0000 C   0  0  0  0  0  0  0  0  0  0  0  0
   10.2948   -7.9919    0.0000 N   0  0  0  0  0  0  0  0  0  0  0  0
   12.4203   -7.5879    0.0000 C   0  0  0  0  0  0  0  0  0  0  0  0
    9.5903   -6.7610    0.0000 C   0  0  0  0  0  0  0  0  0  0  0  0
    9.5863   -7.5836    0.0000 C   0  0  0  0  0  0  0  0  0  0  0  0
   11.7193   -6.3561    0.0000 C   0  0  0  0  0  0  0  0  0  0  0  0
   11.0028   -7.5860    0.0000 C   0  0  0  0  0  0  0  0  0  0  0  0
   11.7097   -7.9981    0.0000 C   0  0  0  0  0  0  0  0  0  0  0  0
   11.0028   -6.7666    0.0000 C   0  0  0  0  0  0  0  0  0  0  0  0
   13.1359   -6.3691    0.0000 C   0  0  0  0  0  0  0  0  0  0  0  0
   12.4467  -10.0624    0.0000 C   0  0  0  0  0  0  0  0  0  0  0  0
    8.1852   -9.2762    0.0000 C   0  0  0  0  0  0  0  0  0  0  0  0
   10.3208  -10.4915    0.0000 C   0  0  0  0  0  0  0  0  0  0  0  0
   13.8493   -6.7720    0.0000 N   0  0  0  0  0  0  0  0  0  0  0  0
   13.8555   -7.5930    0.0000 C   0  0  0  0  0  0  0  0  0  0  0  0
   13.1503   -8.0100    0.0000 C   0  0  0  0  0  0  0  0  0  0  0  0
    7.4846  -10.5132    0.0000 C   0  0  0  0  0  0  0  0  0  0  0  0
   11.7409  -10.4786    0.0000 C   0  0  0  0  0  0  0  0  0  0  0  0
   11.0277  -10.0728    0.0000 C   0  0  0  0  0  0  0  0  0  0  0  0
   11.0208   -9.2464    0.0000 C   0  0  0  0  0  0  0  0  0  0  0  0
   15.2808   -7.5861    0.0000 C   0  0  0  0  0  0  0  0  0  0  0  0
   13.1296   -5.5482    0.0000 O   0  0  0  0  0  0  0  0  0  0  0  0
   14.5726   -8.0024    0.0000 C   0  0  0  0  0  0  0  0  0  0  0  0
   15.2763   -6.7653    0.0000 O   0  0  0  0  0  0  0  0  0  0  0  0
   14.5754   -8.8243    0.0000 C   0  0  0  0  0  0  0  0  0  0  0  0
   12.4438   -9.2391    0.0000 C   0  0  0  0  0  0  0  0  0  0  0  0
   15.9933   -7.9949    0.0000 O   0  0  0  0  0  0  0  0  0  0  0  0
    7.4739   -8.8722    0.0000 C   0  0  0  0  0  0  0  0  0  0  0  0
    8.8927   -8.8647    0.0000 C   0  0  0  0  0  0  0  0  0  0  0  0
   13.8672   -9.2348    0.0000 C   0  0  0  0  0  0  0  0  0  0  0  0
    6.7613   -9.2845    0.0000 C   0  0  0  0  0  0  0  0  0  0  0  0
    8.1885  -10.0975    0.0000 C   0  0  0  0  0  0  0  0  0  0  0  0
   16.7015   -7.5786    0.0000 C   0  0  0  0  0  0  0  0  0  0  0  0
   13.1549   -8.8276    0.0000 C   0  0  0  0  0  0  0  0  0  0  0  0
   11.7312   -8.8338    0.0000 C   0  0  0  0  0  0  0  0  0  0  0  0
    8.9028  -10.5085    0.0000 C   0  0  0  0  0  0  0  0  0  0  0  0
    6.7686  -10.1089    0.0000 C   0  0  0  0  0  0  0  0  0  0  0  0
    9.6026   -9.2668    0.0000 C   0  0  0  0  0  0  0  0  0  0  0  0
    9.6070  -10.0851    0.0000 N   0  0  0  0  0  0  0  0  0  0  0  0
  7  1  2  0
  6  5  1  0
  5  2  2  0
  3  6  2  0
 10  8  2  0
  2 10  1  0
  4  9  2  0
  1  4  1  0
  9  8  1  0
  8  3  1  0
 10  7  1  0
  1 11  1  0
 35 31  1  0
 17 35  2  0
 30 13  1  0
 26 24  1  0
 22 28  1  0
 14 40  1  0
 16 17  1  0
 22 25  2  0
 24 22  1  0
 36 21  1  0
 16 15  1  0
 20 19  1  0
 21 20  2  0
 19 12  2  0
 40 39  1  0
 24 16  2  0
 15 11  1  0
 38 18  2  0
 32 38  1  0
 11 23  2  0
 27 36  2  0
 28 34  1  0
 13 29  1  0
 33 13  2  0
 18 33  1  0
 40 37  1  0
 27 35  1  0
 33 37  1  0
 12 27  1  0
 29 32  2  0
 31 26  2  0
 39 30  1  0
 20 14  1  0
M  END
>  <Classification>  (441) 
1

>  <pchembl>  (441) 
5.35

>  <InChI_steorem>  (441) 
InChI=1S/C34H29N3O3/c1-40-34(39)30-14-12-26(20-32(30)36-33(38)28-13-15-31-27(19-28)7-4-17-35-31)25-10-8-23(9-11-25)21-37-18-16-24-5-2-3-6-29(24)22-37/h2-15,17,19-20H,16,18,21-22H2,1H3,(H,36,38)

>  <source>  (441) 
ChEMBL25

>  <source_id>  (441) 
25

>  <optional_reference>  (441) 
10.1021/ml4000832

>  <optional_origin>  (441) 
None

>  <target>  (441) 
MDR1

$$$$

     RDKit          2D

 44 49  0  0  0  0  0  0  0  0999 V2000
   12.5284   -9.6830    0.0000 C   0  0  0  0  0  0  0  0  0  0  0  0
   11.8193  -10.0916    0.0000 C   0  0  0  0  0  0  0  0  0  0  0  0
   11.1102   -9.6830    0.0000 C   0  0  0  0  0  0  0  0  0  0  0  0
   11.1102   -8.8658    0.0000 C   0  0  0  0  0  0  0  0  0  0  0  0
   11.8193   -8.4572    0.0000 C   0  0  0  0  0  0  0  0  0  0  0  0
   12.5284   -8.8658    0.0000 C   0  0  0  0  0  0  0  0  0  0  0  0
   13.2333  -10.0916    0.0000 C   0  0  0  0  0  0  0  0  0  0  0  0
   13.9424   -9.6830    0.0000 C   0  0  0  0  0  0  0  0  0  0  0  0
   14.6515  -10.0916    0.0000 C   0  0  0  0  0  0  0  0  0  0  0  0
   14.6515  -10.9088    0.0000 C   0  0  0  0  0  0  0  0  0  0  0  0
   13.9424  -11.3174    0.0000 C   0  0  0  0  0  0  0  0  0  0  0  0
   13.2333  -10.9088    0.0000 C   0  0  0  0  0  0  0  0  0  0  0  0
   10.4011   -8.4572    0.0000 C   0  0  0  0  0  0  0  0  0  0  0  0
   10.4011   -7.6400    0.0000 O   0  0  0  0  0  0  0  0  0  0  0  0
    9.6961   -8.8658    0.0000 O   0  0  0  0  0  0  0  0  0  0  0  0
   10.4011  -10.0916    0.0000 N   0  0  0  0  0  0  0  0  0  0  0  0
   10.4011  -10.9088    0.0000 C   0  0  0  0  0  0  0  0  0  0  0  0
   11.1102  -11.3174    0.0000 O   0  0  0  0  0  0  0  0  0  0  0  0
    7.5730  -12.5432    0.0000 N   0  0  0  0  0  0  0  0  0  0  0  0
    6.8639  -12.1346    0.0000 C   0  0  0  0  0  0  0  0  0  0  0  0
    6.8639  -11.3174    0.0000 C   0  0  0  0  0  0  0  0  0  0  0  0
    7.5730  -10.9088    0.0000 C   0  0  0  0  0  0  0  0  0  0  0  0
    8.2821  -11.3174    0.0000 C   0  0  0  0  0  0  0  0  0  0  0  0
    8.9870  -10.9088    0.0000 C   0  0  0  0  0  0  0  0  0  0  0  0
    9.6961  -11.3174    0.0000 C   0  0  0  0  0  0  0  0  0  0  0  0
    9.6961  -12.1346    0.0000 C   0  0  0  0  0  0  0  0  0  0  0  0
    8.9870  -12.5432    0.0000 C   0  0  0  0  0  0  0  0  0  0  0  0
    8.2821  -12.1346    0.0000 C   0  0  0  0  0  0  0  0  0  0  0  0
   15.3565  -11.3174    0.0000 C   0  0  0  0  0  0  0  0  0  0  0  0
   16.7746  -11.3174    0.0000 C   0  0  0  0  0  0  0  0  0  0  0  0
   16.0656  -10.9088    0.0000 N   0  0  0  0  0  0  0  0  0  0  0  0
   16.0656  -10.0916    0.0000 C   0  0  0  0  0  0  0  0  0  0  0  0
   16.7746   -9.6830    0.0000 C   0  0  0  0  0  0  0  0  0  0  0  0
   17.4796  -10.0916    0.0000 C   0  0  0  0  0  0  0  0  0  0  0  0
   18.1887   -9.6830    0.0000 C   0  0  0  0  0  0  0  0  0  0  0  0
   18.8978  -10.0916    0.0000 C   0  0  0  0  0  0  0  0  0  0  0  0
   18.8978  -10.9088    0.0000 C   0  0  0  0  0  0  0  0  0  0  0  0
   18.1887  -11.3174    0.0000 C   0  0  0  0  0  0  0  0  0  0  0  0
   17.4796  -10.9088    0.0000 C   0  0  0  0  0  0  0  0  0  0  0  0
   19.6027  -11.3174    0.0000 O   0  0  0  0  0  0  0  0  0  0  0  0
   20.3118  -10.9088    0.0000 C   0  0  0  0  0  0  0  0  0  0  0  0
   19.6027   -9.6830    0.0000 O   0  0  0  0  0  0  0  0  0  0  0  0
   20.3118  -10.0916    0.0000 C   0  0  0  0  0  0  0  0  0  0  0  0
    9.6961   -9.6830    0.0000 C   0  0  0  0  0  0  0  0  0  0  0  0
  1  2  2  0
  2  3  1  0
  3  4  2  0
  4  5  1  0
  5  6  2  0
  1  6  1  0
  7  8  2  0
  8  9  1  0
  9 10  2  0
 10 11  1  0
 11 12  2  0
  7 12  1  0
  1  7  1  0
 13 14  2  0
 13 15  1  0
  4 13  1  0
 17 18  2  0
 19 20  2  0
 20 21  1  0
 21 22  2  0
 22 23  1  0
 23 24  2  0
 24 25  1  0
 25 26  2  0
 26 27  1  0
 27 28  2  0
 19 28  1  0
 23 28  1  0
 17 25  1  0
 16 17  1  0
  3 16  1  0
 30 31  1  0
 31 32  1  0
 32 33  1  0
 33 34  1  0
 34 35  2  0
 35 36  1  0
 36 37  2  0
 37 38  1  0
 38 39  2  0
 30 39  1  0
 34 39  1  0
 40 41  1  0
 37 40  1  0
 42 43  1  0
 36 42  1  0
 29 31  1  0
 10 29  1  0
 15 44  1  0
M  END
>  <Classification>  (442) 
0

>  <pchembl>  (442) 
4.96

>  <InChI_steorem>  (442) 
InChI=1S/C36H33N3O5/c1-42-33-19-26-14-16-39(22-29(26)20-34(33)43-2)21-23-6-8-24(9-7-23)25-10-12-30(36(41)44-3)32(18-25)38-35(40)28-11-13-31-27(17-28)5-4-15-37-31/h4-13,15,17-20H,14,16,21-22H2,1-3H3,(H,38,40)

>  <source>  (442) 
ChEMBL25

>  <source_id>  (442) 
25

>  <optional_reference>  (442) 
10.1021/ml4000832

>  <optional_origin>  (442) 
None

>  <target>  (442) 
MDR1

$$$$

     RDKit          2D

 53 58  0  0  0  0  0  0  0  0999 V2000
   20.5196  -21.0959    0.0000 C   0  0  0  0  0  0  0  0  0  0  0  0
   20.5184  -21.9234    0.0000 C   0  0  0  0  0  0  0  0  0  0  0  0
   21.2332  -22.3362    0.0000 C   0  0  0  0  0  0  0  0  0  0  0  0
   21.9496  -21.9229    0.0000 C   0  0  0  0  0  0  0  0  0  0  0  0
   21.9468  -21.0923    0.0000 C   0  0  0  0  0  0  0  0  0  0  0  0
   21.2314  -20.6832    0.0000 C   0  0  0  0  0  0  0  0  0  0  0  0
   22.6597  -20.6772    0.0000 C   0  0  0  0  0  0  0  0  0  0  0  0
   23.3757  -21.0869    0.0000 N   0  0  0  0  0  0  0  0  0  0  0  0
   23.3762  -21.9091    0.0000 C   0  0  0  0  0  0  0  0  0  0  0  0
   24.0882  -22.3188    0.0000 C   0  0  0  0  0  0  0  0  0  0  0  0
   24.0859  -20.6670    0.0000 C   0  0  0  0  0  0  0  0  0  0  0  0
   24.8023  -21.0812    0.0000 C   0  0  0  0  0  0  0  0  0  0  0  0
   24.8017  -21.9067    0.0000 C   0  0  0  0  0  0  0  0  0  0  0  0
   25.5152  -22.3181    0.0000 C   0  0  0  0  0  0  0  0  0  0  0  0
   26.2297  -21.9053    0.0000 C   0  0  0  0  0  0  0  0  0  0  0  0
   26.2263  -21.0766    0.0000 C   0  0  0  0  0  0  0  0  0  0  0  0
   25.5124  -20.6690    0.0000 C   0  0  0  0  0  0  0  0  0  0  0  0
   19.8055  -22.3356    0.0000 C   0  0  0  0  0  0  0  0  0  0  0  0
   19.0910  -21.9207    0.0000 C   0  0  0  0  0  0  0  0  0  0  0  0
   18.3768  -22.3320    0.0000 C   0  0  0  0  0  0  0  0  0  0  0  0
   18.3757  -23.1579    0.0000 C   0  0  0  0  0  0  0  0  0  0  0  0
   19.0949  -23.5708    0.0000 C   0  0  0  0  0  0  0  0  0  0  0  0
   19.8062  -23.1572    0.0000 C   0  0  0  0  0  0  0  0  0  0  0  0
   17.6614  -23.5708    0.0000 C   0  0  0  0  0  0  0  0  0  0  0  0
   16.9467  -23.1587    0.0000 O   0  0  0  0  0  0  0  0  0  0  0  0
   17.6618  -24.3958    0.0000 O   0  0  0  0  0  0  0  0  0  0  0  0
   16.2325  -23.5716    0.0000 C   0  0  0  0  0  0  0  0  0  0  0  0
   19.0971  -24.3958    0.0000 N   0  0  0  0  0  0  0  0  0  0  0  0
   19.8127  -24.8064    0.0000 C   0  0  0  0  0  0  0  0  0  0  0  0
   19.8150  -25.6314    0.0000 O   0  0  0  0  0  0  0  0  0  0  0  0
   20.5260  -24.3919    0.0000 C   0  0  0  0  0  0  0  0  0  0  0  0
   21.2407  -24.8062    0.0000 N   0  0  0  0  0  0  0  0  0  0  0  0
   21.2311  -23.1561    0.0000 C   0  0  0  0  0  0  0  0  0  0  0  0
   20.5212  -23.5722    0.0000 C   0  0  0  0  0  0  0  0  0  0  0  0
   21.9517  -23.5664    0.0000 C   0  0  0  0  0  0  0  0  0  0  0  0
   21.9517  -24.3900    0.0000 C   0  0  0  0  0  0  0  0  0  0  0  0
   22.6638  -24.8000    0.0000 C   0  0  0  0  0  0  0  0  0  0  0  0
   23.3764  -24.3876    0.0000 C   0  0  0  0  0  0  0  0  0  0  0  0
   23.3724  -23.5609    0.0000 C   0  0  0  0  0  0  0  0  0  0  0  0
   22.6597  -23.1546    0.0000 C   0  0  0  0  0  0  0  0  0  0  0  0
   26.9390  -20.6610    0.0000 O   0  0  0  0  0  0  0  0  0  0  0  0
   27.6553  -21.0704    0.0000 C   0  0  0  0  0  0  0  0  0  0  0  0
   26.9451  -22.3162    0.0000 O   0  0  0  0  0  0  0  0  0  0  0  0
   27.6587  -21.9021    0.0000 C   0  0  0  0  0  0  0  0  0  0  0  0
   28.3679  -20.6548    0.0000 C   0  0  0  0  0  0  0  0  0  0  0  0
   29.0842  -21.0640    0.0000 O   0  0  0  0  0  0  0  0  0  0  0  0
   29.7968  -20.6484    0.0000 C   0  0  0  0  0  0  0  0  0  0  0  0
   30.5131  -21.0578    0.0000 C   0  0  0  0  0  0  0  0  0  0  0  0
   31.2258  -20.6421    0.0000 O   0  0  0  0  0  0  0  0  0  0  0  0
   31.9421  -21.0515    0.0000 C   0  0  0  0  0  0  0  0  0  0  0  0
   32.6547  -20.6358    0.0000 C   0  0  0  0  0  0  0  0  0  0  0  0
   33.3710  -21.0451    0.0000 O   0  0  0  0  0  0  0  0  0  0  0  0
   34.0837  -20.6295    0.0000 C   0  0  0  0  0  0  0  0  0  0  0  0
  1  2  2  0
  2  3  1  0
  3  4  2  0
  4  5  1  0
  5  6  2  0
  6  1  1  0
  5  7  1  0
  7  8  1  0
  8  9  1  0
  8 11  1  0
  9 10  1  0
 10 13  1  0
 12 11  1  0
 12 13  2  0
 13 14  1  0
 14 15  2  0
 15 16  1  0
 16 17  2  0
 17 12  1  0
 18 19  2  0
 19 20  1  0
 20 21  2  0
 21 22  1  0
 22 23  2  0
 23 18  1  0
  2 18  1  0
 21 24  1  0
 24 25  1  0
 24 26  2  0
 25 27  1  0
 22 28  1  0
 28 29  1  0
 29 30  2  0
 29 31  1  0
 31 32  2  0
 32 36  1  0
 35 33  1  0
 33 34  2  0
 34 31  1  0
 35 36  2  0
 36 37  1  0
 37 38  2  0
 38 39  1  0
 39 40  2  0
 40 35  1  0
 16 41  1  0
 41 42  1  0
 15 43  1  0
 43 44  1  0
 42 45  1  0
 45 46  1  0
 46 47  1  0
 47 48  1  0
 48 49  1  0
 49 50  1  0
 50 51  1  0
 51 52  1  0
 52 53  1  0
M  END
>  <Classification>  (443) 
1

>  <pchembl>  (443) 
5.91

>  <InChI_steorem>  (443) 
InChI=1S/C42H45N3O8/c1-48-18-19-51-20-21-52-22-23-53-40-26-34-28-45(17-16-33(34)25-39(40)49-2)27-29-8-10-30(11-9-29)32-12-14-35(42(47)50-3)38(24-32)44-41(46)37-15-13-31-6-4-5-7-36(31)43-37/h4-15,24-26H,16-23,27-28H2,1-3H3,(H,44,46)

>  <source>  (443) 
ChEMBL25

>  <source_id>  (443) 
25

>  <optional_reference>  (443) 
10.1021/ml4000832

>  <optional_origin>  (443) 
None

>  <target>  (443) 
MDR1

$$$$

     RDKit          2D

 53 58  0  0  0  0  0  0  0  0999 V2000
    8.4167  -11.3303    0.0000 C   0  0  0  0  0  0  0  0  0  0  0  0
   10.5427  -11.7478    0.0000 C   0  0  0  0  0  0  0  0  0  0  0  0
   11.2553  -10.5191    0.0000 C   0  0  0  0  0  0  0  0  0  0  0  0
   11.2513  -11.3416    0.0000 C   0  0  0  0  0  0  0  0  0  0  0  0
   10.5469  -10.1108    0.0000 N   0  0  0  0  0  0  0  0  0  0  0  0
    9.8390  -11.3360    0.0000 C   0  0  0  0  0  0  0  0  0  0  0  0
    9.1320  -10.1047    0.0000 C   0  0  0  0  0  0  0  0  0  0  0  0
    9.1225  -11.7464    0.0000 C   0  0  0  0  0  0  0  0  0  0  0  0
    8.4214  -10.5147    0.0000 C   0  0  0  0  0  0  0  0  0  0  0  0
    9.8389  -10.5165    0.0000 C   0  0  0  0  0  0  0  0  0  0  0  0
    9.1227   -7.6425    0.0000 C   0  0  0  0  0  0  0  0  0  0  0  0
   11.9607   -7.6263    0.0000 C   0  0  0  0  0  0  0  0  0  0  0  0
    5.5629  -11.3387    0.0000 O   0  0  0  0  0  0  0  0  0  0  0  0
   21.9151   -9.2516    0.0000 C   0  0  0  0  0  0  0  0  0  0  0  0
   11.2547   -8.0464    0.0000 N   0  0  0  0  0  0  0  0  0  0  0  0
   14.8014   -7.6204    0.0000 O   0  0  0  0  0  0  0  0  0  0  0  0
   11.2551   -8.8645    0.0000 C   0  0  0  0  0  0  0  0  0  0  0  0
    7.7122  -11.7451    0.0000 C   0  0  0  0  0  0  0  0  0  0  0  0
   17.6489   -9.2610    0.0000 C   0  0  0  0  0  0  0  0  0  0  0  0
   14.8075   -9.2674    0.0000 O   0  0  0  0  0  0  0  0  0  0  0  0
   13.3858   -9.2693    0.0000 C   0  0  0  0  0  0  0  0  0  0  0  0
   13.3830   -7.6283    0.0000 C   0  0  0  0  0  0  0  0  0  0  0  0
    6.9944  -11.3387    0.0000 N   0  0  0  0  0  0  0  0  0  0  0  0
   15.5170   -8.8574    0.0000 C   0  0  0  0  0  0  0  0  0  0  0  0
    4.1421  -10.5185    0.0000 C   0  0  0  0  0  0  0  0  0  0  0  0
    9.8340   -8.0517    0.0000 C   0  0  0  0  0  0  0  0  0  0  0  0
    9.1245   -9.2874    0.0000 C   0  0  0  0  0  0  0  0  0  0  0  0
    8.4150   -8.0554    0.0000 C   0  0  0  0  0  0  0  0  0  0  0  0
    9.8369   -8.8782    0.0000 C   0  0  0  0  0  0  0  0  0  0  0  0
   18.3583   -8.8511    0.0000 C   0  0  0  0  0  0  0  0  0  0  0  0
   16.9376   -8.8543    0.0000 O   0  0  0  0  0  0  0  0  0  0  0  0
   19.0737   -9.2579    0.0000 O   0  0  0  0  0  0  0  0  0  0  0  0
   19.7831   -8.8479    0.0000 C   0  0  0  0  0  0  0  0  0  0  0  0
   14.0962   -8.8605    0.0000 C   0  0  0  0  0  0  0  0  0  0  0  0
   10.5427   -7.6365    0.0000 C   0  0  0  0  0  0  0  0  0  0  0  0
   12.6724   -8.8619    0.0000 C   0  0  0  0  0  0  0  0  0  0  0  0
    7.7050   -9.2867    0.0000 C   0  0  0  0  0  0  0  0  0  0  0  0
    7.7057  -10.1042    0.0000 C   0  0  0  0  0  0  0  0  0  0  0  0
   14.0928   -8.0361    0.0000 C   0  0  0  0  0  0  0  0  0  0  0  0
    6.2772   -9.2832    0.0000 C   0  0  0  0  0  0  0  0  0  0  0  0
    8.4139   -8.8786    0.0000 C   0  0  0  0  0  0  0  0  0  0  0  0
   12.6730   -8.0406    0.0000 C   0  0  0  0  0  0  0  0  0  0  0  0
    6.9838   -8.8761    0.0000 C   0  0  0  0  0  0  0  0  0  0  0  0
    6.9883  -10.5178    0.0000 C   0  0  0  0  0  0  0  0  0  0  0  0
   15.5135   -8.0298    0.0000 C   0  0  0  0  0  0  0  0  0  0  0  0
    7.7145  -12.5659    0.0000 O   0  0  0  0  0  0  0  0  0  0  0  0
   11.9630   -9.2700    0.0000 C   0  0  0  0  0  0  0  0  0  0  0  0
    4.8571  -10.1057    0.0000 O   0  0  0  0  0  0  0  0  0  0  0  0
    5.5633  -10.5178    0.0000 C   0  0  0  0  0  0  0  0  0  0  0  0
    6.2783  -10.1049    0.0000 C   0  0  0  0  0  0  0  0  0  0  0  0
   16.2282   -9.2642    0.0000 C   0  0  0  0  0  0  0  0  0  0  0  0
   21.2038   -8.8448    0.0000 O   0  0  0  0  0  0  0  0  0  0  0  0
   20.4944   -9.2548    0.0000 C   0  0  0  0  0  0  0  0  0  0  0  0
 10  5  1  0
  3  4  1  0
  7 10  1  0
  1  9  1  0
  5  3  2  0
  4  2  2  0
  9  7  2  0
  6 10  2  0
  6  8  1  0
  8  1  2  0
  2  6  1  0
 26 11  2  0
 40 50  1  0
 16 45  1  0
 41 37  1  0
 19 30  1  0
 26 35  1  0
 42 36  2  0
 28 41  2  0
 15 17  1  0
 39 22  2  0
 18 46  2  0
 35 15  1  0
 15 12  1  0
 30 32  1  0
 39 16  1  0
 42 12  1  0
 33 53  1  0
 48 25  1  0
 22 42  1  0
 20 24  1  0
 17 47  1  0
 23 18  1  0
 49 13  2  0
 34 39  1  0
 11 28  1  0
 29 26  1  0
 43 40  2  0
 50 44  2  0
 47 36  1  0
 44 23  1  0
 31 19  1  0
 34 20  1  0
 36 21  1  0
 53 52  1  0
 27 29  2  0
 32 33  1  0
 52 14  1  0
 24 51  1  0
 49 48  1  0
 51 31  1  0
 21 34  2  0
 37 43  1  0
 50 49  1  0
 38 37  2  0
 41 27  1  0
 44 38  1  0
 18  1  1  0
M  END
>  <Classification>  (444) 
0

>  <pchembl>  (444) 
4.75

>  <InChI_steorem>  (444) 
InChI=1S/C42H45N3O8/c1-48-17-18-51-19-20-52-21-22-53-40-25-32-14-16-45(28-35(32)26-39(40)49-2)27-29-6-8-30(9-7-29)31-10-12-36(42(47)50-3)38(24-31)44-41(46)34-11-13-37-33(23-34)5-4-15-43-37/h4-13,15,23-26H,14,16-22,27-28H2,1-3H3,(H,44,46)

>  <source>  (444) 
ChEMBL25

>  <source_id>  (444) 
25

>  <optional_reference>  (444) 
10.1021/ml4000832

>  <optional_origin>  (444) 
None

>  <target>  (444) 
MDR1

$$$$

     RDKit          2D

 54 59  0  0  0  0  0  0  0  0999 V2000
   20.0143  -10.0576    0.0000 C   0  0  0  0  0  0  0  0  0  0  0  0
   23.5792  -10.3770    0.0000 C   0  0  0  0  0  0  0  0  0  0  0  0
   18.5941  -10.0934    0.0000 O   0  0  0  0  0  0  0  0  0  0  0  0
   21.4345  -10.0219    0.0000 C   0  0  0  0  0  0  0  0  0  0  0  0
   20.7347  -10.4489    0.0000 O   0  0  0  0  0  0  0  0  0  0  0  0
   17.8943  -10.5205    0.0000 C   0  0  0  0  0  0  0  0  0  0  0  0
   16.4700  -10.5606    0.0000 O   0  0  0  0  0  0  0  0  0  0  0  0
   17.1739  -10.1290    0.0000 C   0  0  0  0  0  0  0  0  0  0  0  0
   22.1550  -10.4172    0.0000 C   0  0  0  0  0  0  0  0  0  0  0  0
   19.3146  -10.4888    0.0000 C   0  0  0  0  0  0  0  0  0  0  0  0
   22.8588   -9.9861    0.0000 O   0  0  0  0  0  0  0  0  0  0  0  0
    8.5605  -14.0350    0.0000 C   0  0  0  0  0  0  0  0  0  0  0  0
    9.3465  -11.1906    0.0000 C   0  0  0  0  0  0  0  0  0  0  0  0
   12.1386  -12.9032    0.0000 C   0  0  0  0  0  0  0  0  0  0  0  0
   15.7713  -10.1289    0.0000 C   0  0  0  0  0  0  0  0  0  0  0  0
   10.7688  -11.2322    0.0000 C   0  0  0  0  0  0  0  0  0  0  0  0
    5.0346  -12.7036    0.0000 C   0  0  0  0  0  0  0  0  0  0  0  0
   10.0186  -12.4355    0.0000 C   0  0  0  0  0  0  0  0  0  0  0  0
    9.3719  -10.3678    0.0000 C   0  0  0  0  0  0  0  0  0  0  0  0
    9.2815  -13.6459    0.0000 C   0  0  0  0  0  0  0  0  0  0  0  0
    9.3008  -12.8306    0.0000 C   0  0  0  0  0  0  0  0  0  0  0  0
   11.3939  -14.1126    0.0000 C   0  0  0  0  0  0  0  0  0  0  0  0
   12.2148  -10.4429    0.0000 C   0  0  0  0  0  0  0  0  0  0  0  0
    7.9281  -11.1461    0.0000 C   0  0  0  0  0  0  0  0  0  0  0  0
   10.0447  -11.6202    0.0000 C   0  0  0  0  0  0  0  0  0  0  0  0
   12.9354  -10.0488    0.0000 N   0  0  0  0  0  0  0  0  0  0  0  0
   12.9592   -9.2311    0.0000 C   0  0  0  0  0  0  0  0  0  0  0  0
    9.9796  -14.0768    0.0000 N   0  0  0  0  0  0  0  0  0  0  0  0
   15.0948   -8.8758    0.0000 C   0  0  0  0  0  0  0  0  0  0  0  0
    7.8613  -13.6078    0.0000 N   0  0  0  0  0  0  0  0  0  0  0  0
   14.3522  -10.0882    0.0000 C   0  0  0  0  0  0  0  0  0  0  0  0
   10.0915   -9.9761    0.0000 C   0  0  0  0  0  0  0  0  0  0  0  0
   16.5128   -8.9089    0.0000 O   0  0  0  0  0  0  0  0  0  0  0  0
   11.5111  -10.0120    0.0000 C   0  0  0  0  0  0  0  0  0  0  0  0
    7.1808  -12.3533    0.0000 C   0  0  0  0  0  0  0  0  0  0  0  0
   17.2166   -9.3405    0.0000 C   0  0  0  0  0  0  0  0  0  0  0  0
   15.7922   -9.3047    0.0000 C   0  0  0  0  0  0  0  0  0  0  0  0
    7.8833  -12.7872    0.0000 C   0  0  0  0  0  0  0  0  0  0  0  0
    6.4350  -13.5656    0.0000 O   0  0  0  0  0  0  0  0  0  0  0  0
   14.3771   -9.2673    0.0000 C   0  0  0  0  0  0  0  0  0  0  0  0
   13.6308  -10.4793    0.0000 C   0  0  0  0  0  0  0  0  0  0  0  0
   15.0490  -10.5205    0.0000 C   0  0  0  0  0  0  0  0  0  0  0  0
    8.6260  -11.5775    0.0000 C   0  0  0  0  0  0  0  0  0  0  0  0
    6.4588  -12.7451    0.0000 C   0  0  0  0  0  0  0  0  0  0  0  0
    8.5384  -14.8556    0.0000 O   0  0  0  0  0  0  0  0  0  0  0  0
    8.6024  -12.3947    0.0000 C   0  0  0  0  0  0  0  0  0  0  0  0
    7.2062  -11.5320    0.0000 C   0  0  0  0  0  0  0  0  0  0  0  0
   10.7905  -10.4061    0.0000 C   0  0  0  0  0  0  0  0  0  0  0  0
   10.6984  -13.6860    0.0000 C   0  0  0  0  0  0  0  0  0  0  0  0
   11.4383  -12.4761    0.0000 C   0  0  0  0  0  0  0  0  0  0  0  0
   12.1182  -13.7255    0.0000 C   0  0  0  0  0  0  0  0  0  0  0  0
   10.7226  -12.8669    0.0000 C   0  0  0  0  0  0  0  0  0  0  0  0
    5.7566  -12.3119    0.0000 O   0  0  0  0  0  0  0  0  0  0  0  0
   13.6772   -8.8358    0.0000 C   0  0  0  0  0  0  0  0  0  0  0  0
  3 10  1  0
  9 11  1  0
  4  9  1  0
 11  2  1  0
  7  8  1  0
  1  5  1  0
  5  4  1  0
  6  3  1  0
 10  1  1  0
  8  6  1  0
 40 54  1  0
 23 26  1  0
 52 49  2  0
 48 32  2  0
 50 52  1  0
 30 12  1  0
 22 51  2  0
 35 38  1  0
 28 49  1  0
 14 50  2  0
 38 30  1  0
 43 24  2  0
 52 18  1  0
 51 14  1  0
 49 22  1  0
 13 43  1  0
 35 44  1  0
 40 31  2  0
 44 39  2  0
 53 17  1  0
 18 21  2  0
 21 20  1  0
 25 16  2  0
 15  7  1  0
 37 29  2  0
 47 35  2  0
 33 36  1  0
 46 43  1  0
 27 26  1  0
 38 46  2  0
 42 15  2  0
 12 45  2  0
 29 40  1  0
 15 37  1  0
 19 13  2  0
 13 25  1  0
 37 33  1  0
 24 47  1  0
 41 31  1  0
 32 19  1  0
 27 54  1  0
 16 48  1  0
 34 23  1  0
 12 20  1  0
 44 53  1  0
 26 41  1  0
 48 34  1  0
 20 28  2  0
 31 42  1  0
M  END
>  <Classification>  (445) 
1

>  <pchembl>  (445) 
5.27

>  <InChI_steorem>  (445) 
InChI=1S/C43H47N3O8/c1-49-20-21-52-22-23-53-24-25-54-41-28-35-29-46(19-17-34(35)27-40(41)50-2)18-16-30-8-10-31(11-9-30)33-12-14-36(43(48)51-3)39(26-33)45-42(47)38-15-13-32-6-4-5-7-37(32)44-38/h4-15,26-28H,16-25,29H2,1-3H3,(H,45,47)

>  <source>  (445) 
ChEMBL25

>  <source_id>  (445) 
25

>  <optional_reference>  (445) 
10.1021/ml4000832

>  <optional_origin>  (445) 
None

>  <target>  (445) 
MDR1

$$$$

     RDKit          2D

 63 68  0  0  0  0  0  0  0  0999 V2000
    5.6713   -8.2245    0.0000 C   0  0  0  0  0  0  0  0  0  0  0  0
    5.6718   -9.0467    0.0000 N   0  0  0  0  0  0  0  0  0  0  0  0
    6.3838   -9.4564    0.0000 C   0  0  0  0  0  0  0  0  0  0  0  0
    6.3815   -7.8044    0.0000 C   0  0  0  0  0  0  0  0  0  0  0  0
    7.0980   -8.2188    0.0000 C   0  0  0  0  0  0  0  0  0  0  0  0
    7.0974   -9.0442    0.0000 C   0  0  0  0  0  0  0  0  0  0  0  0
    7.8108   -9.4557    0.0000 C   0  0  0  0  0  0  0  0  0  0  0  0
    8.5254   -9.0428    0.0000 C   0  0  0  0  0  0  0  0  0  0  0  0
    8.5219   -8.2142    0.0000 C   0  0  0  0  0  0  0  0  0  0  0  0
    7.8080   -7.8064    0.0000 C   0  0  0  0  0  0  0  0  0  0  0  0
    9.2346   -7.7986    0.0000 O   0  0  0  0  0  0  0  0  0  0  0  0
    9.9509   -8.2078    0.0000 C   0  0  0  0  0  0  0  0  0  0  0  0
    9.2407   -9.4538    0.0000 O   0  0  0  0  0  0  0  0  0  0  0  0
    9.9543   -9.0396    0.0000 C   0  0  0  0  0  0  0  0  0  0  0  0
   10.6635   -7.7922    0.0000 C   0  0  0  0  0  0  0  0  0  0  0  0
   11.3798   -8.2016    0.0000 O   0  0  0  0  0  0  0  0  0  0  0  0
   12.0924   -7.7860    0.0000 C   0  0  0  0  0  0  0  0  0  0  0  0
   12.8087   -8.1953    0.0000 C   0  0  0  0  0  0  0  0  0  0  0  0
   13.5214   -7.7797    0.0000 O   0  0  0  0  0  0  0  0  0  0  0  0
   14.2377   -8.1890    0.0000 C   0  0  0  0  0  0  0  0  0  0  0  0
   14.9503   -7.7733    0.0000 C   0  0  0  0  0  0  0  0  0  0  0  0
   15.6666   -8.1827    0.0000 O   0  0  0  0  0  0  0  0  0  0  0  0
   16.3793   -7.7671    0.0000 C   0  0  0  0  0  0  0  0  0  0  0  0
    2.1027   -9.4709    0.0000 C   0  0  0  0  0  0  0  0  0  0  0  0
    2.1016  -10.2982    0.0000 C   0  0  0  0  0  0  0  0  0  0  0  0
    2.8164  -10.7112    0.0000 C   0  0  0  0  0  0  0  0  0  0  0  0
    3.5329  -10.2977    0.0000 C   0  0  0  0  0  0  0  0  0  0  0  0
    3.5300   -9.4673    0.0000 C   0  0  0  0  0  0  0  0  0  0  0  0
    2.8146   -9.0581    0.0000 C   0  0  0  0  0  0  0  0  0  0  0  0
    4.2429   -9.0520    0.0000 C   0  0  0  0  0  0  0  0  0  0  0  0
    1.3888  -10.7105    0.0000 C   0  0  0  0  0  0  0  0  0  0  0  0
    0.6743  -10.2956    0.0000 C   0  0  0  0  0  0  0  0  0  0  0  0
   -0.0433  -10.7069    0.0000 C   0  0  0  0  0  0  0  0  0  0  0  0
   -0.0422  -11.5328    0.0000 C   0  0  0  0  0  0  0  0  0  0  0  0
    0.6780  -11.9458    0.0000 C   0  0  0  0  0  0  0  0  0  0  0  0
    1.3894  -11.5320    0.0000 C   0  0  0  0  0  0  0  0  0  0  0  0
   -0.7613  -11.9457    0.0000 C   0  0  0  0  0  0  0  0  0  0  0  0
   -1.4716  -11.5336    0.0000 O   0  0  0  0  0  0  0  0  0  0  0  0
   -0.7617  -12.7707    0.0000 O   0  0  0  0  0  0  0  0  0  0  0  0
   -2.1907  -11.9465    0.0000 C   0  0  0  0  0  0  0  0  0  0  0  0
    0.6802  -12.7707    0.0000 N   0  0  0  0  0  0  0  0  0  0  0  0
    1.3959  -13.1813    0.0000 C   0  0  0  0  0  0  0  0  0  0  0  0
    1.3981  -14.0063    0.0000 O   0  0  0  0  0  0  0  0  0  0  0  0
    2.1093  -12.7668    0.0000 C   0  0  0  0  0  0  0  0  0  0  0  0
    2.8239  -13.1811    0.0000 N   0  0  0  0  0  0  0  0  0  0  0  0
    2.8144  -11.5310    0.0000 C   0  0  0  0  0  0  0  0  0  0  0  0
    2.1044  -11.9472    0.0000 C   0  0  0  0  0  0  0  0  0  0  0  0
    3.5350  -11.9414    0.0000 C   0  0  0  0  0  0  0  0  0  0  0  0
    3.5350  -12.7649    0.0000 C   0  0  0  0  0  0  0  0  0  0  0  0
    4.2470  -13.1749    0.0000 C   0  0  0  0  0  0  0  0  0  0  0  0
    4.9596  -12.7625    0.0000 C   0  0  0  0  0  0  0  0  0  0  0  0
    4.9556  -11.9358    0.0000 C   0  0  0  0  0  0  0  0  0  0  0  0
    4.2430  -11.5295    0.0000 C   0  0  0  0  0  0  0  0  0  0  0  0
    4.9590   -9.4618    0.0000 C   0  0  0  0  0  0  0  0  0  0  0  0
   10.6697   -9.4505    0.0000 C   0  0  0  0  0  0  0  0  0  0  0  0
   11.3832   -9.0365    0.0000 O   0  0  0  0  0  0  0  0  0  0  0  0
   12.0986   -9.4474    0.0000 C   0  0  0  0  0  0  0  0  0  0  0  0
   12.8122   -9.0333    0.0000 C   0  0  0  0  0  0  0  0  0  0  0  0
   13.5275   -9.4443    0.0000 O   0  0  0  0  0  0  0  0  0  0  0  0
   14.2411   -9.0301    0.0000 C   0  0  0  0  0  0  0  0  0  0  0  0
   14.9565   -9.4410    0.0000 C   0  0  0  0  0  0  0  0  0  0  0  0
   15.6700   -9.0270    0.0000 O   0  0  0  0  0  0  0  0  0  0  0  0
   16.3854   -9.4379    0.0000 C   0  0  0  0  0  0  0  0  0  0  0  0
  1  2  1  0
  1  4  1  0
  2  3  1  0
  3  6  1  0
  5  4  1  0
  5  6  2  0
  6  7  1  0
  7  8  2  0
  8  9  1  0
  9 10  2  0
 10  5  1  0
  9 11  1  0
 11 12  1  0
  8 13  1  0
 13 14  1  0
 12 15  1  0
 15 16  1  0
 16 17  1  0
 17 18  1  0
 18 19  1  0
 19 20  1  0
 20 21  1  0
 21 22  1  0
 22 23  1  0
 24 25  2  0
 25 26  1  0
 26 27  2  0
 27 28  1  0
 28 29  2  0
 29 24  1  0
 28 30  1  0
 31 32  2  0
 32 33  1  0
 33 34  2  0
 34 35  1  0
 35 36  2  0
 36 31  1  0
 25 31  1  0
 34 37  1  0
 37 38  1  0
 37 39  2  0
 38 40  1  0
 35 41  1  0
 41 42  1  0
 42 43  2  0
 42 44  1  0
 44 45  2  0
 45 49  1  0
 48 46  1  0
 46 47  2  0
 47 44  1  0
 48 49  2  0
 49 50  1  0
 50 51  2  0
 51 52  1  0
 52 53  2  0
 53 48  1  0
 30 54  1  0
 54  2  1  0
 14 55  1  0
 55 56  1  0
 56 57  1  0
 57 58  1  0
 58 59  1  0
 59 60  1  0
 60 61  1  0
 61 62  1  0
 62 63  1  0
M  END
>  <Classification>  (446) 
1

>  <pchembl>  (446) 
5.22

>  <InChI_steorem>  (446) 
InChI=1S/C49H59N3O11/c1-55-20-22-58-24-26-60-28-30-62-46-33-40-17-19-52(35-41(40)34-47(46)63-31-29-61-27-25-59-23-21-56-2)18-16-36-8-10-37(11-9-36)39-12-14-42(49(54)57-3)45(32-39)51-48(53)44-15-13-38-6-4-5-7-43(38)50-44/h4-15,32-34H,16-31,35H2,1-3H3,(H,51,53)

>  <source>  (446) 
ChEMBL25

>  <source_id>  (446) 
25

>  <optional_reference>  (446) 
10.1021/ml4000832

>  <optional_origin>  (446) 
None

>  <target>  (446) 
MDR1

$$$$

     RDKit          2D

 30 36  0  0  0  0  0  0  0  0999 V2000
    1.0883   -1.6218    0.0000 C   0  0  0  0  0  0  0  0  0  0  0  0
    1.7995   -0.8745    0.0000 C   0  0  0  0  0  0  0  0  0  0  0  0
    1.7995   -1.6120    0.0000 C   0  0  0  0  0  0  0  0  0  0  0  0
    1.0883   -0.8647    0.0000 C   0  0  0  0  0  0  0  0  0  0  0  0
    0.3831   -1.6914    0.0000 C   0  0  0  0  0  0  0  0  0  0  0  0
    2.4622   -0.7708    0.0000 C   0  0  0  0  0  0  0  0  0  0  0  0
    0.9617   -2.2261    0.0000 N   0  0  0  0  0  0  0  0  0  0  0  0
    1.6058   -0.3128    0.0000 N   0  0  0  0  0  0  0  0  0  0  0  0
    2.4622   -1.7157    0.0000 C   0  0  0  0  0  0  0  0  0  0  0  0
    0.3831   -0.7951    0.0000 C   0  0  0  0  0  0  0  0  0  0  0  0
    0.9617   -0.2604    0.0000 C   0  0  0  0  0  0  0  0  0  0  0  0
    1.8916   -2.3387    0.0000 C   0  0  0  0  0  0  0  0  0  0  0  0
    0.9149    0.5633    0.0000 C   0  0  0  0  0  0  0  0  0  0  0  0
    1.9331   -3.1627    0.0000 C   0  0  0  0  0  0  0  0  0  0  0  0
    2.1648   -1.3176    0.0000 C   0  0  0  0  0  0  0  0  0  0  0  0
    2.9099   -0.6178    0.0000 C   0  0  0  0  0  0  0  0  0  0  0  0
    0.7057   -3.0406    0.0000 C   0  0  0  0  0  0  0  0  0  0  0  0
    2.0075    0.4696    0.0000 C   0  0  0  0  0  0  0  0  0  0  0  0
    3.1180   -1.2981    0.0000 O   0  0  0  0  0  0  0  0  0  0  0  0
    3.8717   -0.9314    0.0000 O   0  0  0  0  0  0  0  0  0  0  0  0
    1.6048    1.0156    0.0000 C   0  0  0  0  0  0  0  0  0  0  0  0
    0.1782    0.9346    0.0000 C   0  0  0  0  0  0  0  0  0  0  0  0
    1.2403   -3.6106    0.0000 C   0  0  0  0  0  0  0  0  0  0  0  0
    2.6675   -3.5387    0.0000 C   0  0  0  0  0  0  0  0  0  0  0  0
    0.1314    1.7583    0.0000 C   0  0  0  0  0  0  0  0  0  0  0  0
    1.2818   -4.4346    0.0000 C   0  0  0  0  0  0  0  0  0  0  0  0
    2.7090   -4.3627    0.0000 C   0  0  0  0  0  0  0  0  0  0  0  0
    1.5580    1.8393    0.0000 C   0  0  0  0  0  0  0  0  0  0  0  0
    0.8213    2.2106    0.0000 C   0  0  0  0  0  0  0  0  0  0  0  0
    2.0161   -4.8106    0.0000 C   0  0  0  0  0  0  0  0  0  0  0  0
  2  6  1  0
  3  9  1  0
  4  1  1  0
  5  1  1  0
  6  9  1  0
  7  5  1  0
  8  4  1  0
  9 12  1  0
 10  5  1  0
 11 10  1  0
 12  1  1  0
 11 13  1  0
 12 14  1  0
  1 15  1  0
  2 16  1  0
  7 17  1  0
  8 18  1  0
 19 15  1  0
 20 16  1  0
 21 13  2  0
 22 13  1  0
 23 14  2  0
 24 14  1  0
 25 22  2  0
 26 23  1  0
 27 24  2  0
 28 21  1  0
 29 25  1  0
 30 27  1  0
 10  4  1  0
  3  7  1  0
  6  8  1  0
  2  3  1  0
  2 11  1  0
 30 26  2  0
 29 28  2  0
M  END
>  <Classification>  (447) 
0

>  <pchembl>  (447) 
4.75

>  <InChI_steorem>  (447) 
InChI=1S/C26H30N2O2/c1-27-21-17-19(15-9-5-3-6-10-15)25(13-29)22(27)18-20(16-11-7-4-8-12-16)26(21,14-30)23(17)28(2)24(18)25/h3-12,17-24,29-30H,13-14H2,1-2H3

>  <source>  (447) 
ChEMBL25

>  <source_id>  (447) 
25

>  <optional_reference>  (447) 
10.1021/jm058046w

>  <optional_origin>  (447) 
None

>  <target>  (447) 
MDR1

$$$$

     RDKit          2D

 36 42  0  0  0  0  0  0  0  0999 V2000
    0.7030   -2.0253    0.0000 C   0  0  0  0  0  0  0  0  0  0  0  0
    2.0434   -1.1789    0.0000 C   0  0  0  0  0  0  0  0  0  0  0  0
    2.1334   -1.6460    0.0000 N   0  0  0  0  0  0  0  0  0  0  0  0
    1.6895   -0.4881    0.0000 N   0  0  0  0  0  0  0  0  0  0  0  0
    1.2006   -1.9730    0.0000 C   0  0  0  0  0  0  0  0  0  0  0  0
    0.8501   -0.8726    0.0000 C   0  0  0  0  0  0  0  0  0  0  0  0
    2.5130   -1.1316    0.0000 C   0  0  0  0  0  0  0  0  0  0  0  0
    2.7105   -1.7237    0.0000 C   0  0  0  0  0  0  0  0  0  0  0  0
    2.3234   -2.2513    0.0000 C   0  0  0  0  0  0  0  0  0  0  0  0
    0.4510   -1.4146    0.0000 C   0  0  0  0  0  0  0  0  0  0  0  0
    1.0398   -1.3838    0.0000 C   0  0  0  0  0  0  0  0  0  0  0  0
    1.4039   -2.6662    0.0000 C   0  0  0  0  0  0  0  0  0  0  0  0
    1.9087    0.6738    0.0000 C   0  0  0  0  0  0  0  0  0  0  0  0
    2.1108   -0.6697    0.0000 C   0  0  0  0  0  0  0  0  0  0  0  0
    0.8889   -0.5727    0.0000 C   0  0  0  0  0  0  0  0  0  0  0  0
    1.2738   -3.4809    0.0000 C   0  0  0  0  0  0  0  0  0  0  0  0
    1.3449    1.5053    0.0000 O   0  0  0  0  0  0  0  0  0  0  0  0
    1.0760   -0.0610    0.0000 O   0  0  0  0  0  0  0  0  0  0  0  0
   -0.2043   -2.1902    0.0000 C   0  0  0  0  0  0  0  0  0  0  0  0
    2.2077   -0.1479    0.0000 C   0  0  0  0  0  0  0  0  0  0  0  0
    3.0847   -0.6498    0.0000 O   0  0  0  0  0  0  0  0  0  0  0  0
    2.6482    1.2546    0.0000 O   0  0  0  0  0  0  0  0  0  0  0  0
   -0.9909   -1.8198    0.0000 O   0  0  0  0  0  0  0  0  0  0  0  0
    3.1075    0.2192    0.0000 O   0  0  0  0  0  0  0  0  0  0  0  0
    1.5160   -0.0365    0.0000 C   0  0  0  0  0  0  0  0  0  0  0  0
    0.1111   -0.2977    0.0000 C   0  0  0  0  0  0  0  0  0  0  0  0
    0.5032   -3.7755    0.0000 C   0  0  0  0  0  0  0  0  0  0  0  0
    1.9142   -4.0009    0.0000 C   0  0  0  0  0  0  0  0  0  0  0  0
    3.4140    0.9476    0.0000 C   0  0  0  0  0  0  0  0  0  0  0  0
    3.5116   -1.3558    0.0000 C   0  0  0  0  0  0  0  0  0  0  0  0
    1.7841   -4.8156    0.0000 C   0  0  0  0  0  0  0  0  0  0  0  0
    1.3651    0.7746    0.0000 C   0  0  0  0  0  0  0  0  0  0  0  0
   -0.0397    0.5134    0.0000 C   0  0  0  0  0  0  0  0  0  0  0  0
    0.3731   -4.5902    0.0000 C   0  0  0  0  0  0  0  0  0  0  0  0
    0.5873    1.0495    0.0000 C   0  0  0  0  0  0  0  0  0  0  0  0
    1.0135   -5.1102    0.0000 C   0  0  0  0  0  0  0  0  0  0  0  0
  2  8  1  0
  3  5  1  0
  4  6  1  0
  5  1  1  0
  6  1  1  0
  7  9  1  0
  8  9  1  0
  9 12  1  0
 10  6  1  0
 11 10  1  0
 12  1  1  0
  4 13  1  0
  3 14  1  0
 11 15  1  0
 12 16  1  0
 17 13  2  0
 18 14  2  0
  1 19  1  0
  2 20  1  0
 21 14  1  0
 22 13  1  0
 23 19  1  0
 24 20  1  0
 25 15  2  0
 26 15  1  0
 27 16  2  0
 28 16  1  0
 29 22  1  0
 30 21  1  0
 31 28  2  0
 32 25  1  0
 33 26  2  0
 34 27  1  0
 35 33  1  0
 36 31  1  0
 10  5  1  0
  8  3  1  0
  2  7  1  0
  7  4  1  0
  2 11  1  0
 36 34  2  0
 32 35  2  0
M  END
>  <Classification>  (448) 
1

>  <pchembl>  (448) 
5.42

>  <InChI_steorem>  (448) 
InChI=1S/C28H30N2O6/c1-35-25(33)29-21-17-19(15-9-5-3-6-10-15)27(13-31)22(29)18-20(16-11-7-4-8-12-16)28(21,14-32)23(17)30(24(18)27)26(34)36-2/h3-12,17-24,31-32H,13-14H2,1-2H3

>  <source>  (448) 
ChEMBL25

>  <source_id>  (448) 
25

>  <optional_reference>  (448) 
10.1021/jm058046w

>  <optional_origin>  (448) 
None

>  <target>  (448) 
MDR1

$$$$

     RDKit          2D

 42 48  0  0  0  0  0  0  0  0999 V2000
    0.5990   -2.3944    0.0000 C   0  0  0  0  0  0  0  0  0  0  0  0
    1.9393   -1.5480    0.0000 C   0  0  0  0  0  0  0  0  0  0  0  0
    2.0294   -2.0151    0.0000 N   0  0  0  0  0  0  0  0  0  0  0  0
    1.5855   -0.8571    0.0000 N   0  0  0  0  0  0  0  0  0  0  0  0
    1.0965   -2.3421    0.0000 C   0  0  0  0  0  0  0  0  0  0  0  0
    0.7460   -1.2416    0.0000 C   0  0  0  0  0  0  0  0  0  0  0  0
    2.4090   -1.5007    0.0000 C   0  0  0  0  0  0  0  0  0  0  0  0
    2.6065   -2.0928    0.0000 C   0  0  0  0  0  0  0  0  0  0  0  0
    2.2194   -2.6203    0.0000 C   0  0  0  0  0  0  0  0  0  0  0  0
    0.3470   -1.7837    0.0000 C   0  0  0  0  0  0  0  0  0  0  0  0
    1.9644    0.2682    0.0000 C   0  0  0  0  0  0  0  0  0  0  0  0
    2.8223   -1.6187    0.0000 C   0  0  0  0  0  0  0  0  0  0  0  0
    0.9357   -1.7528    0.0000 C   0  0  0  0  0  0  0  0  0  0  0  0
    1.2999   -3.0353    0.0000 C   0  0  0  0  0  0  0  0  0  0  0  0
    2.6600    1.0316    0.0000 O   0  0  0  0  0  0  0  0  0  0  0  0
    1.5692   -1.3691    0.0000 O   0  0  0  0  0  0  0  0  0  0  0  0
    1.6081    1.2784    0.0000 O   0  0  0  0  0  0  0  0  0  0  0  0
    3.6320   -2.0310    0.0000 O   0  0  0  0  0  0  0  0  0  0  0  0
    0.6051   -1.0037    0.0000 C   0  0  0  0  0  0  0  0  0  0  0  0
    1.1697   -3.8499    0.0000 C   0  0  0  0  0  0  0  0  0  0  0  0
   -0.2737   -2.7200    0.0000 C   0  0  0  0  0  0  0  0  0  0  0  0
    2.8698   -0.9343    0.0000 C   0  0  0  0  0  0  0  0  0  0  0  0
    2.8164    1.9523    0.0000 C   0  0  0  0  0  0  0  0  0  0  0  0
    0.8117   -0.6144    0.0000 C   0  0  0  0  0  0  0  0  0  0  0  0
   -1.1473   -2.5939    0.0000 O   0  0  0  0  0  0  0  0  0  0  0  0
    3.8087   -0.8222    0.0000 O   0  0  0  0  0  0  0  0  0  0  0  0
    0.3991   -4.1446    0.0000 C   0  0  0  0  0  0  0  0  0  0  0  0
    1.8102   -4.3700    0.0000 C   0  0  0  0  0  0  0  0  0  0  0  0
    1.4443   -0.5177    0.0000 C   0  0  0  0  0  0  0  0  0  0  0  0
    0.0070   -0.6668    0.0000 C   0  0  0  0  0  0  0  0  0  0  0  0
    0.2959    0.0512    0.0000 C   0  0  0  0  0  0  0  0  0  0  0  0
   -0.0960   -1.1839    0.0000 C   0  0  0  0  0  0  0  0  0  0  0  0
    0.8239    0.2297    0.0000 C   0  0  0  0  0  0  0  0  0  0  0  0
    3.0277    2.7951    0.0000 C   0  0  0  0  0  0  0  0  0  0  0  0
    3.6922    2.0313    0.0000 C   0  0  0  0  0  0  0  0  0  0  0  0
    2.1709    2.5827    0.0000 C   0  0  0  0  0  0  0  0  0  0  0  0
   -0.1438    0.1443    0.0000 C   0  0  0  0  0  0  0  0  0  0  0  0
    0.2690   -4.9592    0.0000 C   0  0  0  0  0  0  0  0  0  0  0  0
    1.6800   -5.1846    0.0000 C   0  0  0  0  0  0  0  0  0  0  0  0
    1.2611    0.4055    0.0000 C   0  0  0  0  0  0  0  0  0  0  0  0
    0.4832    0.6805    0.0000 C   0  0  0  0  0  0  0  0  0  0  0  0
    0.9095   -5.4793    0.0000 C   0  0  0  0  0  0  0  0  0  0  0  0
  2  8  1  0
  3  5  1  0
  4  6  1  0
  5  1  1  0
  6  1  1  0
  7  9  1  0
  8  9  1  0
  9 14  1  0
 10  6  1  0
  4 11  1  0
  3 12  1  0
 13 10  1  0
 14  1  1  0
 15 11  1  0
 16 12  1  0
 17 11  2  0
 18 12  2  0
 13 19  1  0
 14 20  1  0
  1 21  1  0
  2 22  1  0
 23 15  1  0
 24 16  1  0
 25 21  1  0
 26 22  1  0
 27 20  2  0
 28 20  1  0
 29 19  2  0
 30 19  1  0
 31 24  1  0
 32 24  1  0
 33 24  1  0
 34 23  1  0
 35 23  1  0
 36 23  1  0
 37 30  2  0
 38 27  1  0
 39 28  2  0
 40 29  1  0
 41 37  1  0
 42 39  1  0
  5 10  1  0
  8  3  1  0
  2  7  1  0
  7  4  1  0
  2 13  1  0
 42 38  2  0
 41 40  2  0
M  END
>  <Classification>  (449) 
1

>  <pchembl>  (449) 
5.21

>  <InChI_steorem>  (449) 
InChI=1S/C34H42N2O6/c1-31(2,3)41-29(39)35-25-21-23(19-13-9-7-10-14-19)33(17-37)26(35)22-24(20-15-11-8-12-16-20)34(25,18-38)27(21)36(28(22)33)30(40)42-32(4,5)6/h7-16,21-28,37-38H,17-18H2,1-6H3

>  <source>  (449) 
ChEMBL25

>  <source_id>  (449) 
25

>  <optional_reference>  (449) 
10.1021/jm058046w

>  <optional_origin>  (449) 
None

>  <target>  (449) 
MDR1

$$$$

     RDKit          2D

 42 50  0  0  0  0  0  0  0  0999 V2000
    0.3928   -2.2935    0.0000 C   0  0  0  0  0  0  0  0  0  0  0  0
    1.7332   -1.4471    0.0000 C   0  0  0  0  0  0  0  0  0  0  0  0
    1.8232   -1.9142    0.0000 N   0  0  0  0  0  0  0  0  0  0  0  0
    1.3793   -0.7562    0.0000 N   0  0  0  0  0  0  0  0  0  0  0  0
    0.8904   -2.2412    0.0000 C   0  0  0  0  0  0  0  0  0  0  0  0
    0.5399   -1.1407    0.0000 C   0  0  0  0  0  0  0  0  0  0  0  0
    2.2029   -1.3998    0.0000 C   0  0  0  0  0  0  0  0  0  0  0  0
    2.4003   -1.9919    0.0000 C   0  0  0  0  0  0  0  0  0  0  0  0
    2.0133   -2.5194    0.0000 C   0  0  0  0  0  0  0  0  0  0  0  0
    0.1409   -1.6828    0.0000 C   0  0  0  0  0  0  0  0  0  0  0  0
    0.7296   -1.6519    0.0000 C   0  0  0  0  0  0  0  0  0  0  0  0
    1.0937   -2.9344    0.0000 C   0  0  0  0  0  0  0  0  0  0  0  0
    1.5713    0.2742    0.0000 C   0  0  0  0  0  0  0  0  0  0  0  0
    1.3313   -1.1481    0.0000 C   0  0  0  0  0  0  0  0  0  0  0  0
    0.5788   -0.8408    0.0000 C   0  0  0  0  0  0  0  0  0  0  0  0
    0.9636   -3.7490    0.0000 C   0  0  0  0  0  0  0  0  0  0  0  0
   -0.5280   -2.4661    0.0000 C   0  0  0  0  0  0  0  0  0  0  0  0
    1.8874   -0.3320    0.0000 C   0  0  0  0  0  0  0  0  0  0  0  0
    2.4084   -0.6105    0.0000 C   0  0  0  0  0  0  0  0  0  0  0  0
    2.3764    0.4838    0.0000 C   0  0  0  0  0  0  0  0  0  0  0  0
   -1.3296   -2.1096    0.0000 O   0  0  0  0  0  0  0  0  0  0  0  0
    2.8244    0.1413    0.0000 O   0  0  0  0  0  0  0  0  0  0  0  0
    0.1930   -4.0437    0.0000 C   0  0  0  0  0  0  0  0  0  0  0  0
    1.6041   -4.2691    0.0000 C   0  0  0  0  0  0  0  0  0  0  0  0
    1.2058   -0.3047    0.0000 C   0  0  0  0  0  0  0  0  0  0  0  0
   -0.1991   -0.5659    0.0000 C   0  0  0  0  0  0  0  0  0  0  0  0
    3.1569   -0.9575    0.0000 C   0  0  0  0  0  0  0  0  0  0  0  0
    2.3347    0.2112    0.0000 C   0  0  0  0  0  0  0  0  0  0  0  0
    2.8854   -0.3017    0.0000 C   0  0  0  0  0  0  0  0  0  0  0  0
    2.7536    1.1212    0.0000 C   0  0  0  0  0  0  0  0  0  0  0  0
    1.4739   -5.0837    0.0000 C   0  0  0  0  0  0  0  0  0  0  0  0
    1.0550    0.5064    0.0000 C   0  0  0  0  0  0  0  0  0  0  0  0
   -0.3499    0.2452    0.0000 C   0  0  0  0  0  0  0  0  0  0  0  0
    0.0629   -4.8583    0.0000 C   0  0  0  0  0  0  0  0  0  0  0  0
    3.0094    0.6859    0.0000 C   0  0  0  0  0  0  0  0  0  0  0  0
    3.7069   -0.2256    0.0000 C   0  0  0  0  0  0  0  0  0  0  0  0
    3.5751    1.1973    0.0000 C   0  0  0  0  0  0  0  0  0  0  0  0
    3.8317   -0.4828    0.0000 C   0  0  0  0  0  0  0  0  0  0  0  0
    0.2771    0.7814    0.0000 C   0  0  0  0  0  0  0  0  0  0  0  0
    4.0517    0.5239    0.0000 C   0  0  0  0  0  0  0  0  0  0  0  0
    3.7579    0.3389    0.0000 C   0  0  0  0  0  0  0  0  0  0  0  0
    0.7033   -5.3784    0.0000 C   0  0  0  0  0  0  0  0  0  0  0  0
  2  8  1  0
  3  5  1  0
  4  6  1  0
  5  1  1  0
  6  1  1  0
  7  9  1  0
  8  9  1  0
  9 12  1  0
 10  6  1  0
 11 10  1  0
 12  1  1  0
  4 13  1  0
  3 14  1  0
 11 15  1  0
 12 16  1  0
  1 17  1  0
  2 18  1  0
 19 14  1  0
 20 13  1  0
 21 17  1  0
 22 18  1  0
 23 16  2  0
 24 16  1  0
 25 15  2  0
 26 15  1  0
 27 19  2  0
 28 19  1  0
 29 20  2  0
 30 20  1  0
 31 24  2  0
 32 25  1  0
 33 26  2  0
 34 23  1  0
 35 28  2  0
 36 29  1  0
 37 30  2  0
 38 27  1  0
 39 33  1  0
 40 37  1  0
 41 35  1  0
 42 31  1  0
  5 10  1  0
  8  3  1  0
  2  7  1  0
  7  4  1  0
  2 11  1  0
 42 34  2  0
 39 32  2  0
 40 36  2  0
 41 38  2  0
M  END
>  <Classification>  (450) 
0

>  <pchembl>  (450) 
4.88

>  <InChI_steorem>  (450) 
InChI=1S/C38H38N2O2/c41-23-37-31(27-17-9-3-10-18-27)29-33-38(24-42)32(28-19-11-4-12-20-28)30(34(37)39(33)21-25-13-5-1-6-14-25)36(37)40(35(29)38)22-26-15-7-2-8-16-26/h1-20,29-36,41-42H,21-24H2

>  <source>  (450) 
ChEMBL25

>  <source_id>  (450) 
25

>  <optional_reference>  (450) 
10.1021/jm058046w

>  <optional_origin>  (450) 
None

>  <target>  (450) 
MDR1

$$$$

     RDKit          2D

 46 54  0  0  0  0  0  0  0  0999 V2000
    0.6400   -2.2093    0.0000 C   0  0  0  0  0  0  0  0  0  0  0  0
    1.9804   -1.3629    0.0000 C   0  0  0  0  0  0  0  0  0  0  0  0
    2.0704   -1.8299    0.0000 N   0  0  0  0  0  0  0  0  0  0  0  0
    1.6265   -0.6720    0.0000 N   0  0  0  0  0  0  0  0  0  0  0  0
    1.1375   -2.1570    0.0000 C   0  0  0  0  0  0  0  0  0  0  0  0
    0.7870   -1.0565    0.0000 C   0  0  0  0  0  0  0  0  0  0  0  0
    2.4500   -1.3155    0.0000 C   0  0  0  0  0  0  0  0  0  0  0  0
    2.6475   -1.9076    0.0000 C   0  0  0  0  0  0  0  0  0  0  0  0
    2.2604   -2.4352    0.0000 C   0  0  0  0  0  0  0  0  0  0  0  0
    0.3880   -1.5985    0.0000 C   0  0  0  0  0  0  0  0  0  0  0  0
    1.8199    0.3956    0.0000 C   0  0  0  0  0  0  0  0  0  0  0  0
    2.8539   -1.3862    0.0000 C   0  0  0  0  0  0  0  0  0  0  0  0
    0.9767   -1.5677    0.0000 C   0  0  0  0  0  0  0  0  0  0  0  0
    1.3409   -2.8501    0.0000 C   0  0  0  0  0  0  0  0  0  0  0  0
    2.5485    0.9895    0.0000 O   0  0  0  0  0  0  0  0  0  0  0  0
    1.6710   -1.1002    0.0000 O   0  0  0  0  0  0  0  0  0  0  0  0
    1.1934    1.1851    0.0000 O   0  0  0  0  0  0  0  0  0  0  0  0
    3.7441   -1.4629    0.0000 O   0  0  0  0  0  0  0  0  0  0  0  0
    0.8259   -0.7566    0.0000 C   0  0  0  0  0  0  0  0  0  0  0  0
    1.2107   -3.6648    0.0000 C   0  0  0  0  0  0  0  0  0  0  0  0
   -0.3974   -2.3065    0.0000 C   0  0  0  0  0  0  0  0  0  0  0  0
    2.9377   -0.8148    0.0000 C   0  0  0  0  0  0  0  0  0  0  0  0
    2.4884    1.8593    0.0000 C   0  0  0  0  0  0  0  0  0  0  0  0
    1.1311   -1.8259    0.0000 C   0  0  0  0  0  0  0  0  0  0  0  0
   -1.2407   -1.9101    0.0000 O   0  0  0  0  0  0  0  0  0  0  0  0
    3.6896   -0.3201    0.0000 O   0  0  0  0  0  0  0  0  0  0  0  0
    0.4401   -3.9594    0.0000 C   0  0  0  0  0  0  0  0  0  0  0  0
    1.8512   -4.1848    0.0000 C   0  0  0  0  0  0  0  0  0  0  0  0
    1.4529   -0.2204    0.0000 C   0  0  0  0  0  0  0  0  0  0  0  0
    0.0480   -0.4817    0.0000 C   0  0  0  0  0  0  0  0  0  0  0  0
    3.1423    2.3623    0.0000 C   0  0  0  0  0  0  0  0  0  0  0  0
    1.7258    2.1740    0.0000 C   0  0  0  0  0  0  0  0  0  0  0  0
    0.3165   -1.9563    0.0000 C   0  0  0  0  0  0  0  0  0  0  0  0
    1.6513   -2.4662    0.0000 C   0  0  0  0  0  0  0  0  0  0  0  0
    1.7211   -4.9995    0.0000 C   0  0  0  0  0  0  0  0  0  0  0  0
    1.3021    0.5907    0.0000 C   0  0  0  0  0  0  0  0  0  0  0  0
   -0.1028    0.3294    0.0000 C   0  0  0  0  0  0  0  0  0  0  0  0
    0.3100   -4.7741    0.0000 C   0  0  0  0  0  0  0  0  0  0  0  0
    1.6171    2.9918    0.0000 C   0  0  0  0  0  0  0  0  0  0  0  0
    0.0221   -2.7269    0.0000 C   0  0  0  0  0  0  0  0  0  0  0  0
    1.3569   -3.2368    0.0000 C   0  0  0  0  0  0  0  0  0  0  0  0
    3.0336    3.1801    0.0000 C   0  0  0  0  0  0  0  0  0  0  0  0
    0.5242    0.8656    0.0000 C   0  0  0  0  0  0  0  0  0  0  0  0
    0.5423   -3.3672    0.0000 C   0  0  0  0  0  0  0  0  0  0  0  0
    0.9505   -5.2941    0.0000 C   0  0  0  0  0  0  0  0  0  0  0  0
    2.2710    3.4949    0.0000 C   0  0  0  0  0  0  0  0  0  0  0  0
  2  8  1  0
  3  5  1  0
  4  6  1  0
  5  1  1  0
  6  1  1  0
  7  9  1  0
  8  9  1  0
  9 14  1  0
 10  6  1  0
  4 11  1  0
  3 12  1  0
 13 10  1  0
 14  1  1  0
 15 11  1  0
 16 12  1  0
 17 11  2  0
 18 12  2  0
 13 19  1  0
 14 20  1  0
  1 21  1  0
  2 22  1  0
 23 15  1  0
 24 16  1  0
 25 21  1  0
 26 22  1  0
 27 20  2  0
 28 20  1  0
 29 19  2  0
 30 19  1  0
 31 23  2  0
 32 23  1  0
 33 24  2  0
 34 24  1  0
 35 28  2  0
 36 29  1  0
 37 30  2  0
 38 27  1  0
 39 32  2  0
 40 33  1  0
 41 34  2  0
 42 31  1  0
 43 37  1  0
 44 41  1  0
 45 35  1  0
 46 39  1  0
  5 10  1  0
  3  8  1  0
  2  7  1  0
  7  4  1  0
  2 13  1  0
 45 38  2  0
 43 36  2  0
 46 42  2  0
 44 40  2  0
M  END
>  <Classification>  (451) 
0

>  <pchembl>  (451) 
4.68

>  <InChI_steorem>  (451) 
InChI=1S/C38H34N2O6/c41-21-37-29(23-13-5-1-6-14-23)27-31-38(22-42)30(24-15-7-2-8-16-24)28(33(37)39(31)35(43)45-25-17-9-3-10-18-25)34(37)40(32(27)38)36(44)46-26-19-11-4-12-20-26/h1-20,27-34,41-42H,21-22H2

>  <source>  (451) 
ChEMBL25

>  <source_id>  (451) 
25

>  <optional_reference>  (451) 
10.1021/jm058046w

>  <optional_origin>  (451) 
None

>  <target>  (451) 
MDR1

$$$$

     RDKit          2D

 78 78  0  0  0  0  0  0  0  0999 V2000
    1.6796    1.8271    0.0000 N   0  0  0  0  0  0  0  0  0  0  0  0
    0.8738    2.0043    0.0000 C   0  0  0  0  0  0  0  0  0  0  0  0
    0.3175    1.3951    0.0000 C   0  0  0  0  0  0  0  0  0  0  0  0
    0.6244    2.7907    0.0000 O   0  0  0  0  0  0  0  0  0  0  0  0
   -0.4883    1.5723    0.0000 C   0  0  0  0  0  0  0  0  0  0  0  0
    0.5669    0.6087    0.0000 O   0  0  0  0  0  0  0  0  0  0  0  0
    0.0105   -0.0005    0.0000 C   0  0  0  0  0  0  0  0  0  0  0  0
    0.2599   -0.7869    0.0000 C   0  0  0  0  0  0  0  0  0  0  0  0
   -0.7952    0.1767    0.0000 O   0  0  0  0  0  0  0  0  0  0  0  0
   -0.5458   -0.6097    0.0000 C   0  0  0  0  0  0  0  0  0  0  0  0
   -1.1022   -1.2189    0.0000 C   0  0  0  0  0  0  0  0  0  0  0  0
   -1.2098   -0.1201    0.0000 C   0  0  0  0  0  0  0  0  0  0  0  0
   -0.2964   -1.3961    0.0000 N   0  0  0  0  0  0  0  0  0  0  0  0
   -0.0470   -2.1825    0.0000 C   0  0  0  0  0  0  0  0  0  0  0  0
   -0.6034   -2.7917    0.0000 C   0  0  0  0  0  0  0  0  0  0  0  0
    0.7587   -2.3597    0.0000 O   0  0  0  0  0  0  0  0  0  0  0  0
   -1.4091   -2.6144    0.0000 C   0  0  0  0  0  0  0  0  0  0  0  0
   -0.3540   -3.5781    0.0000 O   0  0  0  0  0  0  0  0  0  0  0  0
   -1.6585   -1.8280    0.0000 C   0  0  0  0  0  0  0  0  0  0  0  0
   -1.9654   -3.2236    0.0000 C   0  0  0  0  0  0  0  0  0  0  0  0
    2.2359    2.4362    0.0000 C   0  0  0  0  0  0  0  0  0  0  0  0
    3.0417    2.2590    0.0000 C   0  0  0  0  0  0  0  0  0  0  0  0
    1.9865    3.2226    0.0000 C   0  0  0  0  0  0  0  0  0  0  0  0
    2.5429    3.8318    0.0000 C   0  0  0  0  0  0  0  0  0  0  0  0
    1.1808    3.3999    0.0000 C   0  0  0  0  0  0  0  0  0  0  0  0
    3.5980    2.8682    0.0000 O   0  0  0  0  0  0  0  0  0  0  0  0
    3.2911    1.4726    0.0000 O   0  0  0  0  0  0  0  0  0  0  0  0
    2.7347    0.8634    0.0000 C   0  0  0  0  0  0  0  0  0  0  0  0
    3.5405    0.6862    0.0000 C   0  0  0  0  0  0  0  0  0  0  0  0
    2.9841    0.0770    0.0000 C   0  0  0  0  0  0  0  0  0  0  0  0
    3.7898   -0.1002    0.0000 O   0  0  0  0  0  0  0  0  0  0  0  0
    2.4278   -0.5321    0.0000 N   0  0  0  0  0  0  0  0  0  0  0  0
    4.2045    0.1966    0.0000 C   0  0  0  0  0  0  0  0  0  0  0  0
    4.0968    1.2954    0.0000 C   0  0  0  0  0  0  0  0  0  0  0  0
    2.6772   -1.3185    0.0000 C   0  0  0  0  0  0  0  0  0  0  0  0
    3.4829   -1.4958    0.0000 C   0  0  0  0  0  0  0  0  0  0  0  0
    2.1208   -1.9277    0.0000 C   0  0  0  0  0  0  0  0  0  0  0  0
    1.3151   -1.7505    0.0000 O   0  0  0  0  0  0  0  0  0  0  0  0
    2.3702   -2.7141    0.0000 O   0  0  0  0  0  0  0  0  0  0  0  0
    3.7323   -2.2822    0.0000 C   0  0  0  0  0  0  0  0  0  0  0  0
    4.0392   -0.8866    0.0000 C   0  0  0  0  0  0  0  0  0  0  0  0
    1.8139   -3.3233    0.0000 C   0  0  0  0  0  0  0  0  0  0  0  0
    2.0633   -4.1097    0.0000 C   0  0  0  0  0  0  0  0  0  0  0  0
    2.8690   -4.2869    0.0000 O   0  0  0  0  0  0  0  0  0  0  0  0
    1.5069   -4.7189    0.0000 N   0  0  0  0  0  0  0  0  0  0  0  0
    1.7563   -5.5053    0.0000 C   0  0  0  0  0  0  0  0  0  0  0  0
    1.2000   -6.1145    0.0000 C   0  0  0  0  0  0  0  0  0  0  0  0
    2.5621   -5.6825    0.0000 C   0  0  0  0  0  0  0  0  0  0  0  0
    3.1184   -5.0733    0.0000 C   0  0  0  0  0  0  0  0  0  0  0  0
    1.0081   -3.1461    0.0000 C   0  0  0  0  0  0  0  0  0  0  0  0
    0.3942   -5.9373    0.0000 O   0  0  0  0  0  0  0  0  0  0  0  0
    2.8114   -6.4689    0.0000 C   0  0  0  0  0  0  0  0  0  0  0  0
    1.4494   -6.9009    0.0000 O   0  0  0  0  0  0  0  0  0  0  0  0
    0.8930   -7.5101    0.0000 C   0  0  0  0  0  0  0  0  0  0  0  0
    1.6988   -7.6873    0.0000 C   0  0  0  0  0  0  0  0  0  0  0  0
    1.1424   -8.2965    0.0000 C   0  0  0  0  0  0  0  0  0  0  0  0
    1.9482   -8.4737    0.0000 O   0  0  0  0  0  0  0  0  0  0  0  0
    0.5861   -8.9057    0.0000 N   0  0  0  0  0  0  0  0  0  0  0  0
   -0.2197   -8.7284    0.0000 C   0  0  0  0  0  0  0  0  0  0  0  0
   -0.7760   -9.3376    0.0000 C   0  0  0  0  0  0  0  0  0  0  0  0
   -0.4691   -7.9420    0.0000 C   0  0  0  0  0  0  0  0  0  0  0  0
    0.0873   -7.3328    0.0000 O   0  0  0  0  0  0  0  0  0  0  0  0
   -1.2748   -7.7648    0.0000 O   0  0  0  0  0  0  0  0  0  0  0  0
   -1.5818   -9.1604    0.0000 C   0  0  0  0  0  0  0  0  0  0  0  0
   -0.5266  -10.1240    0.0000 C   0  0  0  0  0  0  0  0  0  0  0  0
    2.3628   -8.1769    0.0000 C   0  0  0  0  0  0  0  0  0  0  0  0
    2.2551   -7.0781    0.0000 C   0  0  0  0  0  0  0  0  0  0  0  0
   -0.9103   -4.1872    0.0000 C   0  0  0  0  0  0  0  0  0  0  0  0
   -1.7161   -4.0100    0.0000 O   0  0  0  0  0  0  0  0  0  0  0  0
   -0.6609   -4.9736    0.0000 C   0  0  0  0  0  0  0  0  0  0  0  0
   -1.4667   -4.7964    0.0000 C   0  0  0  0  0  0  0  0  0  0  0  0
   -1.2173   -5.5828    0.0000 N   0  0  0  0  0  0  0  0  0  0  0  0
   -2.0230   -5.4056    0.0000 C   0  0  0  0  0  0  0  0  0  0  0  0
   -2.1307   -4.3068    0.0000 C   0  0  0  0  0  0  0  0  0  0  0  0
   -0.9679   -6.3692    0.0000 C   0  0  0  0  0  0  0  0  0  0  0  0
   -1.5242   -6.9784    0.0000 C   0  0  0  0  0  0  0  0  0  0  0  0
   -0.1621   -6.5464    0.0000 O   0  0  0  0  0  0  0  0  0  0  0  0
   -2.3299   -6.8012    0.0000 C   0  0  0  0  0  0  0  0  0  0  0  0
 17 20  1  0
 36 40  1  0
  2  3  1  0
 36 41  1  0
  1 21  1  0
 42 39  1  0
 42 50  1  0
 10 11  1  0
 42 43  1  0
 21 22  1  0
 43 44  2  0
  3  6  1  0
 43 45  1  0
 21 23  1  0
 45 46  1  0
 10 12  1  0
 46 47  1  0
 23 24  1  0
 46 48  1  0
  1  2  1  0
 48 49  1  0
 23 25  1  0
  8 13  1  0
 47 51  2  0
 22 26  2  0
 48 52  1  0
  6  7  1  0
 47 53  1  0
 22 27  1  0
 54 53  1  0
 13 14  1  0
 54 55  1  0
 28 27  1  0
 54 56  1  0
  2  4  2  0
 56 57  2  0
 28 29  1  0
 56 58  1  0
 14 15  1  0
 58 59  1  0
 28 30  1  0
 59 60  1  0
  7  8  1  0
 59 61  1  0
 30 31  2  0
 61 62  2  0
 14 16  2  0
 61 63  1  0
 30 32  1  0
 60 64  1  0
 60 65  1  0
 29 33  1  0
 55 66  1  0
 15 17  1  0
 55 67  1  0
 29 34  1  0
 18 68  1  0
  7  9  2  0
 68 69  2  0
 32 35  1  0
 70 68  1  0
 15 18  1  0
 70 71  1  0
 35 36  1  0
 70 72  1  0
  3  5  1  0
 71 73  1  0
 71 74  1  0
 35 37  1  0
 17 19  1  0
 72 75  1  0
 37 38  2  0
 76 75  1  0
  8 10  1  0
 75 77  2  0
 37 39  1  0
 76 78  1  0
 76 63  1  0
M  END
>  <Classification>  (452) 
1

>  <pchembl>  (452) 
5.5

>  <InChI_steorem>  (452) 
InChI=1S/C54H90N6O18/c1-22(2)34-49(67)73-31(19)43(61)55-38(26(9)10)53(71)77-41(29(15)16)47(65)59-36(24(5)6)51(69)75-33(21)45(63)57-39(27(11)12)54(72)78-42(30(17)18)48(66)60-35(23(3)4)50(68)74-32(20)44(62)56-37(25(7)8)52(70)76-40(28(13)14)46(64)58-34/h22-42H,1-21H3,(H,55,61)(H,56,62)(H,57,63)(H,58,64)(H,59,65)(H,60,66)

>  <source>  (452) 
ChEMBL25

>  <source_id>  (452) 
25

>  <optional_reference>  (452) 
10.1021/tx010125x

>  <optional_origin>  (452) 
None

>  <target>  (452) 
MDR1

$$$$

     RDKit          2D

 24 27  0  0  0  0  0  0  0  0999 V2000
   -4.1755    3.1377    0.0000 N   0  0  0  0  0  0  0  0  0  0  0  0
   -4.8900    2.7252    0.0000 C   0  0  0  0  0  0  0  0  0  0  0  0
   -4.3066    2.1419    0.0000 C   0  0  0  0  0  0  0  0  0  0  0  0
   -3.5922    2.5544    0.0000 C   0  0  0  0  0  0  0  0  0  0  0  0
   -2.7953    2.3408    0.0000 C   0  0  0  0  0  0  0  0  0  0  0  0
   -3.2078    3.0553    0.0000 C   0  0  0  0  0  0  0  0  0  0  0  0
   -4.1755    3.9627    0.0000 C   0  0  0  0  0  0  0  0  0  0  0  0
   -3.3505    3.9627    0.0000 C   0  0  0  0  0  0  0  0  0  0  0  0
   -5.6045    2.3127    0.0000 C   0  0  0  0  0  0  0  0  0  0  0  0
   -5.6045    1.4877    0.0000 C   0  0  0  0  0  0  0  0  0  0  0  0
   -6.3189    1.0752    0.0000 C   0  0  0  0  0  0  0  0  0  0  0  0
   -6.3189    0.2502    0.0000 C   0  0  0  0  0  0  0  0  0  0  0  0
   -5.6045   -0.1623    0.0000 N   0  0  0  0  0  0  0  0  0  0  0  0
   -4.8900    0.2502    0.0000 C   0  0  0  0  0  0  0  0  0  0  0  0
   -4.8900    1.0752    0.0000 C   0  0  0  0  0  0  0  0  0  0  0  0
   -7.0334    1.4877    0.0000 C   0  0  0  0  0  0  0  0  0  0  0  0
   -7.7479    1.0753    0.0000 C   0  0  0  0  0  0  0  0  0  0  0  0
   -7.7479    0.2503    0.0000 C   0  0  0  0  0  0  0  0  0  0  0  0
   -7.0334   -0.1623    0.0000 C   0  0  0  0  0  0  0  0  0  0  0  0
   -6.4014    2.0992    0.0000 O   0  0  0  0  0  0  0  0  0  0  0  0
   -8.4624    1.4878    0.0000 O   0  0  0  0  0  0  0  0  0  0  0  0
   -9.1768    1.0753    0.0000 C   0  0  0  0  0  0  0  0  0  0  0  0
   -2.7953    1.5158    0.0000 C   0  0  0  0  0  0  0  0  0  0  0  0
   -2.0808    1.1033    0.0000 C   0  0  0  0  0  0  0  0  0  0  0  0
  1  2  1  0
  2  3  1  0
  3  4  1  0
  4  5  1  0
  5  6  1  0
  6  1  1  0
  1  7  1  0
  7  8  1  0
  4  8  1  0
  2  9  1  0
  9 10  1  0
 10 11  2  0
 15 10  1  0
 12 13  2  0
 13 14  1  0
 14 15  2  0
 11 16  1  0
 12 11  1  0
 19 12  1  0
 16 17  2  0
 17 18  1  0
 18 19  2  0
  9 20  1  0
 17 21  1  0
 21 22  1  0
  5 23  1  0
 23 24  2  0
M  END
>  <Classification>  (453) 
0

>  <pchembl>  (453) 
4.92

>  <InChI_steorem>  (453) 
InChI=1S/C20H24N2O2/c1-3-13-12-22-9-7-14(13)10-19(22)20(23)16-6-8-21-18-5-4-15(24-2)11-17(16)18/h3-6,8,11,13-14,19-20,23H,1,7,9-10,12H2,2H3

>  <source>  (453) 
ChEMBL25

>  <source_id>  (453) 
25

>  <optional_reference>  (453) 
10.1021/jm020941h

>  <optional_origin>  (453) 
None

>  <target>  (453) 
MDR1

$$$$

     RDKit          2D

 57 60  0  0  0  0  0  0  0  0999 V2000
   24.9294  -15.5785    0.0000 C   0  0  0  0  0  0  0  0  0  0  0  0
   25.6438  -15.1660    0.0000 C   0  0  0  0  0  0  0  0  0  0  0  0
   24.9294  -13.9285    0.0000 C   0  0  0  0  0  0  0  0  0  0  0  0
   24.2149  -14.3410    0.0000 C   0  0  0  0  0  0  0  0  0  0  0  0
   24.2149  -15.1660    0.0000 C   0  0  0  0  0  0  0  0  0  0  0  0
   27.0728  -14.3409    0.0000 C   0  0  0  0  0  0  0  0  0  0  0  0
   27.0728  -15.1659    0.0000 C   0  0  0  0  0  0  0  0  0  0  0  0
   26.3583  -15.5785    0.0000 C   0  0  0  0  0  0  0  0  0  0  0  0
   24.9294  -13.1034    0.0000 O   0  0  0  0  0  0  0  0  0  0  0  0
   25.6438  -12.6909    0.0000 C   0  0  0  0  0  0  0  0  0  0  0  0
   26.3583  -13.1034    0.0000 C   0  0  0  0  0  0  0  0  0  0  0  0
   27.0728  -12.6909    0.0000 C   0  0  0  0  0  0  0  0  0  0  0  0
   27.7872  -13.1034    0.0000 C   0  0  0  0  0  0  0  0  0  0  0  0
   27.7873  -13.9284    0.0000 C   0  0  0  0  0  0  0  0  0  0  0  0
   23.5004  -13.9285    0.0000 C   0  0  0  0  0  0  0  0  0  0  0  0
   23.5004  -15.5785    0.0000 O   0  0  0  0  0  0  0  0  0  0  0  0
   22.7859  -15.1660    0.0000 C   0  0  0  0  0  0  0  0  0  0  0  0
   22.0715  -15.5785    0.0000 C   0  0  0  0  0  0  0  0  0  0  0  0
   22.7859  -14.3410    0.0000 O   0  0  0  0  0  0  0  0  0  0  0  0
   24.9294  -16.4035    0.0000 C   0  0  0  0  0  0  0  0  0  0  0  0
   25.6438  -14.3410    0.0000 O   0  0  0  0  0  0  0  0  0  0  0  0
   24.9707  -14.9213    0.0000 C   0  0  0  0  0  0  0  0  0  0  0  0
   25.6438  -11.8659    0.0000 O   0  0  0  0  0  0  0  0  0  0  0  0
   25.7749  -13.6868    0.0000 C   0  0  0  0  0  0  0  0  0  0  0  0
   26.6603  -13.6265    0.0000 C   0  0  0  0  0  0  0  0  0  0  0  0
   28.5018  -14.3408    0.0000 O   0  0  0  0  0  0  0  0  0  0  0  0
   28.5018  -15.1658    0.0000 C   0  0  0  0  0  0  0  0  0  0  0  0
   27.7873  -15.5784    0.0000 O   0  0  0  0  0  0  0  0  0  0  0  0
   27.7873  -16.4034    0.0000 C   0  0  0  0  0  0  0  0  0  0  0  0
   28.5018  -16.8159    0.0000 C   0  0  0  0  0  0  0  0  0  0  0  0
   29.2162  -16.4034    0.0000 C   0  0  0  0  0  0  0  0  0  0  0  0
   29.2162  -15.5784    0.0000 C   0  0  0  0  0  0  0  0  0  0  0  0
   27.0728  -16.8159    0.0000 C   0  0  0  0  0  0  0  0  0  0  0  0
   29.9307  -16.8159    0.0000 N   0  0  0  0  0  0  0  0  0  0  0  0
   30.6452  -16.4034    0.0000 C   0  0  0  0  0  0  0  0  0  0  0  0
   29.9307  -17.6409    0.0000 C   0  0  0  0  0  0  0  0  0  0  0  0
   25.9458  -16.2930    0.0000 C   0  0  0  0  0  0  0  0  0  0  0  0
   26.7708  -16.2930    0.0000 O   0  0  0  0  0  0  0  0  0  0  0  0
   29.9307  -15.1659    0.0000 O   0  0  0  0  0  0  0  0  0  0  0  0
   29.9307  -14.3409    0.0000 C   0  0  0  0  0  0  0  0  0  0  0  0
   30.6452  -13.9284    0.0000 C   0  0  0  0  0  0  0  0  0  0  0  0
   29.2162  -13.9284    0.0000 O   0  0  0  0  0  0  0  0  0  0  0  0
   28.5017  -12.6909    0.0000 C   0  0  0  0  0  0  0  0  0  0  0  0
   27.0727  -11.8659    0.0000 O   0  0  0  0  0  0  0  0  0  0  0  0
   27.7872  -11.4534    0.0000 C   0  0  0  0  0  0  0  0  0  0  0  0
   28.5017  -11.8658    0.0000 C   0  0  0  0  0  0  0  0  0  0  0  0
   29.2161  -11.4533    0.0000 C   0  0  0  0  0  0  0  0  0  0  0  0
   29.2161  -10.6283    0.0000 C   0  0  0  0  0  0  0  0  0  0  0  0
   28.5016  -10.2158    0.0000 C   0  0  0  0  0  0  0  0  0  0  0  0
   27.7872  -10.6284    0.0000 O   0  0  0  0  0  0  0  0  0  0  0  0
   28.5016   -9.3908    0.0000 C   0  0  0  0  0  0  0  0  0  0  0  0
   29.9306  -10.2158    0.0000 O   0  0  0  0  0  0  0  0  0  0  0  0
   29.9306   -9.3908    0.0000 C   0  0  0  0  0  0  0  0  0  0  0  0
   30.6451   -8.9783    0.0000 C   0  0  0  0  0  0  0  0  0  0  0  0
   29.2161   -8.9783    0.0000 O   0  0  0  0  0  0  0  0  0  0  0  0
   29.9306  -11.8658    0.0000 O   0  0  0  0  0  0  0  0  0  0  0  0
   30.6451  -11.4533    0.0000 C   0  0  0  0  0  0  0  0  0  0  0  0
  1  2  1  0
  3  4  1  0
  4  5  1  0
  5  1  1  0
  8  2  1  0
  6  7  1  0
  7  8  1  0
  3  9  1  0
  9 10  1  0
 10 11  1  0
 11 12  1  0
 14  6  1  0
 12 13  1  0
 13 14  1  0
  4 15  1  0
  5 16  1  0
 16 17  1  0
 17 18  1  0
 17 19  2  0
  1 20  1  0
  2 21  2  0
  3 22  1  0
 10 23  2  0
 11 24  1  0
  6 25  1  0
 14 26  1  0
 26 27  1  0
 27 28  1  0
 32 27  1  0
 28 29  1  0
 29 30  1  0
 30 31  1  0
 31 32  1  0
 29 33  1  0
 31 34  1  0
 34 35  1  0
 34 36  1  0
  8 37  1  0
  8 38  1  0
 37 38  1  0
 32 39  1  0
 39 40  1  0
 40 41  1  0
 40 42  2  0
 13 43  1  0
 12 44  1  0
 44 45  1  0
 45 46  1  0
 50 45  1  0
 46 47  1  0
 47 48  1  0
 48 49  1  0
 49 50  1  0
 49 51  1  0
 48 52  1  0
 52 53  1  0
 53 54  1  0
 53 55  2  0
 47 56  1  0
 56 57  1  0
M  END
>  <Classification>  (454) 
0

>  <pchembl>  (454) 
4.06

>  <InChI_steorem>  (454) 
InChI=1S/C41H67NO15/c1-19-17-41(18-49-41)38(46)23(5)34(53-27(9)43)21(3)25(7)52-39(47)24(6)35(56-32-16-31(48-14)36(26(8)51-32)54-28(10)44)22(4)33(19)57-40-37(55-29(11)45)30(42(12)13)15-20(2)50-40/h19-26,30-37,40H,15-18H2,1-14H3

>  <source>  (454) 
ChEMBL25

>  <source_id>  (454) 
25

>  <optional_reference>  (454) 
10.1006/bbrc.2001.6000

>  <optional_origin>  (454) 
None

>  <target>  (454) 
MDR1

$$$$

     RDKit          2D

 34 38  0  0  0  0  0  0  0  0999 V2000
    0.3900    1.3583    0.0000 C   0  0  0  0  0  0  0  0  0  0  0  0
    1.1058    1.7708    0.0000 C   0  0  0  0  0  0  0  0  0  0  0  0
    1.8175    1.3583    0.0000 C   0  0  0  0  0  0  0  0  0  0  0  0
    1.8175    0.5333    0.0000 C   0  0  0  0  0  0  0  0  0  0  0  0
    2.5334    0.1208    0.0000 C   0  0  0  0  0  0  0  0  0  0  0  0
    2.5334   -0.7042    0.0000 C   0  0  0  0  0  0  0  0  0  0  0  0
    1.8175   -1.1167    0.0000 C   0  0  0  0  0  0  0  0  0  0  0  0
    1.1058   -0.7042    0.0000 C   0  0  0  0  0  0  0  0  0  0  0  0
    1.1058    0.1208    0.0000 C   0  0  0  0  0  0  0  0  0  0  0  0
    0.3900    0.5333    0.0000 O   0  0  0  0  0  0  0  0  0  0  0  0
    2.5334    1.7708    0.0000 O   0  0  0  0  0  0  0  0  0  0  0  0
   -0.3217    1.7708    0.0000 C   0  0  0  0  0  0  0  0  0  0  0  0
   -0.3217    2.5958    0.0000 O   0  0  0  0  0  0  0  0  0  0  0  0
   -1.0376    1.3583    0.0000 N   0  0  0  0  0  0  0  0  0  0  0  0
   -1.0376    0.5333    0.0000 C   0  0  0  0  0  0  0  0  0  0  0  0
   -1.7534    0.1208    0.0000 C   0  0  0  0  0  0  0  0  0  0  0  0
   -2.4693    0.5333    0.0000 N   0  0  0  0  0  0  0  0  0  0  0  0
   -2.4693    1.3583    0.0000 C   0  0  0  0  0  0  0  0  0  0  0  0
   -1.7534    1.7708    0.0000 C   0  0  0  0  0  0  0  0  0  0  0  0
    3.2493    0.5333    0.0000 O   0  0  0  0  0  0  0  0  0  0  0  0
    3.9651    0.1208    0.0000 C   0  0  0  0  0  0  0  0  0  0  0  0
    4.6768    0.5333    0.0000 C   0  0  0  0  0  0  0  0  0  0  0  0
    4.6768    1.3583    0.0000 C   0  0  0  0  0  0  0  0  0  0  0  0
    5.3927    1.7708    0.0000 C   0  0  0  0  0  0  0  0  0  0  0  0
    6.1044    1.3583    0.0000 C   0  0  0  0  0  0  0  0  0  0  0  0
    6.1044    0.5333    0.0000 C   0  0  0  0  0  0  0  0  0  0  0  0
    5.3927    0.1208    0.0000 C   0  0  0  0  0  0  0  0  0  0  0  0
   -3.1836    0.1205    0.0000 C   0  0  0  0  0  0  0  0  0  0  0  0
   -3.8983    0.5327    0.0000 C   0  0  0  0  0  0  0  0  0  0  0  0
   -3.8941    1.3582    0.0000 C   0  0  0  0  0  0  0  0  0  0  0  0
   -4.6079    1.7703    0.0000 C   0  0  0  0  0  0  0  0  0  0  0  0
   -5.3232    1.3575    0.0000 C   0  0  0  0  0  0  0  0  0  0  0  0
   -5.3202    0.5282    0.0000 C   0  0  0  0  0  0  0  0  0  0  0  0
   -4.6058    0.1198    0.0000 C   0  0  0  0  0  0  0  0  0  0  0  0
  7  8  2  0
  8  9  1  0
  4  9  2  0
  9 10  1  0
  1 10  1  0
  3 11  2  0
 12 13  2  0
 14 15  1  0
 15 16  1  0
 16 17  1  0
 17 18  1  0
 18 19  1  0
 14 19  1  0
 12 14  1  0
  1 12  1  0
 21 22  1  0
 22 23  2  0
 23 24  1  0
 24 25  2  0
 25 26  1  0
 26 27  2  0
 22 27  1  0
 20 21  1  0
  5 20  1  0
 17 28  1  0
  1  2  2  0
 28 29  1  0
  2  3  1  0
 29 30  2  0
  3  4  1  0
 30 31  1  0
  4  5  1  0
 31 32  2  0
  5  6  2  0
 32 33  1  0
  6  7  1  0
 33 34  2  0
 34 29  1  0
M  END
>  <Classification>  (455) 
0

>  <pchembl>  (455) 
4.8

>  <InChI_steorem>  (455) 
InChI=1S/C28H26N2O4/c31-23-18-26(28(32)30-16-14-29(15-17-30)19-21-8-3-1-4-9-21)34-25-13-7-12-24(27(23)25)33-20-22-10-5-2-6-11-22/h1-13,18H,14-17,19-20H2

>  <source>  (455) 
ChEMBL25

>  <source_id>  (455) 
25

>  <optional_reference>  (455) 
10.1016/j.ejmech.2015.12.010

>  <optional_origin>  (455) 
None

>  <target>  (455) 
MDR1

$$$$

     RDKit          2D

 21 23  0  0  0  0  0  0  0  0999 V2000
    4.8125   -0.2292    0.0000 C   0  0  0  0  0  0  0  0  0  0  0  0
    5.5292   -0.6417    0.0000 C   0  0  0  0  0  0  0  0  0  0  0  0
    6.2417    0.6083    0.0000 C   0  0  0  0  0  0  0  0  0  0  0  0
    6.2500   -0.2208    0.0000 C   0  0  0  0  0  0  0  0  0  0  0  0
    4.8042    0.6000    0.0000 C   0  0  0  0  0  0  0  0  0  0  0  0
    5.5250    1.0208    0.0000 O   0  0  0  0  0  0  0  0  0  0  0  0
    4.0917   -0.6417    0.0000 C   0  0  0  0  0  0  0  0  0  0  0  0
    6.9542    1.0208    0.0000 C   0  0  0  0  0  0  0  0  0  0  0  0
    4.0917    1.0083    0.0000 C   0  0  0  0  0  0  0  0  0  0  0  0
    3.3792   -0.2292    0.0000 C   0  0  0  0  0  0  0  0  0  0  0  0
    6.9542    1.8458    0.0000 C   0  0  0  0  0  0  0  0  0  0  0  0
    7.6625    2.2583    0.0000 C   0  0  0  0  0  0  0  0  0  0  0  0
    3.3792    0.5958    0.0000 C   0  0  0  0  0  0  0  0  0  0  0  0
    5.5292   -1.4667    0.0000 O   0  0  0  0  0  0  0  0  0  0  0  0
    8.3792    1.8500    0.0000 C   0  0  0  0  0  0  0  0  0  0  0  0
    7.6750    0.6083    0.0000 C   0  0  0  0  0  0  0  0  0  0  0  0
    8.3875    1.0250    0.0000 C   0  0  0  0  0  0  0  0  0  0  0  0
    4.0917   -1.4667    0.0000 O   0  0  0  0  0  0  0  0  0  0  0  0
    7.6542    3.0833    0.0000 O   0  0  0  0  0  0  0  0  0  0  0  0
    9.0917    2.2667    0.0000 O   0  0  0  0  0  0  0  0  0  0  0  0
    2.6667    1.0083    0.0000 O   0  0  0  0  0  0  0  0  0  0  0  0
  2  1  1  0
  3  6  1  0
  4  2  1  0
  5  1  2  0
  6  5  1  0
  7  1  1  0
  8  3  1  0
  9  5  1  0
 10  7  2  0
 11  8  2  0
 12 11  1  0
 13 10  1  0
 14  2  2  0
 15 17  1  0
 16  8  1  0
 17 16  2  0
 18  7  1  0
 19 12  1  0
 20 15  1  0
 21 13  1  0
  4  3  2  0
  9 13  2  0
 12 15  2  0
M  END
>  <Classification>  (456) 
0

>  <pchembl>  (456) 
4.71

>  <InChI_steorem>  (456) 
InChI=1S/C15H10O6/c16-8-4-11(19)15-12(20)6-13(21-14(15)5-8)7-1-2-9(17)10(18)3-7/h1-6,16-19H

>  <source>  (456) 
ChEMBL25

>  <source_id>  (456) 
25

>  <optional_reference>  (456) 
10.1016/j.bbrc.2004.06.020

>  <optional_origin>  (456) 
None

>  <target>  (456) 
MDR1

$$$$

     RDKit          2D

 27 30  0  0  0  0  0  0  0  0999 V2000
   32.5393  -23.7747    0.0000 C   0  0  0  0  0  0  0  0  0  0  0  0
   32.5393  -24.5998    0.0000 C   0  0  0  0  0  0  0  0  0  0  0  0
   33.2506  -25.0146    0.0000 C   0  0  0  0  0  0  0  0  0  0  0  0
   33.9620  -24.5998    0.0000 C   0  0  0  0  0  0  0  0  0  0  0  0
   33.9620  -23.7747    0.0000 C   0  0  0  0  0  0  0  0  0  0  0  0
   33.2506  -23.3642    0.0000 C   0  0  0  0  0  0  0  0  0  0  0  0
   34.7484  -23.5239    0.0000 C   0  0  0  0  0  0  0  0  0  0  0  0
   35.2363  -24.1894    0.0000 C   0  0  0  0  0  0  0  0  0  0  0  0
   34.7484  -24.8549    0.0000 N   0  0  0  0  0  0  0  0  0  0  0  0
   36.0566  -24.1016    0.0000 C   0  0  0  0  0  0  0  0  0  0  0  0
   36.5357  -24.7670    0.0000 C   0  0  0  0  0  0  0  0  0  0  0  0
   37.3561  -24.6837    0.0000 C   0  0  0  0  0  0  0  0  0  0  0  0
   37.6929  -23.9303    0.0000 C   0  0  0  0  0  0  0  0  0  0  0  0
   37.2050  -23.2648    0.0000 C   0  0  0  0  0  0  0  0  0  0  0  0
   36.3892  -23.3482    0.0000 N   0  0  0  0  0  0  0  0  0  0  0  0
   35.9057  -22.6827    0.0000 C   0  0  0  0  0  0  0  0  0  0  0  0
   35.0853  -22.7707    0.0000 C   0  0  0  0  0  0  0  0  0  0  0  0
   36.4856  -22.0984    0.0000 C   0  0  0  0  0  0  0  0  0  0  0  0
   37.2014  -21.6881    0.0000 C   0  0  0  0  0  0  0  0  0  0  0  0
   37.7850  -22.2681    0.0000 O   0  0  0  0  0  0  0  0  0  0  0  0
   38.6098  -22.2681    0.0000 C   0  0  0  0  0  0  0  0  0  0  0  0
   37.2014  -20.8635    0.0000 O   0  0  0  0  0  0  0  0  0  0  0  0
   35.6385  -23.3189    0.0000 C   0  0  0  0  0  0  0  0  0  0  0  0
   38.5170  -23.9303    0.0000 C   0  0  0  0  0  0  0  0  0  0  0  0
   39.0967  -24.5139    0.0000 C   0  0  0  0  0  0  0  0  0  0  0  0
   35.6419  -24.8174    0.0000 N   0  0  0  0  0  0  0  0  0  0  0  0
   36.0566  -25.5287    0.0000 O   0  0  0  0  0  0  0  0  0  0  0  0
  1  2  2  0
  2  3  1  0
  3  4  2  0
  4  5  1  0
  5  6  2  0
  6  1  1  0
  7  5  1  0
  8  7  2  0
  9  8  1  0
  4  9  1  0
  8 10  1  0
 10 11  1  0
 11 12  1  0
 12 13  1  0
 13 14  1  0
 14 15  1  0
 15 16  1  0
 16 17  1  0
 17  7  1  0
 16 18  1  0
 12 18  1  0
 18 19  1  0
 19 20  1  0
 20 21  1  0
 19 22  2  0
 15 23  1  0
 13 24  1  0
 24 25  1  0
 10 26  2  3
 26 27  1  0
M  END
>  <Classification>  (457) 
0

>  <pchembl>  (457) 
4.07

>  <InChI_steorem>  (457) 
InChI=1S/C21H27N3O3/c1-4-12-11-24(2)18-10-15-13-7-5-6-8-16(13)22-20(15)17(23-26)9-14(12)19(18)21(25)27-3/h5-8,12,14,18-19,22,26H,4,9-11H2,1-3H3

>  <source>  (457) 
ChEMBL25

>  <source_id>  (457) 
25

>  <optional_reference>  (457) 
10.1016/j.ejmech.2017.01.044

>  <optional_origin>  (457) 
None

>  <target>  (457) 
MDR1

$$$$

     RDKit          2D

 33 37  0  0  0  0  0  0  0  0999 V2000
   34.5306  -13.0020    0.0000 C   0  0  0  0  0  0  0  0  0  0  0  0
   34.5306  -13.8286    0.0000 C   0  0  0  0  0  0  0  0  0  0  0  0
   35.2450  -14.2374    0.0000 C   0  0  0  0  0  0  0  0  0  0  0  0
   35.9593  -13.8286    0.0000 C   0  0  0  0  0  0  0  0  0  0  0  0
   35.9593  -13.0020    0.0000 C   0  0  0  0  0  0  0  0  0  0  0  0
   35.2450  -12.5887    0.0000 C   0  0  0  0  0  0  0  0  0  0  0  0
   36.7433  -12.7461    0.0000 C   0  0  0  0  0  0  0  0  0  0  0  0
   37.2286  -13.4153    0.0000 C   0  0  0  0  0  0  0  0  0  0  0  0
   36.7433  -14.0800    0.0000 N   0  0  0  0  0  0  0  0  0  0  0  0
   36.7433  -14.9065    0.0000 C   0  0  0  0  0  0  0  0  0  0  0  0
   37.4574  -15.3197    0.0000 C   0  0  0  0  0  0  0  0  0  0  0  0
   37.4574  -16.1415    0.0000 C   0  0  0  0  0  0  0  0  0  0  0  0
   38.1714  -16.5546    0.0000 C   0  0  0  0  0  0  0  0  0  0  0  0
   38.8854  -16.1415    0.0000 C   0  0  0  0  0  0  0  0  0  0  0  0
   38.8854  -15.3197    0.0000 C   0  0  0  0  0  0  0  0  0  0  0  0
   38.1714  -14.9065    0.0000 C   0  0  0  0  0  0  0  0  0  0  0  0
   38.0504  -13.3287    0.0000 C   0  0  0  0  0  0  0  0  0  0  0  0
   38.5358  -13.9933    0.0000 C   0  0  0  0  0  0  0  0  0  0  0  0
   39.3531  -13.9112    0.0000 C   0  0  0  0  0  0  0  0  0  0  0  0
   39.6895  -13.1555    0.0000 C   0  0  0  0  0  0  0  0  0  0  0  0
   39.2043  -12.4908    0.0000 C   0  0  0  0  0  0  0  0  0  0  0  0
   38.3869  -12.5730    0.0000 N   0  0  0  0  0  0  0  0  0  0  0  0
   37.9016  -11.9082    0.0000 C   0  0  0  0  0  0  0  0  0  0  0  0
   37.0798  -11.9949    0.0000 C   0  0  0  0  0  0  0  0  0  0  0  0
   38.4819  -11.3235    0.0000 C   0  0  0  0  0  0  0  0  0  0  0  0
   39.1963  -10.9102    0.0000 C   0  0  0  0  0  0  0  0  0  0  0  0
   39.7810  -11.4951    0.0000 O   0  0  0  0  0  0  0  0  0  0  0  0
   40.6075  -11.4951    0.0000 C   0  0  0  0  0  0  0  0  0  0  0  0
   39.1963  -10.0881    0.0000 O   0  0  0  0  0  0  0  0  0  0  0  0
   37.6421  -12.5291    0.0000 C   0  0  0  0  0  0  0  0  0  0  0  0
   40.5161  -13.1555    0.0000 C   0  0  0  0  0  0  0  0  0  0  0  0
   40.9294  -13.8699    0.0000 C   0  0  0  0  0  0  0  0  0  0  0  0
   37.6371  -14.0430    0.0000 O   0  0  0  0  0  0  0  0  0  0  0  0
  1  2  2  0
  2  3  1  0
  3  4  2  0
  4  5  1  0
  5  6  2  0
  6  1  1  0
  7  5  1  0
  8  7  2  0
  9  8  1  0
  4  9  1  0
  9 10  1  0
 10 11  1  0
 11 12  2  0
 12 13  1  0
 13 14  2  0
 14 15  1  0
 15 16  2  0
 16 11  1  0
  8 17  1  0
 17 18  1  0
 18 19  1  0
 19 20  1  0
 20 21  1  0
 21 22  1  0
 22 23  1  0
 23 24  1  0
 24  7  1  0
 23 25  1  0
 19 25  1  0
 25 26  1  0
 26 27  1  0
 27 28  1  0
 26 29  2  0
 22 30  1  0
 20 31  1  0
 31 32  1  0
 17 33  2  0
M  END
>  <Classification>  (458) 
0

>  <pchembl>  (458) 
4.42

>  <InChI_steorem>  (458) 
InChI=1S/C28H32N2O3/c1-4-19-17-29(2)24-14-22-20-12-8-9-13-23(20)30(16-18-10-6-5-7-11-18)27(22)25(31)15-21(19)26(24)28(32)33-3/h5-13,19,21,24,26H,4,14-17H2,1-3H3

>  <source>  (458) 
ChEMBL25

>  <source_id>  (458) 
25

>  <optional_reference>  (458) 
10.1016/j.ejmech.2017.01.044

>  <optional_origin>  (458) 
None

>  <target>  (458) 
MDR1

$$$$

     RDKit          2D

 29 32  0  0  0  0  0  0  0  0999 V2000
   11.0472  -20.1243    0.0000 C   0  0  0  0  0  0  0  0  0  0  0  0
   11.0460  -20.9439    0.0000 C   0  0  0  0  0  0  0  0  0  0  0  0
   11.7541  -21.3528    0.0000 C   0  0  0  0  0  0  0  0  0  0  0  0
   11.7523  -19.7155    0.0000 C   0  0  0  0  0  0  0  0  0  0  0  0
   12.4609  -20.1207    0.0000 C   0  0  0  0  0  0  0  0  0  0  0  0
   12.4617  -20.9397    0.0000 C   0  0  0  0  0  0  0  0  0  0  0  0
   13.1702  -21.3468    0.0000 N   0  0  0  0  0  0  0  0  0  0  0  0
   13.8785  -20.9360    0.0000 C   0  0  0  0  0  0  0  0  0  0  0  0
   13.8737  -20.1139    0.0000 N   0  0  0  0  0  0  0  0  0  0  0  0
   13.1646  -19.7105    0.0000 C   0  0  0  0  0  0  0  0  0  0  0  0
   13.1603  -18.8933    0.0000 N   0  0  0  0  0  0  0  0  0  0  0  0
   13.8658  -18.4810    0.0000 C   0  0  0  0  0  0  0  0  0  0  0  0
   14.5711  -18.8892    0.0000 C   0  0  0  0  0  0  0  0  0  0  0  0
   15.2762  -18.4775    0.0000 C   0  0  0  0  0  0  0  0  0  0  0  0
   15.2723  -17.6595    0.0000 C   0  0  0  0  0  0  0  0  0  0  0  0
   14.5574  -17.2548    0.0000 C   0  0  0  0  0  0  0  0  0  0  0  0
   13.8553  -17.6688    0.0000 C   0  0  0  0  0  0  0  0  0  0  0  0
   14.5842  -21.3378    0.0000 C   0  0  0  0  0  0  0  0  0  0  0  0
   14.5860  -22.1560    0.0000 C   0  0  0  0  0  0  0  0  0  0  0  0
   15.2945  -22.5618    0.0000 C   0  0  0  0  0  0  0  0  0  0  0  0
   16.0016  -22.1504    0.0000 N   0  0  0  0  0  0  0  0  0  0  0  0
   15.9958  -21.3290    0.0000 C   0  0  0  0  0  0  0  0  0  0  0  0
   15.2868  -20.9269    0.0000 C   0  0  0  0  0  0  0  0  0  0  0  0
   15.9772  -17.2462    0.0000 O   0  0  0  0  0  0  0  0  0  0  0  0
   16.6876  -17.6501    0.0000 C   0  0  0  0  0  0  0  0  0  0  0  0
   14.5502  -16.4377    0.0000 C   0  0  0  0  0  0  0  0  0  0  0  0
   15.2543  -16.0228    0.0000 F   0  0  0  0  0  0  0  0  0  0  0  0
   13.8389  -16.0353    0.0000 F   0  0  0  0  0  0  0  0  0  0  0  0
   14.5444  -15.6174    0.0000 F   0  0  0  0  0  0  0  0  0  0  0  0
  1  2  2  0
  2  3  1  0
  3  6  2  0
  5  4  2  0
  4  1  1  0
  5  6  1  0
  6  7  1  0
  7  8  2  0
  8  9  1  0
  9 10  2  0
 10  5  1  0
 10 11  1  0
 11 12  1  0
 12 13  2  0
 13 14  1  0
 14 15  2  0
 15 16  1  0
 16 17  2  0
 17 12  1  0
 18 19  2  0
 19 20  1  0
 20 21  2  0
 21 22  1  0
 22 23  2  0
 23 18  1  0
  8 18  1  0
 15 24  1  0
 24 25  1  0
 16 26  1  0
 26 27  1  0
 26 28  1  0
 26 29  1  0
M  END
>  <Classification>  (459) 
1

>  <pchembl>  (459) 
5.56

>  <InChI_steorem>  (459) 
InChI=1S/C21H15F3N4O/c1-29-18-7-6-14(12-16(18)21(22,23)24)26-20-15-4-2-3-5-17(15)27-19(28-20)13-8-10-25-11-9-13/h2-12H,1H3,(H,26,27,28)

>  <source>  (459) 
ChEMBL25

>  <source_id>  (459) 
25

>  <optional_reference>  (459) 
10.1021/acs.jmedchem.7b00441

>  <optional_origin>  (459) 
None

>  <target>  (459) 
MDR1

$$$$

     RDKit          2D

 41 45  0  0  0  0  0  0  0  0999 V2000
   32.9958  -28.3705    0.0000 C   0  0  0  0  0  0  0  0  0  0  0  0
   32.9946  -29.1942    0.0000 C   0  0  0  0  0  0  0  0  0  0  0  0
   33.7068  -29.6032    0.0000 C   0  0  0  0  0  0  0  0  0  0  0  0
   34.4206  -29.1937    0.0000 C   0  0  0  0  0  0  0  0  0  0  0  0
   34.4178  -28.3669    0.0000 C   0  0  0  0  0  0  0  0  0  0  0  0
   33.7050  -27.9575    0.0000 C   0  0  0  0  0  0  0  0  0  0  0  0
   35.1331  -29.6012    0.0000 C   0  0  0  0  0  0  0  0  0  0  0  0
   35.1344  -30.4225    0.0000 O   0  0  0  0  0  0  0  0  0  0  0  0
   35.8401  -29.1915    0.0000 N   0  0  0  0  0  0  0  0  0  0  0  0
   36.5526  -29.5990    0.0000 C   0  0  0  0  0  0  0  0  0  0  0  0
   35.1281  -27.9515    0.0000 O   0  0  0  0  0  0  0  0  0  0  0  0
   35.8373  -28.3616    0.0000 C   0  0  0  0  0  0  0  0  0  0  0  0
   36.5476  -27.9462    0.0000 C   0  0  0  0  0  0  0  0  0  0  0  0
   37.2970  -28.2829    0.0000 C   0  0  0  0  0  0  0  0  0  0  0  0
   37.8456  -27.6694    0.0000 N   0  0  0  0  0  0  0  0  0  0  0  0
   37.4302  -26.9590    0.0000 N   0  0  0  0  0  0  0  0  0  0  0  0
   36.6274  -27.1321    0.0000 N   0  0  0  0  0  0  0  0  0  0  0  0
   38.6639  -27.6689    0.0000 C   0  0  0  0  0  0  0  0  0  0  0  0
   39.0721  -26.9569    0.0000 C   0  0  0  0  0  0  0  0  0  0  0  0
   39.8934  -26.9564    0.0000 N   0  0  0  0  0  0  0  0  0  0  0  0
   40.3032  -27.6744    0.0000 C   0  0  0  0  0  0  0  0  0  0  0  0
   41.1209  -27.6759    0.0000 C   0  0  0  0  0  0  0  0  0  0  0  0
   40.3013  -26.2491    0.0000 C   0  0  0  0  0  0  0  0  0  0  0  0
   41.1252  -26.2522    0.0000 C   0  0  0  0  0  0  0  0  0  0  0  0
   41.5301  -26.9671    0.0000 C   0  0  0  0  0  0  0  0  0  0  0  0
   42.3503  -26.9708    0.0000 C   0  0  0  0  0  0  0  0  0  0  0  0
   42.7666  -26.2604    0.0000 C   0  0  0  0  0  0  0  0  0  0  0  0
   42.3526  -25.5448    0.0000 C   0  0  0  0  0  0  0  0  0  0  0  0
   41.5337  -25.5446    0.0000 C   0  0  0  0  0  0  0  0  0  0  0  0
   42.7658  -24.8333    0.0000 O   0  0  0  0  0  0  0  0  0  0  0  0
   43.5879  -26.2627    0.0000 O   0  0  0  0  0  0  0  0  0  0  0  0
   43.9945  -26.9757    0.0000 C   0  0  0  0  0  0  0  0  0  0  0  0
   43.5871  -24.8338    0.0000 C   0  0  0  0  0  0  0  0  0  0  0  0
   36.5493  -30.4188    0.0000 C   0  0  0  0  0  0  0  0  0  0  0  0
   37.2609  -30.8303    0.0000 C   0  0  0  0  0  0  0  0  0  0  0  0
   37.9731  -30.4164    0.0000 C   0  0  0  0  0  0  0  0  0  0  0  0
   37.9692  -29.5909    0.0000 C   0  0  0  0  0  0  0  0  0  0  0  0
   37.2569  -29.1871    0.0000 C   0  0  0  0  0  0  0  0  0  0  0  0
   37.2607  -31.6519    0.0000 N   0  0  0  0  0  0  0  0  0  0  0  0
   37.9689  -32.0598    0.0000 O   0  0  0  0  0  0  0  0  0  0  0  0
   36.5535  -32.0613    0.0000 O   0  0  0  0  0  0  0  0  0  0  0  0
  1  2  2  0
  2  3  1  0
  3  4  2  0
  4  5  1  0
  5  6  2  0
  6  1  1  0
  4  7  1  0
  7  8  2  0
  7  9  1  0
  9 10  1  0
  5 11  1  0
 11 12  1  0
 12 13  1  0
 13 14  2  0
 14 15  1  0
 15 16  1  0
 16 17  2  0
 17 13  1  0
 15 18  1  0
 18 19  1  0
 19 20  1  0
 20 21  1  0
 20 23  1  0
 21 22  1  0
 22 25  1  0
 24 23  1  0
 24 25  2  0
 25 26  1  0
 26 27  2  0
 27 28  1  0
 28 29  2  0
 29 24  1  0
 28 30  1  0
 27 31  1  0
 31 32  1  0
 30 33  1  0
 10 34  2  0
 34 35  1  0
 35 36  2  0
 36 37  1  0
 37 38  2  0
 38 10  1  0
 39 40  2  0
 39 41  1  0
 35 39  1  0
M  CHG  2  39   1  41  -1
M  END
>  <Classification>  (460) 
0

>  <pchembl>  (460) 
4.56

>  <InChI_steorem>  (460) 
InChI=1S/C29H30N6O6/c1-39-27-14-20-10-11-33(17-21(20)15-28(27)40-2)12-13-34-18-23(31-32-34)19-41-26-9-4-3-8-25(26)29(36)30-22-6-5-7-24(16-22)35(37)38/h3-9,14-16,18H,10-13,17,19H2,1-2H3,(H,30,36)

>  <source>  (460) 
ChEMBL25

>  <source_id>  (460) 
25

>  <optional_reference>  (460) 
10.1016/j.bmc.2017.06.015

>  <optional_origin>  (460) 
None

>  <target>  (460) 
MDR1

$$$$

     RDKit          2D

 33 37  0  0  0  0  0  0  0  0999 V2000
   23.0582   -3.6916    0.0000 C   0  0  0  0  0  0  0  0  0  0  0  0
   23.0582   -4.5174    0.0000 C   0  0  0  0  0  0  0  0  0  0  0  0
   23.7668   -4.9282    0.0000 C   0  0  0  0  0  0  0  0  0  0  0  0
   24.4799   -4.5174    0.0000 C   0  0  0  0  0  0  0  0  0  0  0  0
   24.4799   -3.6916    0.0000 C   0  0  0  0  0  0  0  0  0  0  0  0
   23.7668   -3.2810    0.0000 C   0  0  0  0  0  0  0  0  0  0  0  0
   25.2673   -3.4392    0.0000 C   0  0  0  0  0  0  0  0  0  0  0  0
   25.7503   -4.1024    0.0000 C   0  0  0  0  0  0  0  0  0  0  0  0
   25.2673   -4.7699    0.0000 N   0  0  0  0  0  0  0  0  0  0  0  0
   26.5712   -4.0153    0.0000 C   0  0  0  0  0  0  0  0  0  0  0  0
   27.0543   -4.6874    0.0000 C   0  0  0  0  0  0  0  0  0  0  0  0
   27.8753   -4.6003    0.0000 C   0  0  0  0  0  0  0  0  0  0  0  0
   28.2088   -3.8458    0.0000 C   0  0  0  0  0  0  0  0  0  0  0  0
   27.7214   -3.1782    0.0000 C   0  0  0  0  0  0  0  0  0  0  0  0
   26.9048   -3.2650    0.0000 N   0  0  0  0  0  0  0  0  0  0  0  0
   26.4218   -2.5976    0.0000 C   0  0  0  0  0  0  0  0  0  0  0  0
   25.6008   -2.6845    0.0000 C   0  0  0  0  0  0  0  0  0  0  0  0
   27.0048   -2.0191    0.0000 C   0  0  0  0  0  0  0  0  0  0  0  0
   27.7177   -1.6039    0.0000 C   0  0  0  0  0  0  0  0  0  0  0  0
   28.2999   -2.1826    0.0000 O   0  0  0  0  0  0  0  0  0  0  0  0
   29.1253   -2.1826    0.0000 C   0  0  0  0  0  0  0  0  0  0  0  0
   27.7177   -0.7787    0.0000 O   0  0  0  0  0  0  0  0  0  0  0  0
   26.1089   -3.0868    0.0000 C   0  0  0  0  0  0  0  0  0  0  0  0
   29.0334   -3.8458    0.0000 C   0  0  0  0  0  0  0  0  0  0  0  0
   29.6161   -4.4279    0.0000 C   0  0  0  0  0  0  0  0  0  0  0  0
   26.1562   -4.7328    0.0000 N   0  0  0  0  0  0  0  0  0  0  0  0
   26.5712   -5.4459    0.0000 N   0  0  0  0  0  0  0  0  0  0  0  0
   26.5712   -6.2716    0.0000 C   0  0  0  0  0  0  0  0  0  0  0  0
   25.8586   -6.6822    0.0000 N   0  0  0  0  0  0  0  0  0  0  0  0
   25.8586   -7.5031    0.0000 C   0  0  0  0  0  0  0  0  0  0  0  0
   26.5712   -7.9181    0.0000 C   0  0  0  0  0  0  0  0  0  0  0  0
   27.2840   -7.5031    0.0000 N   0  0  0  0  0  0  0  0  0  0  0  0
   27.2840   -6.6822    0.0000 C   0  0  0  0  0  0  0  0  0  0  0  0
  1  2  2  0
  2  3  1  0
  3  4  2  0
  4  5  1  0
  5  6  2  0
  6  1  1  0
  7  5  1  0
  8  7  2  0
  9  8  1  0
  4  9  1  0
  8 10  1  0
 10 11  1  0
 11 12  1  0
 12 13  1  0
 13 14  1  0
 14 15  1  0
 15 16  1  0
 16 17  1  0
 17  7  1  0
 16 18  1  0
 12 18  1  0
 18 19  1  0
 19 20  1  0
 20 21  1  0
 19 22  2  0
 15 23  1  0
 13 24  1  0
 24 25  1  0
 10 26  2  3
 26 27  1  0
 27 28  1  0
 28 29  2  0
 29 30  1  0
 30 31  2  0
 31 32  1  0
 32 33  2  0
 33 28  1  0
M  END
>  <Classification>  (461) 
0

>  <pchembl>  (461) 
4.07

>  <InChI_steorem>  (461) 
InChI=1S/C25H30N6O2/c1-4-15-14-31(2)21-12-18-16-7-5-6-8-19(16)28-24(18)20(11-17(15)23(21)25(32)33-3)29-30-22-13-26-9-10-27-22/h5-10,13,15,17,21,23,28H,4,11-12,14H2,1-3H3,(H,27,30)

>  <source>  (461) 
ChEMBL25

>  <source_id>  (461) 
25

>  <optional_reference>  (461) 
10.1016/j.ejmech.2017.01.044

>  <optional_origin>  (461) 
None

>  <target>  (461) 
MDR1

$$$$

     RDKit          2D

 31 33  0  0  0  0  0  0  0  0999 V2000
   12.9548   -6.6567    0.0000 C   0  0  0  0  0  0  0  0  0  0  0  0
   13.6039   -6.1457    0.0000 C   0  0  0  0  0  0  0  0  0  0  0  0
   14.8941   -5.7391    0.0000 C   0  0  0  0  0  0  0  0  0  0  0  0
   15.5217   -7.2654    0.0000 C   0  0  0  0  0  0  0  0  0  0  0  0
   16.0149   -6.6133    0.0000 C   0  0  0  0  0  0  0  0  0  0  0  0
   12.5384   -5.3796    0.0000 O   0  0  0  0  0  0  0  0  0  0  0  0
   11.4961   -6.4093    0.0000 C   0  0  0  0  0  0  0  0  0  0  0  0
   12.2904   -6.1544    0.0000 C   0  0  0  0  0  0  0  0  0  0  0  0
   14.4010   -6.3919    0.0000 C   0  0  0  0  0  0  0  0  0  0  0  0
   13.3600   -5.3812    0.0000 N   0  0  0  0  0  0  0  0  0  0  0  0
   14.7004   -7.1493    0.0000 C   0  0  0  0  0  0  0  0  0  0  0  0
   15.7112   -5.8558    0.0000 C   0  0  0  0  0  0  0  0  0  0  0  0
   11.4942   -9.5126    0.0000 C   0  0  0  0  0  0  0  0  0  0  0  0
   11.1966   -7.2198    0.0000 O   0  0  0  0  0  0  0  0  0  0  0  0
   12.2205   -8.2849    0.0000 C   0  0  0  0  0  0  0  0  0  0  0  0
   10.1437   -6.2581    0.0000 C   0  0  0  0  0  0  0  0  0  0  0  0
   10.3870   -7.0370    0.0000 C   0  0  0  0  0  0  0  0  0  0  0  0
   12.2080   -9.1061    0.0000 C   0  0  0  0  0  0  0  0  0  0  0  0
   15.7761   -7.8512    0.0000 C   0  0  0  0  0  0  0  0  0  0  0  0
   13.6335   -9.1253    0.0000 C   0  0  0  0  0  0  0  0  0  0  0  0
   16.5039   -8.2320    0.0000 C   0  0  0  0  0  0  0  0  0  0  0  0
   12.9356   -7.8865    0.0000 C   0  0  0  0  0  0  0  0  0  0  0  0
   15.0848   -8.2877    0.0000 O   0  0  0  0  0  0  0  0  0  0  0  0
   12.9145   -9.5277    0.0000 N   0  0  0  0  0  0  0  0  0  0  0  0
   14.3570   -7.9070    0.0000 C   0  0  0  0  0  0  0  0  0  0  0  0
   13.6420   -8.3053    0.0000 C   0  0  0  0  0  0  0  0  0  0  0  0
   14.3359   -9.5483    0.0000 C   0  0  0  0  0  0  0  0  0  0  0  0
   11.4371   -8.0032    0.0000 C   0  0  0  0  0  0  0  0  0  0  0  0
   10.8458   -8.5673    0.0000 O   0  0  0  0  0  0  0  0  0  0  0  0
   14.1399   -7.1112    0.0000 O   0  0  0  0  0  0  0  0  0  0  0  0
   16.8249   -6.7217    0.0000 Br  0  0  0  0  0  0  0  0  0  0  0  0
  9  3  2  0
  4 11  2  0
  8  7  1  0
  2  1  1  0
  6 10  1  0
  2  9  1  0
  3 12  1  0
  6  8  1  0
 12  5  2  0
  1  8  2  0
  9 11  1  0
  5  4  1  0
 10  2  2  0
 14 17  1  0
 15 28  1  0
 20 27  1  0
 26 25  1  0
 25 23  1  0
 19 21  1  0
 20 24  1  0
 23 19  1  0
 26 22  1  0
 28 14  1  0
 18 13  1  0
 22 15  1  0
 20 26  2  0
 18 24  1  0
 15 18  2  0
 17 16  1  0
 28 29  2  0
 22  1  1  0
 25 30  2  0
  5 31  1  0
M  END
>  <Classification>  (462) 
1

>  <pchembl>  (462) 
5.51

>  <InChI_steorem>  (462) 
InChI=1S/C23H25BrN2O5/c1-6-29-22(27)17-12(3)25-13(4)18(23(28)30-7-2)20(17)19-14(5)31-26-21(19)15-8-10-16(24)11-9-15/h8-11,20,25H,6-7H2,1-5H3

>  <source>  (462) 
ChEMBL25

>  <source_id>  (462) 
25

>  <optional_reference>  (462) 
10.1016/j.bmc.2017.04.008

>  <optional_origin>  (462) 
None

>  <target>  (462) 
MDR1

$$$$

     RDKit          2D

 28 30  0  0  0  0  0  0  0  0999 V2000
    6.9044   -4.2469    0.0000 N   0  0  0  0  0  0  0  0  0  0  0  0
    6.9044   -2.6125    0.0000 C   0  0  0  0  0  0  0  0  0  0  0  0
    7.6097   -3.0253    0.0000 C   0  0  0  0  0  0  0  0  0  0  0  0
    7.6081   -3.8406    0.0000 C   0  0  0  0  0  0  0  0  0  0  0  0
    8.3123   -4.2479    0.0000 C   0  0  0  0  0  0  0  0  0  0  0  0
    9.0186   -3.8410    0.0000 C   0  0  0  0  0  0  0  0  0  0  0  0
    9.0162   -3.0225    0.0000 C   0  0  0  0  0  0  0  0  0  0  0  0
    8.3114   -2.6189    0.0000 C   0  0  0  0  0  0  0  0  0  0  0  0
    6.1991   -3.8424    0.0000 C   0  0  0  0  0  0  0  0  0  0  0  0
    6.2016   -3.0271    0.0000 C   0  0  0  0  0  0  0  0  0  0  0  0
    5.4979   -2.6190    0.0000 C   0  0  0  0  0  0  0  0  0  0  0  0
    4.7911   -3.0251    0.0000 C   0  0  0  0  0  0  0  0  0  0  0  0
    4.7925   -3.8436    0.0000 C   0  0  0  0  0  0  0  0  0  0  0  0
    5.4969   -4.2480    0.0000 C   0  0  0  0  0  0  0  0  0  0  0  0
    6.9029   -1.7953    0.0000 O   0  0  0  0  0  0  0  0  0  0  0  0
    8.3116   -5.0651    0.0000 C   0  0  0  0  0  0  0  0  0  0  0  0
    9.7226   -2.6116    0.0000 C   0  0  0  0  0  0  0  0  0  0  0  0
    6.9056   -5.0641    0.0000 C   0  0  0  0  0  0  0  0  0  0  0  0
    6.1985   -5.4737    0.0000 C   0  0  0  0  0  0  0  0  0  0  0  0
    6.1996   -6.2909    0.0000 C   0  0  0  0  0  0  0  0  0  0  0  0
    5.4925   -6.7006    0.0000 C   0  0  0  0  0  0  0  0  0  0  0  0
    4.7842   -6.2930    0.0000 N   0  0  0  0  0  0  0  0  0  0  0  0
    4.7858   -5.4782    0.0000 C   0  0  0  0  0  0  0  0  0  0  0  0
    4.0816   -5.0708    0.0000 C   0  0  0  0  0  0  0  0  0  0  0  0
    3.3713   -6.2950    0.0000 C   0  0  0  0  0  0  0  0  0  0  0  0
    4.0801   -6.7070    0.0000 C   0  0  0  0  0  0  0  0  0  0  0  0
    4.0824   -4.2536    0.0000 O   0  0  0  0  0  0  0  0  0  0  0  0
    2.6624   -6.7015    0.0000 O   0  0  0  0  0  0  0  0  0  0  0  0
 10  2  1  0
  9  1  1  0
  1  4  1  0
  3  2  1  0
  3  4  2  0
  4  5  1  0
  5  6  2  0
  6  7  1  0
  7  8  2  0
  8  3  1  0
  9 10  2  0
 10 11  1  0
 11 12  2  0
 12 13  1  0
 13 14  2  0
 14  9  1  0
  2 15  2  0
  5 16  1  0
  7 17  1  0
  1 18  1  0
 18 19  1  0
 19 20  1  0
 20 21  1  0
 21 22  1  0
 22 23  1  0
 22 26  1  0
 23 24  1  0
 25 26  1  0
 24 27  1  0
 25 28  1  0
M  END
>  <Classification>  (463) 
1

>  <pchembl>  (463) 
8.51

>  <InChI_steorem>  (463) 
InChI=1S/C23H30N2O3/c1-17-15-18(2)22-20(16-17)23(28)19-7-3-4-8-21(19)25(22)10-6-5-9-24(11-13-26)12-14-27/h3-4,7-8,15-16,26-27H,5-6,9-14H2,1-2H3

>  <source>  (463) 
ChEMBL25

>  <source_id>  (463) 
25

>  <optional_reference>  (463) 
10.1016/j.ejmech.2017.02.022

>  <optional_origin>  (463) 
None

>  <target>  (463) 
MDR1

$$$$

     RDKit          2D

 42 46  0  0  0  0  0  0  0  0999 V2000
   10.0458  -28.1714    0.0000 C   0  0  0  0  0  0  0  0  0  0  0  0
   10.0447  -28.9992    0.0000 C   0  0  0  0  0  0  0  0  0  0  0  0
   10.7606  -29.4103    0.0000 C   0  0  0  0  0  0  0  0  0  0  0  0
   11.4779  -28.9988    0.0000 C   0  0  0  0  0  0  0  0  0  0  0  0
   11.4751  -28.1678    0.0000 C   0  0  0  0  0  0  0  0  0  0  0  0
   10.7588  -27.7563    0.0000 C   0  0  0  0  0  0  0  0  0  0  0  0
   12.1941  -29.4083    0.0000 C   0  0  0  0  0  0  0  0  0  0  0  0
   12.1954  -30.2339    0.0000 O   0  0  0  0  0  0  0  0  0  0  0  0
   12.9048  -28.9965    0.0000 N   0  0  0  0  0  0  0  0  0  0  0  0
   13.6209  -29.4061    0.0000 C   0  0  0  0  0  0  0  0  0  0  0  0
   12.1890  -27.7503    0.0000 O   0  0  0  0  0  0  0  0  0  0  0  0
   12.9020  -28.1624    0.0000 C   0  0  0  0  0  0  0  0  0  0  0  0
   13.6158  -27.7449    0.0000 C   0  0  0  0  0  0  0  0  0  0  0  0
   14.3690  -28.0832    0.0000 C   0  0  0  0  0  0  0  0  0  0  0  0
   14.9205  -27.4666    0.0000 N   0  0  0  0  0  0  0  0  0  0  0  0
   14.5030  -26.7527    0.0000 N   0  0  0  0  0  0  0  0  0  0  0  0
   13.6961  -26.9266    0.0000 N   0  0  0  0  0  0  0  0  0  0  0  0
   15.7429  -27.4662    0.0000 C   0  0  0  0  0  0  0  0  0  0  0  0
   16.1532  -26.7505    0.0000 C   0  0  0  0  0  0  0  0  0  0  0  0
   16.9788  -26.7501    0.0000 N   0  0  0  0  0  0  0  0  0  0  0  0
   17.3906  -27.4716    0.0000 C   0  0  0  0  0  0  0  0  0  0  0  0
   18.2126  -27.4731    0.0000 C   0  0  0  0  0  0  0  0  0  0  0  0
   17.3887  -26.0390    0.0000 C   0  0  0  0  0  0  0  0  0  0  0  0
   18.2169  -26.0423    0.0000 C   0  0  0  0  0  0  0  0  0  0  0  0
   18.6238  -26.7607    0.0000 C   0  0  0  0  0  0  0  0  0  0  0  0
   19.4483  -26.7645    0.0000 C   0  0  0  0  0  0  0  0  0  0  0  0
   19.8667  -26.0505    0.0000 C   0  0  0  0  0  0  0  0  0  0  0  0
   19.4506  -25.3312    0.0000 C   0  0  0  0  0  0  0  0  0  0  0  0
   18.6275  -25.3310    0.0000 C   0  0  0  0  0  0  0  0  0  0  0  0
   19.8658  -24.6160    0.0000 O   0  0  0  0  0  0  0  0  0  0  0  0
   20.6922  -26.0528    0.0000 O   0  0  0  0  0  0  0  0  0  0  0  0
   21.1009  -26.7695    0.0000 C   0  0  0  0  0  0  0  0  0  0  0  0
   20.6913  -24.6165    0.0000 C   0  0  0  0  0  0  0  0  0  0  0  0
   13.6175  -30.2301    0.0000 C   0  0  0  0  0  0  0  0  0  0  0  0
   14.3329  -30.6437    0.0000 C   0  0  0  0  0  0  0  0  0  0  0  0
   15.0486  -30.2277    0.0000 C   0  0  0  0  0  0  0  0  0  0  0  0
   15.0447  -29.3979    0.0000 C   0  0  0  0  0  0  0  0  0  0  0  0
   14.3288  -28.9922    0.0000 C   0  0  0  0  0  0  0  0  0  0  0  0
   15.7615  -30.6356    0.0000 C   0  0  0  0  0  0  0  0  0  0  0  0
   16.4712  -30.2223    0.0000 C   0  0  0  0  0  0  0  0  0  0  0  0
   17.1842  -30.6303    0.0000 C   0  0  0  0  0  0  0  0  0  0  0  0
   17.8939  -30.2169    0.0000 C   0  0  0  0  0  0  0  0  0  0  0  0
  1  2  2  0
  2  3  1  0
  3  4  2  0
  4  5  1  0
  5  6  2  0
  6  1  1  0
  4  7  1  0
  7  8  2  0
  7  9  1  0
  9 10  1  0
  5 11  1  0
 11 12  1  0
 12 13  1  0
 13 14  2  0
 14 15  1  0
 15 16  1  0
 16 17  2  0
 17 13  1  0
 15 18  1  0
 18 19  1  0
 19 20  1  0
 20 21  1  0
 20 23  1  0
 21 22  1  0
 22 25  1  0
 24 23  1  0
 24 25  2  0
 25 26  1  0
 26 27  2  0
 27 28  1  0
 28 29  2  0
 29 24  1  0
 28 30  1  0
 27 31  1  0
 31 32  1  0
 30 33  1  0
 10 34  2  0
 34 35  1  0
 35 36  2  0
 36 37  1  0
 37 38  2  0
 38 10  1  0
 36 39  1  0
 39 40  1  0
 40 41  1  0
 41 42  1  0
M  END
>  <Classification>  (464) 
1

>  <pchembl>  (464) 
5.2

>  <InChI_steorem>  (464) 
InChI=1S/C33H39N5O4/c1-4-5-8-24-11-13-27(14-12-24)34-33(39)29-9-6-7-10-30(29)42-23-28-22-38(36-35-28)18-17-37-16-15-25-19-31(40-2)32(41-3)20-26(25)21-37/h6-7,9-14,19-20,22H,4-5,8,15-18,21,23H2,1-3H3,(H,34,39)

>  <source>  (464) 
ChEMBL25

>  <source_id>  (464) 
25

>  <optional_reference>  (464) 
10.1016/j.bmc.2017.06.015

>  <optional_origin>  (464) 
None

>  <target>  (464) 
MDR1

$$$$

     RDKit          2D

 42 46  0  0  0  0  0  0  0  0999 V2000
   33.8666   -5.1961    0.0000 C   0  0  0  0  0  0  0  0  0  0  0  0
   33.8655   -6.0198    0.0000 C   0  0  0  0  0  0  0  0  0  0  0  0
   34.5776   -6.4288    0.0000 C   0  0  0  0  0  0  0  0  0  0  0  0
   35.2914   -6.0193    0.0000 C   0  0  0  0  0  0  0  0  0  0  0  0
   35.2886   -5.1925    0.0000 C   0  0  0  0  0  0  0  0  0  0  0  0
   34.5759   -4.7832    0.0000 C   0  0  0  0  0  0  0  0  0  0  0  0
   36.0039   -6.4268    0.0000 C   0  0  0  0  0  0  0  0  0  0  0  0
   36.0052   -7.2481    0.0000 O   0  0  0  0  0  0  0  0  0  0  0  0
   36.7110   -6.0171    0.0000 N   0  0  0  0  0  0  0  0  0  0  0  0
   37.4235   -6.4246    0.0000 C   0  0  0  0  0  0  0  0  0  0  0  0
   35.9989   -4.7772    0.0000 O   0  0  0  0  0  0  0  0  0  0  0  0
   36.7081   -5.1872    0.0000 C   0  0  0  0  0  0  0  0  0  0  0  0
   37.4184   -4.7718    0.0000 C   0  0  0  0  0  0  0  0  0  0  0  0
   38.1678   -5.1085    0.0000 C   0  0  0  0  0  0  0  0  0  0  0  0
   38.7165   -4.4950    0.0000 N   0  0  0  0  0  0  0  0  0  0  0  0
   38.3010   -3.7846    0.0000 N   0  0  0  0  0  0  0  0  0  0  0  0
   37.4983   -3.9577    0.0000 N   0  0  0  0  0  0  0  0  0  0  0  0
   39.5347   -4.4946    0.0000 C   0  0  0  0  0  0  0  0  0  0  0  0
   39.9429   -3.7825    0.0000 C   0  0  0  0  0  0  0  0  0  0  0  0
   40.7643   -3.7821    0.0000 N   0  0  0  0  0  0  0  0  0  0  0  0
   41.1740   -4.5000    0.0000 C   0  0  0  0  0  0  0  0  0  0  0  0
   41.9918   -4.5015    0.0000 C   0  0  0  0  0  0  0  0  0  0  0  0
   41.1721   -3.0747    0.0000 C   0  0  0  0  0  0  0  0  0  0  0  0
   41.9960   -3.0779    0.0000 C   0  0  0  0  0  0  0  0  0  0  0  0
   42.4009   -3.7927    0.0000 C   0  0  0  0  0  0  0  0  0  0  0  0
   43.2211   -3.7964    0.0000 C   0  0  0  0  0  0  0  0  0  0  0  0
   43.6375   -3.0861    0.0000 C   0  0  0  0  0  0  0  0  0  0  0  0
   43.2235   -2.3705    0.0000 C   0  0  0  0  0  0  0  0  0  0  0  0
   42.4046   -2.3702    0.0000 C   0  0  0  0  0  0  0  0  0  0  0  0
   43.6366   -1.6589    0.0000 O   0  0  0  0  0  0  0  0  0  0  0  0
   44.4588   -3.0884    0.0000 O   0  0  0  0  0  0  0  0  0  0  0  0
   44.8654   -3.8013    0.0000 C   0  0  0  0  0  0  0  0  0  0  0  0
   44.4579   -1.6594    0.0000 C   0  0  0  0  0  0  0  0  0  0  0  0
   37.4201   -7.2444    0.0000 C   0  0  0  0  0  0  0  0  0  0  0  0
   38.1318   -7.6559    0.0000 C   0  0  0  0  0  0  0  0  0  0  0  0
   38.8439   -7.2420    0.0000 C   0  0  0  0  0  0  0  0  0  0  0  0
   38.8400   -6.4165    0.0000 C   0  0  0  0  0  0  0  0  0  0  0  0
   38.1278   -6.0128    0.0000 C   0  0  0  0  0  0  0  0  0  0  0  0
   39.5451   -6.0034    0.0000 O   0  0  0  0  0  0  0  0  0  0  0  0
   39.5532   -7.6479    0.0000 O   0  0  0  0  0  0  0  0  0  0  0  0
   40.2554   -6.4075    0.0000 C   0  0  0  0  0  0  0  0  0  0  0  0
   39.5563   -8.4651    0.0000 C   0  0  0  0  0  0  0  0  0  0  0  0
  1  2  2  0
  2  3  1  0
  3  4  2  0
  4  5  1  0
  5  6  2  0
  6  1  1  0
  4  7  1  0
  7  8  2  0
  7  9  1  0
  9 10  1  0
  5 11  1  0
 11 12  1  0
 12 13  1  0
 13 14  2  0
 14 15  1  0
 15 16  1  0
 16 17  2  0
 17 13  1  0
 15 18  1  0
 18 19  1  0
 19 20  1  0
 20 21  1  0
 20 23  1  0
 21 22  1  0
 22 25  1  0
 24 23  1  0
 24 25  2  0
 25 26  1  0
 26 27  2  0
 27 28  1  0
 28 29  2  0
 29 24  1  0
 28 30  1  0
 27 31  1  0
 31 32  1  0
 30 33  1  0
 10 34  2  0
 34 35  1  0
 35 36  2  0
 36 37  1  0
 37 38  2  0
 38 10  1  0
 37 39  1  0
 36 40  1  0
 39 41  1  0
 40 42  1  0
M  END
>  <Classification>  (465) 
1

>  <pchembl>  (465) 
5.11

>  <InChI_steorem>  (465) 
InChI=1S/C31H35N5O6/c1-38-27-10-9-23(17-30(27)41-4)32-31(37)25-7-5-6-8-26(25)42-20-24-19-36(34-33-24)14-13-35-12-11-21-15-28(39-2)29(40-3)16-22(21)18-35/h5-10,15-17,19H,11-14,18,20H2,1-4H3,(H,32,37)

>  <source>  (465) 
ChEMBL25

>  <source_id>  (465) 
25

>  <optional_reference>  (465) 
10.1016/j.bmc.2017.06.015

>  <optional_origin>  (465) 
None

>  <target>  (465) 
MDR1

$$$$

     RDKit          2D

 27 30  0  0  0  0  0  0  0  0999 V2000
   33.6901   -3.5824    0.0000 N   0  0  0  0  0  0  0  0  0  0  0  0
   33.6901   -1.9481    0.0000 C   0  0  0  0  0  0  0  0  0  0  0  0
   34.3954   -2.3608    0.0000 C   0  0  0  0  0  0  0  0  0  0  0  0
   34.3938   -3.1762    0.0000 C   0  0  0  0  0  0  0  0  0  0  0  0
   35.0980   -3.5834    0.0000 C   0  0  0  0  0  0  0  0  0  0  0  0
   35.8043   -3.1765    0.0000 C   0  0  0  0  0  0  0  0  0  0  0  0
   35.8019   -2.3580    0.0000 C   0  0  0  0  0  0  0  0  0  0  0  0
   35.0971   -1.9544    0.0000 C   0  0  0  0  0  0  0  0  0  0  0  0
   32.9848   -3.1780    0.0000 C   0  0  0  0  0  0  0  0  0  0  0  0
   32.9874   -2.3626    0.0000 C   0  0  0  0  0  0  0  0  0  0  0  0
   32.2836   -1.9545    0.0000 C   0  0  0  0  0  0  0  0  0  0  0  0
   31.5768   -2.3606    0.0000 C   0  0  0  0  0  0  0  0  0  0  0  0
   31.5782   -3.1791    0.0000 C   0  0  0  0  0  0  0  0  0  0  0  0
   32.2826   -3.5835    0.0000 C   0  0  0  0  0  0  0  0  0  0  0  0
   33.6887   -1.1309    0.0000 O   0  0  0  0  0  0  0  0  0  0  0  0
   35.0973   -4.4006    0.0000 C   0  0  0  0  0  0  0  0  0  0  0  0
   36.5083   -1.9471    0.0000 C   0  0  0  0  0  0  0  0  0  0  0  0
   33.6913   -4.3996    0.0000 C   0  0  0  0  0  0  0  0  0  0  0  0
   32.9842   -4.8093    0.0000 C   0  0  0  0  0  0  0  0  0  0  0  0
   32.9854   -5.6264    0.0000 C   0  0  0  0  0  0  0  0  0  0  0  0
   32.2782   -6.0361    0.0000 C   0  0  0  0  0  0  0  0  0  0  0  0
   31.5699   -5.6285    0.0000 N   0  0  0  0  0  0  0  0  0  0  0  0
   31.5716   -4.8137    0.0000 C   0  0  0  0  0  0  0  0  0  0  0  0
   30.8673   -4.4063    0.0000 C   0  0  0  0  0  0  0  0  0  0  0  0
   30.1578   -4.8124    0.0000 C   0  0  0  0  0  0  0  0  0  0  0  0
   30.1570   -5.6306    0.0000 C   0  0  0  0  0  0  0  0  0  0  0  0
   30.8658   -6.0426    0.0000 C   0  0  0  0  0  0  0  0  0  0  0  0
 10  2  1  0
  9  1  1  0
  1  4  1  0
  3  2  1  0
  3  4  2  0
  4  5  1  0
  5  6  2  0
  6  7  1  0
  7  8  2  0
  8  3  1  0
  9 10  2  0
 10 11  1  0
 11 12  2  0
 12 13  1  0
 13 14  2  0
 14  9  1  0
  2 15  2  0
  5 16  1  0
  7 17  1  0
  1 18  1  0
 18 19  1  0
 19 20  1  0
 20 21  1  0
 21 22  1  0
 22 23  1  0
 22 27  1  0
 23 24  1  0
 24 25  1  0
 25 26  1  0
 26 27  1  0
M  END
>  <Classification>  (466) 
1

>  <pchembl>  (466) 
8.3

>  <InChI_steorem>  (466) 
InChI=1S/C24H30N2O/c1-18-16-19(2)23-21(17-18)24(27)20-10-4-5-11-22(20)26(23)15-9-8-14-25-12-6-3-7-13-25/h4-5,10-11,16-17H,3,6-9,12-15H2,1-2H3

>  <source>  (466) 
ChEMBL25

>  <source_id>  (466) 
25

>  <optional_reference>  (466) 
10.1016/j.ejmech.2017.02.022

>  <optional_origin>  (466) 
None

>  <target>  (466) 
MDR1

$$$$

     RDKit          2D

 25 28  0  0  0  0  0  0  0  0999 V2000
   29.8632   -3.8919    0.0000 C   0  0  0  0  0  0  0  0  0  0  0  0
   29.8621   -4.7115    0.0000 C   0  0  0  0  0  0  0  0  0  0  0  0
   30.5701   -5.1204    0.0000 C   0  0  0  0  0  0  0  0  0  0  0  0
   30.5683   -3.4831    0.0000 C   0  0  0  0  0  0  0  0  0  0  0  0
   31.2769   -3.8883    0.0000 C   0  0  0  0  0  0  0  0  0  0  0  0
   31.2777   -4.7074    0.0000 C   0  0  0  0  0  0  0  0  0  0  0  0
   31.9862   -5.1144    0.0000 N   0  0  0  0  0  0  0  0  0  0  0  0
   32.6945   -4.7036    0.0000 C   0  0  0  0  0  0  0  0  0  0  0  0
   32.6898   -3.8815    0.0000 N   0  0  0  0  0  0  0  0  0  0  0  0
   31.9807   -3.4781    0.0000 C   0  0  0  0  0  0  0  0  0  0  0  0
   31.9763   -2.6609    0.0000 N   0  0  0  0  0  0  0  0  0  0  0  0
   32.6819   -2.2486    0.0000 C   0  0  0  0  0  0  0  0  0  0  0  0
   33.3871   -2.6568    0.0000 C   0  0  0  0  0  0  0  0  0  0  0  0
   34.0922   -2.2451    0.0000 C   0  0  0  0  0  0  0  0  0  0  0  0
   34.0883   -1.4271    0.0000 C   0  0  0  0  0  0  0  0  0  0  0  0
   33.3735   -1.0224    0.0000 C   0  0  0  0  0  0  0  0  0  0  0  0
   32.6713   -1.4364    0.0000 C   0  0  0  0  0  0  0  0  0  0  0  0
   33.4002   -5.1054    0.0000 C   0  0  0  0  0  0  0  0  0  0  0  0
   33.4021   -5.9237    0.0000 C   0  0  0  0  0  0  0  0  0  0  0  0
   34.1105   -6.3294    0.0000 N   0  0  0  0  0  0  0  0  0  0  0  0
   34.8176   -5.9180    0.0000 C   0  0  0  0  0  0  0  0  0  0  0  0
   34.8118   -5.0966    0.0000 C   0  0  0  0  0  0  0  0  0  0  0  0
   34.1028   -4.6946    0.0000 C   0  0  0  0  0  0  0  0  0  0  0  0
   33.3662   -0.2053    0.0000 O   0  0  0  0  0  0  0  0  0  0  0  0
   34.0703    0.2095    0.0000 C   0  0  0  0  0  0  0  0  0  0  0  0
  1  2  2  0
  2  3  1  0
  3  6  2  0
  5  4  2  0
  4  1  1  0
  5  6  1  0
  6  7  1  0
  7  8  2  0
  8  9  1  0
  9 10  2  0
 10  5  1  0
 10 11  1  0
 11 12  1  0
 12 13  2  0
 13 14  1  0
 14 15  2  0
 15 16  1  0
 16 17  2  0
 17 12  1  0
 18 19  2  0
 19 20  1  0
 20 21  2  0
 21 22  1  0
 22 23  2  0
 23 18  1  0
  8 18  1  0
 16 24  1  0
 24 25  1  0
M  END
>  <Classification>  (467) 
1

>  <pchembl>  (467) 
5.32

>  <InChI_steorem>  (467) 
InChI=1S/C20H16N4O/c1-25-16-8-4-7-15(12-16)22-20-17-9-2-3-10-18(17)23-19(24-20)14-6-5-11-21-13-14/h2-13H,1H3,(H,22,23,24)

>  <source>  (467) 
ChEMBL25

>  <source_id>  (467) 
25

>  <optional_reference>  (467) 
10.1021/acs.jmedchem.7b00441

>  <optional_origin>  (467) 
None

>  <target>  (467) 
MDR1

$$$$

     RDKit          2D

 40 44  0  0  0  0  0  0  0  0999 V2000
   21.6954  -13.2731    0.0000 C   0  0  0  0  0  0  0  0  0  0  0  0
   21.6943  -14.0968    0.0000 C   0  0  0  0  0  0  0  0  0  0  0  0
   22.4065  -14.5058    0.0000 C   0  0  0  0  0  0  0  0  0  0  0  0
   23.1202  -14.0963    0.0000 C   0  0  0  0  0  0  0  0  0  0  0  0
   23.1174  -13.2695    0.0000 C   0  0  0  0  0  0  0  0  0  0  0  0
   22.4047  -12.8601    0.0000 C   0  0  0  0  0  0  0  0  0  0  0  0
   23.8327  -14.5038    0.0000 C   0  0  0  0  0  0  0  0  0  0  0  0
   23.8340  -15.3251    0.0000 O   0  0  0  0  0  0  0  0  0  0  0  0
   24.5398  -14.0941    0.0000 N   0  0  0  0  0  0  0  0  0  0  0  0
   25.2523  -14.5016    0.0000 C   0  0  0  0  0  0  0  0  0  0  0  0
   23.8277  -12.8541    0.0000 O   0  0  0  0  0  0  0  0  0  0  0  0
   24.5369  -13.2642    0.0000 C   0  0  0  0  0  0  0  0  0  0  0  0
   25.2472  -12.8488    0.0000 C   0  0  0  0  0  0  0  0  0  0  0  0
   25.9966  -13.1855    0.0000 C   0  0  0  0  0  0  0  0  0  0  0  0
   26.5453  -12.5720    0.0000 N   0  0  0  0  0  0  0  0  0  0  0  0
   26.1299  -11.8616    0.0000 N   0  0  0  0  0  0  0  0  0  0  0  0
   25.3271  -12.0347    0.0000 N   0  0  0  0  0  0  0  0  0  0  0  0
   27.3635  -12.5715    0.0000 C   0  0  0  0  0  0  0  0  0  0  0  0
   27.7717  -11.8595    0.0000 C   0  0  0  0  0  0  0  0  0  0  0  0
   28.5931  -11.8590    0.0000 N   0  0  0  0  0  0  0  0  0  0  0  0
   29.0028  -12.5770    0.0000 C   0  0  0  0  0  0  0  0  0  0  0  0
   29.8206  -12.5785    0.0000 C   0  0  0  0  0  0  0  0  0  0  0  0
   29.0009  -11.1517    0.0000 C   0  0  0  0  0  0  0  0  0  0  0  0
   29.8248  -11.1548    0.0000 C   0  0  0  0  0  0  0  0  0  0  0  0
   30.2297  -11.8697    0.0000 C   0  0  0  0  0  0  0  0  0  0  0  0
   31.0499  -11.8734    0.0000 C   0  0  0  0  0  0  0  0  0  0  0  0
   31.4663  -11.1630    0.0000 C   0  0  0  0  0  0  0  0  0  0  0  0
   31.0523  -10.4474    0.0000 C   0  0  0  0  0  0  0  0  0  0  0  0
   30.2334  -10.4472    0.0000 C   0  0  0  0  0  0  0  0  0  0  0  0
   31.4654   -9.7359    0.0000 O   0  0  0  0  0  0  0  0  0  0  0  0
   32.2876  -11.1653    0.0000 O   0  0  0  0  0  0  0  0  0  0  0  0
   32.6942  -11.8783    0.0000 C   0  0  0  0  0  0  0  0  0  0  0  0
   32.2867   -9.7364    0.0000 C   0  0  0  0  0  0  0  0  0  0  0  0
   25.2489  -15.3213    0.0000 C   0  0  0  0  0  0  0  0  0  0  0  0
   25.9606  -15.7329    0.0000 C   0  0  0  0  0  0  0  0  0  0  0  0
   26.6727  -15.3190    0.0000 C   0  0  0  0  0  0  0  0  0  0  0  0
   26.6688  -14.4935    0.0000 C   0  0  0  0  0  0  0  0  0  0  0  0
   25.9566  -14.0897    0.0000 C   0  0  0  0  0  0  0  0  0  0  0  0
   25.9614  -16.5501    0.0000 O   0  0  0  0  0  0  0  0  0  0  0  0
   25.2542  -16.9594    0.0000 C   0  0  0  0  0  0  0  0  0  0  0  0
  1  2  2  0
  2  3  1  0
  3  4  2  0
  4  5  1  0
  5  6  2  0
  6  1  1  0
  4  7  1  0
  7  8  2  0
  7  9  1  0
  9 10  1  0
  5 11  1  0
 11 12  1  0
 12 13  1  0
 13 14  2  0
 14 15  1  0
 15 16  1  0
 16 17  2  0
 17 13  1  0
 15 18  1  0
 18 19  1  0
 19 20  1  0
 20 21  1  0
 20 23  1  0
 21 22  1  0
 22 25  1  0
 24 23  1  0
 24 25  2  0
 25 26  1  0
 26 27  2  0
 27 28  1  0
 28 29  2  0
 29 24  1  0
 28 30  1  0
 27 31  1  0
 31 32  1  0
 30 33  1  0
 10 34  2  0
 34 35  1  0
 35 36  2  0
 36 37  1  0
 37 38  2  0
 38 10  1  0
 35 39  1  0
 39 40  1  0
M  END
>  <Classification>  (468) 
1

>  <pchembl>  (468) 
5.06

>  <InChI_steorem>  (468) 
InChI=1S/C30H33N5O5/c1-37-25-8-6-7-23(17-25)31-30(36)26-9-4-5-10-27(26)40-20-24-19-35(33-32-24)14-13-34-12-11-21-15-28(38-2)29(39-3)16-22(21)18-34/h4-10,15-17,19H,11-14,18,20H2,1-3H3,(H,31,36)

>  <source>  (468) 
ChEMBL25

>  <source_id>  (468) 
25

>  <optional_reference>  (468) 
10.1016/j.bmc.2017.06.015

>  <optional_origin>  (468) 
None

>  <target>  (468) 
MDR1

$$$$

     RDKit          2D

 87 94  0  0  0  0  0  0  0  0999 V2000
   10.6384   -4.1341    0.0000 N   0  0  0  0  0  0  0  0  0  0  0  0
   10.0098   -3.6331    0.0000 O   0  0  0  0  0  0  0  0  0  0  0  0
    9.5545   -4.8908    0.0000 C   0  0  0  0  0  0  0  0  0  0  0  0
    9.3322   -4.0705    0.0000 C   0  0  0  0  0  0  0  0  0  0  0  0
   11.0473   -6.1544    0.0000 C   0  0  0  0  0  0  0  0  0  0  0  0
   12.4919   -6.1862    0.0000 C   0  0  0  0  0  0  0  0  0  0  0  0
   10.3586   -4.8909    0.0000 C   0  0  0  0  0  0  0  0  0  0  0  0
   11.0697   -5.3236    0.0000 C   0  0  0  0  0  0  0  0  0  0  0  0
   11.7951   -4.9237    0.0000 C   0  0  0  0  0  0  0  0  0  0  0  0
   11.7612   -6.5912    0.0000 C   0  0  0  0  0  0  0  0  0  0  0  0
   12.5101   -5.3503    0.0000 C   0  0  0  0  0  0  0  0  0  0  0  0
    8.5732   -3.7868    0.0000 C   0  0  0  0  0  0  0  0  0  0  0  0
   15.7892  -10.4404    0.0000 C   0  0  0  0  0  0  0  0  0  0  0  0
   24.8173  -10.1512    0.0000 C   0  0  0  0  0  0  0  0  0  0  0  0
   24.4389   -9.4370    0.0000 N   0  0  0  0  0  0  0  0  0  0  0  0
    8.8720   -5.7751    0.0000 C   0  0  0  0  0  0  0  0  0  0  0  0
   19.3146  -10.1864    0.0000 O   0  0  0  0  0  0  0  0  0  0  0  0
   29.4730  -12.3085    0.0000 O   0  0  0  0  0  0  0  0  0  0  0  0
   23.6384   -9.5701    0.0000 N   0  0  0  0  0  0  0  0  0  0  0  0
    8.0691   -5.6516    0.0000 C   0  0  0  0  0  0  0  0  0  0  0  0
   17.9123  -10.1241    0.0000 C   0  0  0  0  0  0  0  0  0  0  0  0
    6.9748   -4.7761    0.0000 O   0  0  0  0  0  0  0  0  0  0  0  0
    6.7678   -6.1674    0.0000 C   0  0  0  0  0  0  0  0  0  0  0  0
   10.1369  -10.0949    0.0000 N   0  0  0  0  0  0  0  0  0  0  0  0
    8.6666   -7.1598    0.0000 C   0  0  0  0  0  0  0  0  0  0  0  0
   10.4737   -6.0154    0.0000 O   0  0  0  0  0  0  0  0  0  0  0  0
   27.0283  -11.9353    0.0000 C   0  0  0  0  0  0  0  0  0  0  0  0
   12.2978   -9.8659    0.0000 C   0  0  0  0  0  0  0  0  0  0  0  0
    9.7634   -8.0354    0.0000 C   0  0  0  0  0  0  0  0  0  0  0  0
    7.8513   -7.0644    0.0000 N   0  0  0  0  0  0  0  0  0  0  0  0
   10.8930   -9.8036    0.0000 N   0  0  0  0  0  0  0  0  0  0  0  0
    5.8721   -3.9071    0.0000 C   0  0  0  0  0  0  0  0  0  0  0  0
    9.9705   -6.6482    0.0000 C   0  0  0  0  0  0  0  0  0  0  0  0
   25.9096  -11.0418    0.0000 O   0  0  0  0  0  0  0  0  0  0  0  0
    7.7778   -4.8995    0.0000 C   0  0  0  0  0  0  0  0  0  0  0  0
    9.1699   -6.5270    0.0000 C   0  0  0  0  0  0  0  0  0  0  0  0
   18.5920  -10.5565    0.0000 C   0  0  0  0  0  0  0  0  0  0  0  0
   26.7242  -11.1682    0.0000 C   0  0  0  0  0  0  0  0  0  0  0  0
   25.6135  -10.2748    0.0000 C   0  0  0  0  0  0  0  0  0  0  0  0
   15.1051   -9.9974    0.0000 O   0  0  0  0  0  0  0  0  0  0  0  0
   28.1420  -12.8265    0.0000 C   0  0  0  0  0  0  0  0  0  0  0  0
   26.8064  -13.3401    0.0000 N   0  0  0  0  0  0  0  0  0  0  0  0
    9.6183   -9.4754    0.0000 N   0  0  0  0  0  0  0  0  0  0  0  0
   26.5138  -12.5716    0.0000 C   0  0  0  0  0  0  0  0  0  0  0  0
   13.6988   -9.9416    0.0000 C   0  0  0  0  0  0  0  0  0  0  0  0
   22.7988  -10.7473    0.0000 C   0  0  0  0  0  0  0  0  0  0  0  0
   25.6995  -12.4472    0.0000 C   0  0  0  0  0  0  0  0  0  0  0  0
   30.0636  -13.8446    0.0000 C   0  0  0  0  0  0  0  0  0  0  0  0
   21.3966  -10.6809    0.0000 O   0  0  0  0  0  0  0  0  0  0  0  0
   20.7169  -10.2485    0.0000 C   0  0  0  0  0  0  0  0  0  0  0  0
    6.6834   -4.0241    0.0000 C   0  0  0  0  0  0  0  0  0  0  0  0
   19.9984  -10.6188    0.0000 C   0  0  0  0  0  0  0  0  0  0  0  0
   12.9847  -10.3137    0.0000 O   0  0  0  0  0  0  0  0  0  0  0  0
   10.8445   -8.9901    0.0000 C   0  0  0  0  0  0  0  0  0  0  0  0
    8.2785   -4.2644    0.0000 O   0  0  0  0  0  0  0  0  0  0  0  0
   17.1936  -10.4985    0.0000 O   0  0  0  0  0  0  0  0  0  0  0  0
   11.5769  -10.2400    0.0000 C   0  0  0  0  0  0  0  0  0  0  0  0
   30.3650  -14.6128    0.0000 C   0  0  0  0  0  0  0  0  0  0  0  0
   16.5098  -10.0661    0.0000 C   0  0  0  0  0  0  0  0  0  0  0  0
   27.9179  -14.2349    0.0000 C   0  0  0  0  0  0  0  0  0  0  0  0
   27.6209  -13.4667    0.0000 C   0  0  0  0  0  0  0  0  0  0  0  0
   29.2493  -13.7238    0.0000 O   0  0  0  0  0  0  0  0  0  0  0  0
   10.2684   -7.4002    0.0000 O   0  0  0  0  0  0  0  0  0  0  0  0
   24.2500  -10.7301    0.0000 C   0  0  0  0  0  0  0  0  0  0  0  0
   22.1192  -10.3108    0.0000 C   0  0  0  0  0  0  0  0  0  0  0  0
   27.2431  -10.5194    0.0000 O   0  0  0  0  0  0  0  0  0  0  0  0
    7.5640   -6.2951    0.0000 C   0  0  0  0  0  0  0  0  0  0  0  0
   27.8445  -12.0557    0.0000 C   0  0  0  0  0  0  0  0  0  0  0  0
   10.0590   -8.7957    0.0000 C   0  0  0  0  0  0  0  0  0  0  0  0
   23.5174  -10.3730    0.0000 N   0  0  0  0  0  0  0  0  0  0  0  0
   28.9561  -12.9516    0.0000 C   0  0  0  0  0  0  0  0  0  0  0  0
   14.3891  -10.3782    0.0000 C   0  0  0  0  0  0  0  0  0  0  0  0
    8.9604   -7.9160    0.0000 C   0  0  0  0  0  0  0  0  0  0  0  0
   28.6272  -11.0460    0.0000 C   0  0  0  0  0  0  0  0  0  0  0  0
   29.4473  -11.0805    0.0000 C   0  0  0  0  0  0  0  0  0  0  0  0
   28.0372   -8.8615    0.0000 C   0  0  0  0  0  0  0  0  0  0  0  0
   28.4101  -10.2483    0.0000 C   0  0  0  0  0  0  0  0  0  0  0  0
   26.4338   -9.2972    0.0000 C   0  0  0  0  0  0  0  0  0  0  0  0
   27.8169   -9.6649    0.0000 C   0  0  0  0  0  0  0  0  0  0  0  0
   26.6455   -8.4895    0.0000 C   0  0  0  0  0  0  0  0  0  0  0  0
   30.0230  -11.5971    0.0000 C   0  0  0  0  0  0  0  0  0  0  0  0
   27.0195   -9.8810    0.0000 C   0  0  0  0  0  0  0  0  0  0  0  0
   29.7418  -10.3098    0.0000 O   0  0  0  0  0  0  0  0  0  0  0  0
   29.0962   -9.7959    0.0000 N   0  0  0  0  0  0  0  0  0  0  0  0
   27.4488   -8.2742    0.0000 C   0  0  0  0  0  0  0  0  0  0  0  0
   11.8090   -4.1066    0.0000 Br  0  0  0  0  0  0  0  0  0  0  0  0
   28.8271   -8.6520    0.0000 Br  0  0  0  0  0  0  0  0  0  0  0  0
  3  4  2  0
 11  9  1  0
  4 12  1  0
  9  8  2  0
  2  1  1  0
 10  6  1  0
  1  7  2  0
  5 10  2  0
  7  8  1  0
  7  3  1  0
  2  4  1  0
  6 11  2  0
  8  5  1  0
 27 44  2  0
 20 67  2  0
 41 68  1  0
 61 60  1  0
 39 14  1  0
 17 37  1  0
 65 49  1  0
 13 40  1  0
 40 72  1  0
 45 53  1  0
 56 59  1  0
 16 20  1  0
 51 32  1  0
 30 25  1  0
 71 62  1  0
 25 36  2  0
 30 67  1  0
 15 14  1  0
 61 41  2  0
 31 54  1  0
 50 52  1  0
 35 55  2  0
 28 53  1  0
 59 13  1  0
 43 69  1  0
 52 17  1  0
 62 48  1  0
 29 63  1  0
 21 56  1  0
 39 34  1  0
 36 16  1  0
 38 27  1  0
 34 38  1  0
 27 68  1  0
 67 23  1  0
 48 58  1  0
 42 61  1  0
 22 51  1  0
 69 29  1  0
 31 24  1  0
 72 45  1  0
 71 18  2  0
 25 73  1  0
 20 35  1  0
 49 50  1  0
 33 26  2  0
 57 31  1  0
 44 42  1  0
 24 43  2  0
 14 64  2  0
 37 21  1  0
 19 15  2  0
 35 22  1  0
 46 65  1  0
 33 36  1  0
 70 64  1  0
 63 33  1  0
 41 71  1  0
 38 66  2  0
 28 57  1  0
 44 47  1  0
 69 54  2  0
 70 46  1  0
 70 19  1  0
 16  3  1  0
 68 74  1  0
 79 76  2  0
 78 82  2  0
 77 79  1  0
 75 83  1  0
 75 81  1  0
 77 74  1  0
 85 80  2  0
 84 77  2  0
 74 75  2  0
 80 78  1  0
 83 84  1  0
 82 79  1  0
 76 85  1  0
  9 86  1  0
 76 87  1  0
M  END
>  <Classification>  (469) 
1

>  <pchembl>  (469) 
5.54

>  <InChI_steorem>  (469) 
InChI=1S/C60H70Br2N10O15/c1-9-82-57(73)47-35(3)63-37(5)49(53(47)51-39(7)86-67-55(51)43-15-11-13-17-45(43)61)59(75)84-33-41-31-71(69-65-41)19-21-77-23-25-79-27-29-81-30-28-80-26-24-78-22-20-72-32-42(66-70-72)34-85-60(76)50-38(6)64-36(4)48(58(74)83-10-2)54(50)52-40(8)87-68-56(52)44-16-12-14-18-46(44)62/h11-18,31-32,53-54,63-64H,9-10,19-30,33-34H2,1-8H3

>  <source>  (469) 
ChEMBL25

>  <source_id>  (469) 
25

>  <optional_reference>  (469) 
10.1016/j.bmc.2017.04.008

>  <optional_origin>  (469) 
None

>  <target>  (469) 
MDR1

$$$$

     RDKit          2D

 27 30  0  0  0  0  0  0  0  0999 V2000
   35.9472   -5.2355    0.0000 C   0  0  0  0  0  0  0  0  0  0  0  0
   35.9472   -6.0562    0.0000 C   0  0  0  0  0  0  0  0  0  0  0  0
   36.6631   -6.4710    0.0000 C   0  0  0  0  0  0  0  0  0  0  0  0
   37.3744   -6.0562    0.0000 C   0  0  0  0  0  0  0  0  0  0  0  0
   37.3744   -5.2355    0.0000 C   0  0  0  0  0  0  0  0  0  0  0  0
   36.6631   -4.8250    0.0000 C   0  0  0  0  0  0  0  0  0  0  0  0
   38.1608   -4.9803    0.0000 C   0  0  0  0  0  0  0  0  0  0  0  0
   38.6442   -5.6458    0.0000 C   0  0  0  0  0  0  0  0  0  0  0  0
   38.1608   -6.3157    0.0000 N   0  0  0  0  0  0  0  0  0  0  0  0
   38.1608   -7.1364    0.0000 C   0  0  0  0  0  0  0  0  0  0  0  0
   39.4647   -5.5625    0.0000 C   0  0  0  0  0  0  0  0  0  0  0  0
   39.9481   -6.2279    0.0000 C   0  0  0  0  0  0  0  0  0  0  0  0
   40.7684   -6.1400    0.0000 C   0  0  0  0  0  0  0  0  0  0  0  0
   41.1053   -5.3867    0.0000 C   0  0  0  0  0  0  0  0  0  0  0  0
   40.6174   -4.7212    0.0000 C   0  0  0  0  0  0  0  0  0  0  0  0
   39.7971   -4.8092    0.0000 N   0  0  0  0  0  0  0  0  0  0  0  0
   39.3136   -4.1437    0.0000 C   0  0  0  0  0  0  0  0  0  0  0  0
   38.4977   -4.2271    0.0000 C   0  0  0  0  0  0  0  0  0  0  0  0
   39.8980   -3.5548    0.0000 C   0  0  0  0  0  0  0  0  0  0  0  0
   40.6094   -3.1445    0.0000 C   0  0  0  0  0  0  0  0  0  0  0  0
   41.1981   -3.7288    0.0000 O   0  0  0  0  0  0  0  0  0  0  0  0
   42.0188   -3.7288    0.0000 C   0  0  0  0  0  0  0  0  0  0  0  0
   40.6094   -2.3237    0.0000 O   0  0  0  0  0  0  0  0  0  0  0  0
   39.0019   -4.7601    0.0000 C   0  0  0  0  0  0  0  0  0  0  0  0
   41.9305   -5.3867    0.0000 C   0  0  0  0  0  0  0  0  0  0  0  0
   42.3410   -6.1025    0.0000 C   0  0  0  0  0  0  0  0  0  0  0  0
   39.0497   -6.2738    0.0000 O   0  0  0  0  0  0  0  0  0  0  0  0
  1  2  2  0
  2  3  1  0
  3  4  2  0
  4  5  1  0
  5  6  2  0
  6  1  1  0
  7  5  1  0
  8  7  2  0
  9  8  1  0
  4  9  1  0
  9 10  1  0
  8 11  1  0
 11 12  1  0
 12 13  1  0
 13 14  1  0
 14 15  1  0
 15 16  1  0
 16 17  1  0
 17 18  1  0
 18  7  1  0
 17 19  1  0
 13 19  1  0
 19 20  1  0
 20 21  1  0
 21 22  1  0
 20 23  2  0
 16 24  1  0
 14 25  1  0
 25 26  1  0
 11 27  2  0
M  END
>  <Classification>  (470) 
0

>  <pchembl>  (470) 
4.05

>  <InChI_steorem>  (470) 
InChI=1S/C22H28N2O3/c1-5-13-12-23(2)18-10-16-14-8-6-7-9-17(14)24(3)21(16)19(25)11-15(13)20(18)22(26)27-4/h6-9,13,15,18,20H,5,10-12H2,1-4H3

>  <source>  (470) 
ChEMBL25

>  <source_id>  (470) 
25

>  <optional_reference>  (470) 
10.1016/j.ejmech.2017.01.044

>  <optional_origin>  (470) 
None

>  <target>  (470) 
MDR1

$$$$

     RDKit          2D

 39 43  0  0  0  0  0  0  0  0999 V2000
   34.6136  -13.6446    0.0000 C   0  0  0  0  0  0  0  0  0  0  0  0
   34.6125  -14.4682    0.0000 C   0  0  0  0  0  0  0  0  0  0  0  0
   35.3247  -14.8772    0.0000 C   0  0  0  0  0  0  0  0  0  0  0  0
   36.0385  -14.4678    0.0000 C   0  0  0  0  0  0  0  0  0  0  0  0
   36.0356  -13.6410    0.0000 C   0  0  0  0  0  0  0  0  0  0  0  0
   35.3229  -13.2316    0.0000 C   0  0  0  0  0  0  0  0  0  0  0  0
   36.7509  -14.8753    0.0000 C   0  0  0  0  0  0  0  0  0  0  0  0
   36.7522  -15.6966    0.0000 O   0  0  0  0  0  0  0  0  0  0  0  0
   37.4580  -14.4656    0.0000 N   0  0  0  0  0  0  0  0  0  0  0  0
   38.1705  -14.8730    0.0000 C   0  0  0  0  0  0  0  0  0  0  0  0
   36.7459  -13.2256    0.0000 O   0  0  0  0  0  0  0  0  0  0  0  0
   37.4552  -13.6356    0.0000 C   0  0  0  0  0  0  0  0  0  0  0  0
   38.1655  -13.2203    0.0000 C   0  0  0  0  0  0  0  0  0  0  0  0
   38.9148  -13.5569    0.0000 C   0  0  0  0  0  0  0  0  0  0  0  0
   39.4635  -12.9434    0.0000 N   0  0  0  0  0  0  0  0  0  0  0  0
   39.0481  -12.2331    0.0000 N   0  0  0  0  0  0  0  0  0  0  0  0
   38.2453  -12.4061    0.0000 N   0  0  0  0  0  0  0  0  0  0  0  0
   40.2818  -12.9430    0.0000 C   0  0  0  0  0  0  0  0  0  0  0  0
   40.6900  -12.2309    0.0000 C   0  0  0  0  0  0  0  0  0  0  0  0
   41.5113  -12.2305    0.0000 N   0  0  0  0  0  0  0  0  0  0  0  0
   41.9210  -12.9484    0.0000 C   0  0  0  0  0  0  0  0  0  0  0  0
   42.7388  -12.9500    0.0000 C   0  0  0  0  0  0  0  0  0  0  0  0
   41.9191  -11.5231    0.0000 C   0  0  0  0  0  0  0  0  0  0  0  0
   42.7431  -11.5263    0.0000 C   0  0  0  0  0  0  0  0  0  0  0  0
   43.1480  -12.2412    0.0000 C   0  0  0  0  0  0  0  0  0  0  0  0
   43.9682  -12.2449    0.0000 C   0  0  0  0  0  0  0  0  0  0  0  0
   44.3845  -11.5345    0.0000 C   0  0  0  0  0  0  0  0  0  0  0  0
   43.9705  -10.8189    0.0000 C   0  0  0  0  0  0  0  0  0  0  0  0
   43.1516  -10.8187    0.0000 C   0  0  0  0  0  0  0  0  0  0  0  0
   44.3836  -10.1073    0.0000 O   0  0  0  0  0  0  0  0  0  0  0  0
   45.2058  -11.5368    0.0000 O   0  0  0  0  0  0  0  0  0  0  0  0
   45.6124  -12.2498    0.0000 C   0  0  0  0  0  0  0  0  0  0  0  0
   45.2050  -10.1078    0.0000 C   0  0  0  0  0  0  0  0  0  0  0  0
   38.1671  -15.6928    0.0000 C   0  0  0  0  0  0  0  0  0  0  0  0
   38.8788  -16.1043    0.0000 C   0  0  0  0  0  0  0  0  0  0  0  0
   39.5910  -15.6904    0.0000 C   0  0  0  0  0  0  0  0  0  0  0  0
   39.5870  -14.8649    0.0000 C   0  0  0  0  0  0  0  0  0  0  0  0
   38.8748  -14.4612    0.0000 C   0  0  0  0  0  0  0  0  0  0  0  0
   38.8797  -16.9215    0.0000 Cl  0  0  0  0  0  0  0  0  0  0  0  0
  1  2  2  0
  2  3  1  0
  3  4  2  0
  4  5  1  0
  5  6  2  0
  6  1  1  0
  4  7  1  0
  7  8  2  0
  7  9  1  0
  9 10  1  0
  5 11  1  0
 11 12  1  0
 12 13  1  0
 13 14  2  0
 14 15  1  0
 15 16  1  0
 16 17  2  0
 17 13  1  0
 15 18  1  0
 18 19  1  0
 19 20  1  0
 20 21  1  0
 20 23  1  0
 21 22  1  0
 22 25  1  0
 24 23  1  0
 24 25  2  0
 25 26  1  0
 26 27  2  0
 27 28  1  0
 28 29  2  0
 29 24  1  0
 28 30  1  0
 27 31  1  0
 31 32  1  0
 30 33  1  0
 10 34  2  0
 34 35  1  0
 35 36  2  0
 36 37  1  0
 37 38  2  0
 38 10  1  0
 35 39  1  0
M  END
>  <Classification>  (471) 
0

>  <pchembl>  (471) 
4.64

>  <InChI_steorem>  (471) 
InChI=1S/C29H30ClN5O4/c1-37-27-14-20-10-11-34(17-21(20)15-28(27)38-2)12-13-35-18-24(32-33-35)19-39-26-9-4-3-8-25(26)29(36)31-23-7-5-6-22(30)16-23/h3-9,14-16,18H,10-13,17,19H2,1-2H3,(H,31,36)

>  <source>  (471) 
ChEMBL25

>  <source_id>  (471) 
25

>  <optional_reference>  (471) 
10.1016/j.bmc.2017.06.015

>  <optional_origin>  (471) 
None

>  <target>  (471) 
MDR1

$$$$

     RDKit          2D

 27 30  0  0  0  0  0  0  0  0999 V2000
   14.5397   -3.4462    0.0000 N   0  0  0  0  0  0  0  0  0  0  0  0
   14.5397   -1.8119    0.0000 C   0  0  0  0  0  0  0  0  0  0  0  0
   15.2450   -2.2246    0.0000 C   0  0  0  0  0  0  0  0  0  0  0  0
   15.2434   -3.0400    0.0000 C   0  0  0  0  0  0  0  0  0  0  0  0
   15.9477   -3.4472    0.0000 C   0  0  0  0  0  0  0  0  0  0  0  0
   16.6539   -3.0403    0.0000 C   0  0  0  0  0  0  0  0  0  0  0  0
   16.6516   -2.2218    0.0000 C   0  0  0  0  0  0  0  0  0  0  0  0
   15.9468   -1.8182    0.0000 C   0  0  0  0  0  0  0  0  0  0  0  0
   13.8345   -3.0418    0.0000 C   0  0  0  0  0  0  0  0  0  0  0  0
   13.8370   -2.2264    0.0000 C   0  0  0  0  0  0  0  0  0  0  0  0
   13.1333   -1.8183    0.0000 C   0  0  0  0  0  0  0  0  0  0  0  0
   12.4265   -2.2244    0.0000 C   0  0  0  0  0  0  0  0  0  0  0  0
   12.4279   -3.0429    0.0000 C   0  0  0  0  0  0  0  0  0  0  0  0
   13.1322   -3.4473    0.0000 C   0  0  0  0  0  0  0  0  0  0  0  0
   14.5383   -0.9947    0.0000 O   0  0  0  0  0  0  0  0  0  0  0  0
   15.9470   -4.2644    0.0000 C   0  0  0  0  0  0  0  0  0  0  0  0
   17.3580   -1.8109    0.0000 C   0  0  0  0  0  0  0  0  0  0  0  0
   14.5409   -4.2634    0.0000 C   0  0  0  0  0  0  0  0  0  0  0  0
   13.8338   -4.6731    0.0000 C   0  0  0  0  0  0  0  0  0  0  0  0
   13.8350   -5.4902    0.0000 C   0  0  0  0  0  0  0  0  0  0  0  0
   13.1279   -5.8999    0.0000 N   0  0  0  0  0  0  0  0  0  0  0  0
   12.4213   -5.4920    0.0000 C   0  0  0  0  0  0  0  0  0  0  0  0
   11.7163   -5.8982    0.0000 C   0  0  0  0  0  0  0  0  0  0  0  0
   11.7132   -6.7157    0.0000 N   0  0  0  0  0  0  0  0  0  0  0  0
   12.4214   -7.1254    0.0000 C   0  0  0  0  0  0  0  0  0  0  0  0
   13.1326   -6.7177    0.0000 C   0  0  0  0  0  0  0  0  0  0  0  0
   11.0046   -7.1227    0.0000 C   0  0  0  0  0  0  0  0  0  0  0  0
 10  2  1  0
  9  1  1  0
  1  4  1  0
  3  2  1  0
  3  4  2  0
  4  5  1  0
  5  6  2  0
  6  7  1  0
  7  8  2  0
  8  3  1  0
  9 10  2  0
 10 11  1  0
 11 12  2  0
 12 13  1  0
 13 14  2  0
 14  9  1  0
  2 15  2  0
  5 16  1  0
  7 17  1  0
  1 18  1  0
 18 19  1  0
 19 20  1  0
 20 21  1  0
 21 22  1  0
 21 26  1  0
 22 23  1  0
 23 24  1  0
 24 25  1  0
 25 26  1  0
 24 27  1  0
M  END
>  <Classification>  (472) 
1

>  <pchembl>  (472) 
7.76

>  <InChI_steorem>  (472) 
InChI=1S/C23H29N3O/c1-17-15-18(2)22-20(16-17)23(27)19-7-4-5-8-21(19)26(22)10-6-9-25-13-11-24(3)12-14-25/h4-5,7-8,15-16H,6,9-14H2,1-3H3

>  <source>  (472) 
ChEMBL25

>  <source_id>  (472) 
25

>  <optional_reference>  (472) 
10.1016/j.ejmech.2017.02.022

>  <optional_origin>  (472) 
None

>  <target>  (472) 
MDR1

$$$$

     RDKit          2D

 39 43  0  0  0  0  0  0  0  0999 V2000
   10.7624   -4.6183    0.0000 C   0  0  0  0  0  0  0  0  0  0  0  0
   10.7612   -5.4420    0.0000 C   0  0  0  0  0  0  0  0  0  0  0  0
   11.4734   -5.8510    0.0000 C   0  0  0  0  0  0  0  0  0  0  0  0
   12.1872   -5.4415    0.0000 C   0  0  0  0  0  0  0  0  0  0  0  0
   12.1844   -4.6147    0.0000 C   0  0  0  0  0  0  0  0  0  0  0  0
   11.4716   -4.2053    0.0000 C   0  0  0  0  0  0  0  0  0  0  0  0
   12.8997   -5.8490    0.0000 C   0  0  0  0  0  0  0  0  0  0  0  0
   12.9010   -6.6703    0.0000 O   0  0  0  0  0  0  0  0  0  0  0  0
   13.6068   -5.4393    0.0000 N   0  0  0  0  0  0  0  0  0  0  0  0
   14.3192   -5.8468    0.0000 C   0  0  0  0  0  0  0  0  0  0  0  0
   12.8947   -4.1993    0.0000 O   0  0  0  0  0  0  0  0  0  0  0  0
   13.6039   -4.6094    0.0000 C   0  0  0  0  0  0  0  0  0  0  0  0
   14.3142   -4.1940    0.0000 C   0  0  0  0  0  0  0  0  0  0  0  0
   15.0636   -4.5307    0.0000 C   0  0  0  0  0  0  0  0  0  0  0  0
   15.6122   -3.9172    0.0000 N   0  0  0  0  0  0  0  0  0  0  0  0
   15.1968   -3.2068    0.0000 N   0  0  0  0  0  0  0  0  0  0  0  0
   14.3941   -3.3799    0.0000 N   0  0  0  0  0  0  0  0  0  0  0  0
   16.4305   -3.9167    0.0000 C   0  0  0  0  0  0  0  0  0  0  0  0
   16.8387   -3.2047    0.0000 C   0  0  0  0  0  0  0  0  0  0  0  0
   17.6600   -3.2042    0.0000 N   0  0  0  0  0  0  0  0  0  0  0  0
   18.0698   -3.9222    0.0000 C   0  0  0  0  0  0  0  0  0  0  0  0
   18.8875   -3.9237    0.0000 C   0  0  0  0  0  0  0  0  0  0  0  0
   18.0679   -2.4969    0.0000 C   0  0  0  0  0  0  0  0  0  0  0  0
   18.8918   -2.5000    0.0000 C   0  0  0  0  0  0  0  0  0  0  0  0
   19.2967   -3.2149    0.0000 C   0  0  0  0  0  0  0  0  0  0  0  0
   20.1169   -3.2186    0.0000 C   0  0  0  0  0  0  0  0  0  0  0  0
   20.5332   -2.5082    0.0000 C   0  0  0  0  0  0  0  0  0  0  0  0
   20.1192   -1.7926    0.0000 C   0  0  0  0  0  0  0  0  0  0  0  0
   19.3003   -1.7924    0.0000 C   0  0  0  0  0  0  0  0  0  0  0  0
   20.5324   -1.0811    0.0000 O   0  0  0  0  0  0  0  0  0  0  0  0
   21.3545   -2.5105    0.0000 O   0  0  0  0  0  0  0  0  0  0  0  0
   21.7611   -3.2235    0.0000 C   0  0  0  0  0  0  0  0  0  0  0  0
   21.3537   -1.0816    0.0000 C   0  0  0  0  0  0  0  0  0  0  0  0
   14.3159   -6.6666    0.0000 C   0  0  0  0  0  0  0  0  0  0  0  0
   15.0275   -7.0781    0.0000 C   0  0  0  0  0  0  0  0  0  0  0  0
   15.7397   -6.6642    0.0000 C   0  0  0  0  0  0  0  0  0  0  0  0
   15.7358   -5.8387    0.0000 C   0  0  0  0  0  0  0  0  0  0  0  0
   15.0236   -5.4349    0.0000 C   0  0  0  0  0  0  0  0  0  0  0  0
   16.4490   -7.0701    0.0000 C   0  0  0  0  0  0  0  0  0  0  0  0
  1  2  2  0
  2  3  1  0
  3  4  2  0
  4  5  1  0
  5  6  2  0
  6  1  1  0
  4  7  1  0
  7  8  2  0
  7  9  1  0
  9 10  1  0
  5 11  1  0
 11 12  1  0
 12 13  1  0
 13 14  2  0
 14 15  1  0
 15 16  1  0
 16 17  2  0
 17 13  1  0
 15 18  1  0
 18 19  1  0
 19 20  1  0
 20 21  1  0
 20 23  1  0
 21 22  1  0
 22 25  1  0
 24 23  1  0
 24 25  2  0
 25 26  1  0
 26 27  2  0
 27 28  1  0
 28 29  2  0
 29 24  1  0
 28 30  1  0
 27 31  1  0
 31 32  1  0
 30 33  1  0
 10 34  2  0
 34 35  1  0
 35 36  2  0
 36 37  1  0
 37 38  2  0
 38 10  1  0
 36 39  1  0
M  END
>  <Classification>  (473) 
1

>  <pchembl>  (473) 
5.12

>  <InChI_steorem>  (473) 
InChI=1S/C30H33N5O4/c1-21-8-10-24(11-9-21)31-30(36)26-6-4-5-7-27(26)39-20-25-19-35(33-32-25)15-14-34-13-12-22-16-28(37-2)29(38-3)17-23(22)18-34/h4-11,16-17,19H,12-15,18,20H2,1-3H3,(H,31,36)

>  <source>  (473) 
ChEMBL25

>  <source_id>  (473) 
25

>  <optional_reference>  (473) 
10.1016/j.bmc.2017.06.015

>  <optional_origin>  (473) 
None

>  <target>  (473) 
MDR1

$$$$

     RDKit          2D

 31 33  0  0  0  0  0  0  0  0999 V2000
   19.6038   -6.6856    0.0000 C   0  0  0  0  0  0  0  0  0  0  0  0
   20.2529   -6.1746    0.0000 C   0  0  0  0  0  0  0  0  0  0  0  0
   21.5431   -5.7680    0.0000 C   0  0  0  0  0  0  0  0  0  0  0  0
   22.1707   -7.2943    0.0000 C   0  0  0  0  0  0  0  0  0  0  0  0
   22.6639   -6.6422    0.0000 C   0  0  0  0  0  0  0  0  0  0  0  0
   19.1874   -5.4085    0.0000 O   0  0  0  0  0  0  0  0  0  0  0  0
   18.1451   -6.4382    0.0000 C   0  0  0  0  0  0  0  0  0  0  0  0
   18.9394   -6.1833    0.0000 C   0  0  0  0  0  0  0  0  0  0  0  0
   21.0499   -6.4208    0.0000 C   0  0  0  0  0  0  0  0  0  0  0  0
   20.0090   -5.4101    0.0000 N   0  0  0  0  0  0  0  0  0  0  0  0
   21.3494   -7.1782    0.0000 C   0  0  0  0  0  0  0  0  0  0  0  0
   22.3602   -5.8847    0.0000 C   0  0  0  0  0  0  0  0  0  0  0  0
   18.1432   -9.5415    0.0000 C   0  0  0  0  0  0  0  0  0  0  0  0
   17.8455   -7.2487    0.0000 O   0  0  0  0  0  0  0  0  0  0  0  0
   18.8695   -8.3138    0.0000 C   0  0  0  0  0  0  0  0  0  0  0  0
   16.7926   -6.2870    0.0000 C   0  0  0  0  0  0  0  0  0  0  0  0
   17.0359   -7.0659    0.0000 C   0  0  0  0  0  0  0  0  0  0  0  0
   18.8570   -9.1350    0.0000 C   0  0  0  0  0  0  0  0  0  0  0  0
   22.4251   -7.8801    0.0000 C   0  0  0  0  0  0  0  0  0  0  0  0
   20.2824   -9.1542    0.0000 C   0  0  0  0  0  0  0  0  0  0  0  0
   23.1528   -8.2609    0.0000 C   0  0  0  0  0  0  0  0  0  0  0  0
   19.5845   -7.9154    0.0000 C   0  0  0  0  0  0  0  0  0  0  0  0
   21.7338   -8.3166    0.0000 O   0  0  0  0  0  0  0  0  0  0  0  0
   19.5634   -9.5566    0.0000 N   0  0  0  0  0  0  0  0  0  0  0  0
   21.0060   -7.9359    0.0000 C   0  0  0  0  0  0  0  0  0  0  0  0
   20.2909   -8.3342    0.0000 C   0  0  0  0  0  0  0  0  0  0  0  0
   20.9849   -9.5772    0.0000 C   0  0  0  0  0  0  0  0  0  0  0  0
   18.0861   -8.0321    0.0000 C   0  0  0  0  0  0  0  0  0  0  0  0
   17.4948   -8.5961    0.0000 O   0  0  0  0  0  0  0  0  0  0  0  0
   20.7889   -7.1401    0.0000 O   0  0  0  0  0  0  0  0  0  0  0  0
   22.8649   -5.2420    0.0000 Br  0  0  0  0  0  0  0  0  0  0  0  0
  9  3  2  0
  4 11  2  0
  8  7  1  0
  2  1  1  0
  6 10  1  0
  2  9  1  0
  3 12  1  0
  6  8  1  0
 12  5  2  0
  1  8  2  0
  9 11  1  0
  5  4  1  0
 10  2  2  0
 14 17  1  0
 15 28  1  0
 20 27  1  0
 26 25  1  0
 25 23  1  0
 19 21  1  0
 20 24  1  0
 23 19  1  0
 26 22  1  0
 28 14  1  0
 18 13  1  0
 22 15  1  0
 20 26  2  0
 18 24  1  0
 15 18  2  0
 17 16  1  0
 28 29  2  0
 22  1  1  0
 25 30  2  0
 12 31  1  0
M  END
>  <Classification>  (474) 
1

>  <pchembl>  (474) 
6.29

>  <InChI_steorem>  (474) 
InChI=1S/C23H25BrN2O5/c1-6-29-22(27)17-12(3)25-13(4)18(23(28)30-7-2)20(17)19-14(5)31-26-21(19)15-9-8-10-16(24)11-15/h8-11,20,25H,6-7H2,1-5H3

>  <source>  (474) 
ChEMBL25

>  <source_id>  (474) 
25

>  <optional_reference>  (474) 
10.1016/j.bmc.2017.04.008

>  <optional_origin>  (474) 
None

>  <target>  (474) 
MDR1

$$$$

     RDKit          2D

 27 30  0  0  0  0  0  0  0  0999 V2000
    2.4821  -20.4347    0.0000 C   0  0  0  0  0  0  0  0  0  0  0  0
    2.4821  -21.2643    0.0000 C   0  0  0  0  0  0  0  0  0  0  0  0
    3.1934  -21.6746    0.0000 C   0  0  0  0  0  0  0  0  0  0  0  0
    3.9048  -21.2643    0.0000 C   0  0  0  0  0  0  0  0  0  0  0  0
    3.9048  -20.4347    0.0000 C   0  0  0  0  0  0  0  0  0  0  0  0
    3.1934  -20.0243    0.0000 C   0  0  0  0  0  0  0  0  0  0  0  0
    4.6913  -20.1839    0.0000 C   0  0  0  0  0  0  0  0  0  0  0  0
    5.1791  -20.8494    0.0000 C   0  0  0  0  0  0  0  0  0  0  0  0
    4.6913  -21.5149    0.0000 N   0  0  0  0  0  0  0  0  0  0  0  0
    5.9994  -20.7616    0.0000 C   0  0  0  0  0  0  0  0  0  0  0  0
    6.4783  -21.4270    0.0000 C   0  0  0  0  0  0  0  0  0  0  0  0
    7.2988  -21.3437    0.0000 C   0  0  0  0  0  0  0  0  0  0  0  0
    7.6357  -20.5904    0.0000 C   0  0  0  0  0  0  0  0  0  0  0  0
    7.1478  -19.9249    0.0000 C   0  0  0  0  0  0  0  0  0  0  0  0
    6.3319  -20.0083    0.0000 N   0  0  0  0  0  0  0  0  0  0  0  0
    5.8484  -19.3428    0.0000 C   0  0  0  0  0  0  0  0  0  0  0  0
    5.0281  -19.4307    0.0000 C   0  0  0  0  0  0  0  0  0  0  0  0
    6.4283  -18.7584    0.0000 C   0  0  0  0  0  0  0  0  0  0  0  0
    7.1442  -18.3481    0.0000 C   0  0  0  0  0  0  0  0  0  0  0  0
    7.7276  -18.9281    0.0000 O   0  0  0  0  0  0  0  0  0  0  0  0
    8.5526  -18.9281    0.0000 C   0  0  0  0  0  0  0  0  0  0  0  0
    7.1442  -17.5236    0.0000 O   0  0  0  0  0  0  0  0  0  0  0  0
    5.5324  -19.9789    0.0000 C   0  0  0  0  0  0  0  0  0  0  0  0
    8.4597  -20.5904    0.0000 C   0  0  0  0  0  0  0  0  0  0  0  0
    9.0394  -21.1740    0.0000 C   0  0  0  0  0  0  0  0  0  0  0  0
    5.5846  -21.4774    0.0000 N   0  0  0  0  0  0  0  0  0  0  0  0
    5.9994  -22.1931    0.0000 N   0  0  0  0  0  0  0  0  0  0  0  0
  1  2  2  0
  2  3  1  0
  3  4  2  0
  4  5  1  0
  5  6  2  0
  6  1  1  0
  7  5  1  0
  8  7  2  0
  9  8  1  0
  4  9  1  0
  8 10  1  0
 10 11  1  0
 11 12  1  0
 12 13  1  0
 13 14  1  0
 14 15  1  0
 15 16  1  0
 16 17  1  0
 17  7  1  0
 16 18  1  0
 12 18  1  0
 18 19  1  0
 19 20  1  0
 20 21  1  0
 19 22  2  0
 15 23  1  0
 13 24  1  0
 24 25  1  0
 10 26  2  3
 26 27  1  0
M  END
>  <Classification>  (475) 
0

>  <pchembl>  (475) 
4.13

>  <InChI_steorem>  (475) 
InChI=1S/C21H28N4O2/c1-4-12-11-25(2)18-10-15-13-7-5-6-8-16(13)23-20(15)17(24-22)9-14(12)19(18)21(26)27-3/h5-8,12,14,18-19,23H,4,9-11,22H2,1-3H3

>  <source>  (475) 
ChEMBL25

>  <source_id>  (475) 
25

>  <optional_reference>  (475) 
10.1016/j.ejmech.2017.01.044

>  <optional_origin>  (475) 
None

>  <target>  (475) 
MDR1

$$$$

     RDKit          2D

 39 43  0  0  0  0  0  0  0  0999 V2000
    3.0751  -19.8069    0.0000 C   0  0  0  0  0  0  0  0  0  0  0  0
    3.0751  -20.6339    0.0000 C   0  0  0  0  0  0  0  0  0  0  0  0
    3.7905  -21.0453    0.0000 C   0  0  0  0  0  0  0  0  0  0  0  0
    4.5013  -20.6339    0.0000 C   0  0  0  0  0  0  0  0  0  0  0  0
    4.5013  -19.8069    0.0000 C   0  0  0  0  0  0  0  0  0  0  0  0
    3.7905  -19.3957    0.0000 C   0  0  0  0  0  0  0  0  0  0  0  0
    5.2860  -19.5523    0.0000 C   0  0  0  0  0  0  0  0  0  0  0  0
    5.7733  -20.2226    0.0000 C   0  0  0  0  0  0  0  0  0  0  0  0
    5.2860  -20.8886    0.0000 N   0  0  0  0  0  0  0  0  0  0  0  0
    6.5913  -20.1364    0.0000 C   0  0  0  0  0  0  0  0  0  0  0  0
    7.0787  -20.8024    0.0000 C   0  0  0  0  0  0  0  0  0  0  0  0
    7.8965  -20.7161    0.0000 C   0  0  0  0  0  0  0  0  0  0  0  0
    8.2314  -19.9597    0.0000 C   0  0  0  0  0  0  0  0  0  0  0  0
    7.7484  -19.2937    0.0000 C   0  0  0  0  0  0  0  0  0  0  0  0
    6.9262  -19.3800    0.0000 N   0  0  0  0  0  0  0  0  0  0  0  0
    6.4432  -18.7140    0.0000 C   0  0  0  0  0  0  0  0  0  0  0  0
    5.6253  -18.8003    0.0000 C   0  0  0  0  0  0  0  0  0  0  0  0
    7.0252  -18.1319    0.0000 C   0  0  0  0  0  0  0  0  0  0  0  0
    7.7406  -17.7164    0.0000 C   0  0  0  0  0  0  0  0  0  0  0  0
    8.3225  -18.3027    0.0000 O   0  0  0  0  0  0  0  0  0  0  0  0
    9.1495  -18.3027    0.0000 C   0  0  0  0  0  0  0  0  0  0  0  0
    7.7406  -16.8937    0.0000 O   0  0  0  0  0  0  0  0  0  0  0  0
    6.1330  -19.2042    0.0000 C   0  0  0  0  0  0  0  0  0  0  0  0
    9.0584  -19.9597    0.0000 C   0  0  0  0  0  0  0  0  0  0  0  0
    9.4699  -20.6750    0.0000 C   0  0  0  0  0  0  0  0  0  0  0  0
    6.1799  -20.8474    0.0000 N   0  0  0  0  0  0  0  0  0  0  0  0
    6.5911  -21.5623    0.0000 N   0  0  0  0  0  0  0  0  0  0  0  0
    6.1799  -22.2775    0.0000 C   0  0  0  0  0  0  0  0  0  0  0  0
    6.5911  -22.9926    0.0000 O   0  0  0  0  0  0  0  0  0  0  0  0
    6.1799  -23.7032    0.0000 C   0  0  0  0  0  0  0  0  0  0  0  0
    6.5911  -24.4182    0.0000 C   0  0  0  0  0  0  0  0  0  0  0  0
    6.1799  -25.1333    0.0000 C   0  0  0  0  0  0  0  0  0  0  0  0
    6.5911  -25.8483    0.0000 C   0  0  0  0  0  0  0  0  0  0  0  0
    7.4179  -25.8483    0.0000 C   0  0  0  0  0  0  0  0  0  0  0  0
    7.8290  -25.1333    0.0000 C   0  0  0  0  0  0  0  0  0  0  0  0
    7.4179  -24.4182    0.0000 C   0  0  0  0  0  0  0  0  0  0  0  0
    5.3576  -22.2775    0.0000 O   0  0  0  0  0  0  0  0  0  0  0  0
    7.8515  -26.5981    0.0000 O   0  0  0  0  0  0  0  0  0  0  0  0
    7.4191  -27.3485    0.0000 C   0  0  0  0  0  0  0  0  0  0  0  0
  1  2  2  0
  2  3  1  0
  3  4  2  0
  4  5  1  0
  5  6  2  0
  6  1  1  0
  7  5  1  0
  8  7  2  0
  9  8  1  0
  4  9  1  0
  8 10  1  0
 10 11  1  0
 11 12  1  0
 12 13  1  0
 13 14  1  0
 14 15  1  0
 15 16  1  0
 16 17  1  0
 17  7  1  0
 16 18  1  0
 12 18  1  0
 18 19  1  0
 19 20  1  0
 20 21  1  0
 19 22  2  0
 15 23  1  0
 13 24  1  0
 24 25  1  0
 10 26  2  3
 26 27  1  0
 27 28  1  0
 28 29  1  0
 29 30  1  0
 30 31  1  0
 31 32  2  0
 32 33  1  0
 33 34  2  0
 34 35  1  0
 35 36  2  0
 36 31  1  0
 28 37  2  0
 34 38  1  0
 38 39  1  0
M  END
>  <Classification>  (476) 
0

>  <pchembl>  (476) 
4.28

>  <InChI_steorem>  (476) 
InChI=1S/C30H36N4O5/c1-5-19-16-34(2)26-15-23-21-8-6-7-9-24(21)31-28(23)25(14-22(19)27(26)29(35)38-4)32-33-30(36)39-17-18-10-12-20(37-3)13-11-18/h6-13,19,22,26-27,31H,5,14-17H2,1-4H3,(H,33,36)

>  <source>  (476) 
ChEMBL25

>  <source_id>  (476) 
25

>  <optional_reference>  (476) 
10.1016/j.ejmech.2017.01.044

>  <optional_origin>  (476) 
None

>  <target>  (476) 
MDR1

$$$$

     RDKit          2D

 39 43  0  0  0  0  0  0  0  0999 V2000
    1.4637   -4.1850    0.0000 C   0  0  0  0  0  0  0  0  0  0  0  0
    1.4626   -5.0086    0.0000 C   0  0  0  0  0  0  0  0  0  0  0  0
    2.1748   -5.4176    0.0000 C   0  0  0  0  0  0  0  0  0  0  0  0
    2.8886   -5.0082    0.0000 C   0  0  0  0  0  0  0  0  0  0  0  0
    2.8857   -4.1814    0.0000 C   0  0  0  0  0  0  0  0  0  0  0  0
    2.1730   -3.7720    0.0000 C   0  0  0  0  0  0  0  0  0  0  0  0
    3.6010   -5.4156    0.0000 C   0  0  0  0  0  0  0  0  0  0  0  0
    3.6023   -6.2370    0.0000 O   0  0  0  0  0  0  0  0  0  0  0  0
    4.3081   -5.0059    0.0000 N   0  0  0  0  0  0  0  0  0  0  0  0
    5.0206   -5.4134    0.0000 C   0  0  0  0  0  0  0  0  0  0  0  0
    3.5960   -3.7660    0.0000 O   0  0  0  0  0  0  0  0  0  0  0  0
    4.3053   -4.1760    0.0000 C   0  0  0  0  0  0  0  0  0  0  0  0
    5.0156   -3.7607    0.0000 C   0  0  0  0  0  0  0  0  0  0  0  0
    5.7649   -4.0973    0.0000 C   0  0  0  0  0  0  0  0  0  0  0  0
    6.3136   -3.4838    0.0000 N   0  0  0  0  0  0  0  0  0  0  0  0
    5.8982   -2.7735    0.0000 N   0  0  0  0  0  0  0  0  0  0  0  0
    5.0954   -2.9465    0.0000 N   0  0  0  0  0  0  0  0  0  0  0  0
    7.1319   -3.4834    0.0000 C   0  0  0  0  0  0  0  0  0  0  0  0
    7.5401   -2.7713    0.0000 C   0  0  0  0  0  0  0  0  0  0  0  0
    8.3614   -2.7709    0.0000 N   0  0  0  0  0  0  0  0  0  0  0  0
    8.7711   -3.4888    0.0000 C   0  0  0  0  0  0  0  0  0  0  0  0
    9.5889   -3.4903    0.0000 C   0  0  0  0  0  0  0  0  0  0  0  0
    8.7692   -2.0635    0.0000 C   0  0  0  0  0  0  0  0  0  0  0  0
    9.5932   -2.0667    0.0000 C   0  0  0  0  0  0  0  0  0  0  0  0
    9.9981   -2.7815    0.0000 C   0  0  0  0  0  0  0  0  0  0  0  0
   10.8183   -2.7853    0.0000 C   0  0  0  0  0  0  0  0  0  0  0  0
   11.2346   -2.0749    0.0000 C   0  0  0  0  0  0  0  0  0  0  0  0
   10.8206   -1.3593    0.0000 C   0  0  0  0  0  0  0  0  0  0  0  0
   10.0017   -1.3591    0.0000 C   0  0  0  0  0  0  0  0  0  0  0  0
   11.2337   -0.6477    0.0000 O   0  0  0  0  0  0  0  0  0  0  0  0
   12.0559   -2.0772    0.0000 O   0  0  0  0  0  0  0  0  0  0  0  0
   12.4625   -2.7902    0.0000 C   0  0  0  0  0  0  0  0  0  0  0  0
   12.0551   -0.6482    0.0000 C   0  0  0  0  0  0  0  0  0  0  0  0
    5.0172   -6.2332    0.0000 C   0  0  0  0  0  0  0  0  0  0  0  0
    5.7289   -6.6447    0.0000 C   0  0  0  0  0  0  0  0  0  0  0  0
    6.4411   -6.2308    0.0000 C   0  0  0  0  0  0  0  0  0  0  0  0
    6.4371   -5.4053    0.0000 C   0  0  0  0  0  0  0  0  0  0  0  0
    5.7249   -5.0016    0.0000 C   0  0  0  0  0  0  0  0  0  0  0  0
    7.1422   -4.9922    0.0000 C   0  0  0  0  0  0  0  0  0  0  0  0
  1  2  2  0
  2  3  1  0
  3  4  2  0
  4  5  1  0
  5  6  2  0
  6  1  1  0
  4  7  1  0
  7  8  2  0
  7  9  1  0
  9 10  1  0
  5 11  1  0
 11 12  1  0
 12 13  1  0
 13 14  2  0
 14 15  1  0
 15 16  1  0
 16 17  2  0
 17 13  1  0
 15 18  1  0
 18 19  1  0
 19 20  1  0
 20 21  1  0
 20 23  1  0
 21 22  1  0
 22 25  1  0
 24 23  1  0
 24 25  2  0
 25 26  1  0
 26 27  2  0
 27 28  1  0
 28 29  2  0
 29 24  1  0
 28 30  1  0
 27 31  1  0
 31 32  1  0
 30 33  1  0
 10 34  2  0
 34 35  1  0
 35 36  2  0
 36 37  1  0
 37 38  2  0
 38 10  1  0
 37 39  1  0
M  END
>  <Classification>  (477) 
0

>  <pchembl>  (477) 
4.92

>  <InChI_steorem>  (477) 
InChI=1S/C30H33N5O4/c1-21-7-6-8-24(15-21)31-30(36)26-9-4-5-10-27(26)39-20-25-19-35(33-32-25)14-13-34-12-11-22-16-28(37-2)29(38-3)17-23(22)18-34/h4-10,15-17,19H,11-14,18,20H2,1-3H3,(H,31,36)

>  <source>  (477) 
ChEMBL25

>  <source_id>  (477) 
25

>  <optional_reference>  (477) 
10.1016/j.bmc.2017.06.015

>  <optional_origin>  (477) 
None

>  <target>  (477) 
MDR1

$$$$

     RDKit          2D

 35 37  0  0  0  0  0  0  0  0999 V2000
   11.2962  -14.8044    0.0000 F   0  0  0  0  0  0  0  0  0  0  0  0
   10.5905  -14.3958    0.0000 C   0  0  0  0  0  0  0  0  0  0  0  0
   10.5895  -15.2113    0.0000 F   0  0  0  0  0  0  0  0  0  0  0  0
    2.5803  -11.5640    0.0000 O   0  0  0  0  0  0  0  0  0  0  0  0
    3.3075  -11.1912    0.0000 C   0  0  0  0  0  0  0  0  0  0  0  0
    3.3086  -10.3717    0.0000 C   0  0  0  0  0  0  0  0  0  0  0  0
    4.0155  -11.6002    0.0000 C   0  0  0  0  0  0  0  0  0  0  0  0
    4.7252  -11.1908    0.0000 C   0  0  0  0  0  0  0  0  0  0  0  0
    4.7224  -10.3681    0.0000 C   0  0  0  0  0  0  0  0  0  0  0  0
    4.0137   -9.9628    0.0000 C   0  0  0  0  0  0  0  0  0  0  0  0
    5.4285   -9.9568    0.0000 C   0  0  0  0  0  0  0  0  0  0  0  0
    6.1378  -10.3628    0.0000 N   0  0  0  0  0  0  0  0  0  0  0  0
    5.4254   -9.1396    0.0000 O   0  0  0  0  0  0  0  0  0  0  0  0
    6.8439   -9.9515    0.0000 C   0  0  0  0  0  0  0  0  0  0  0  0
    7.5532  -10.3574    0.0000 C   0  0  0  0  0  0  0  0  0  0  0  0
    6.8408   -9.1343    0.0000 C   0  0  0  0  0  0  0  0  0  0  0  0
    7.5470   -8.7231    0.0000 C   0  0  0  0  0  0  0  0  0  0  0  0
    6.1316   -8.7284    0.0000 C   0  0  0  0  0  0  0  0  0  0  0  0
    7.6440  -11.1691    0.0000 N   0  0  0  0  0  0  0  0  0  0  0  0
    8.4440  -11.3360    0.0000 C   0  0  0  0  0  0  0  0  0  0  0  0
    8.8499  -10.6267    0.0000 C   0  0  0  0  0  0  0  0  0  0  0  0
    8.3008  -10.0216    0.0000 S   0  0  0  0  0  0  0  0  0  0  0  0
    8.7792  -12.0813    0.0000 C   0  0  0  0  0  0  0  0  0  0  0  0
    8.3013  -12.7442    0.0000 O   0  0  0  0  0  0  0  0  0  0  0  0
    9.5922  -12.1637    0.0000 N   0  0  0  0  0  0  0  0  0  0  0  0
    4.0153  -12.4174    0.0000 O   0  0  0  0  0  0  0  0  0  0  0  0
    3.3075  -12.8258    0.0000 C   0  0  0  0  0  0  0  0  0  0  0  0
    2.6008   -9.9633    0.0000 O   0  0  0  0  0  0  0  0  0  0  0  0
    1.8932  -10.3720    0.0000 C   0  0  0  0  0  0  0  0  0  0  0  0
    1.8938  -11.1206    0.0000 C   0  0  0  0  0  0  0  0  0  0  0  0
    9.9274  -12.9089    0.0000 C   0  0  0  0  0  0  0  0  0  0  0  0
    9.4482  -13.5678    0.0000 C   0  0  0  0  0  0  0  0  0  0  0  0
    9.7801  -14.3107    0.0000 C   0  0  0  0  0  0  0  0  0  0  0  0
   11.0730  -13.7347    0.0000 C   0  0  0  0  0  0  0  0  0  0  0  0
   10.7401  -12.9856    0.0000 C   0  0  0  0  0  0  0  0  0  0  0  0
  2  1  1  0
  3  2  1  0
  4  5  1  0
  6  5  2  0
  5  7  1  0
  7  8  2  0
  8  9  1  0
  9 10  2  0
 10  6  1  0
  9 11  1  0
 11 12  1  0
 11 13  2  0
 12 14  1  0
 14 15  1  0
 14 16  1  0
 16 17  1  0
 16 18  1  0
 15 19  2  0
 19 20  1  0
 20 21  2  0
 21 22  1  0
 22 15  1  0
 20 23  1  0
 23 24  2  0
 23 25  1  0
  7 26  1  0
 26 27  1  0
  6 28  1  0
 28 29  1  0
  4 30  1  0
 25 31  1  0
 31 32  1  0
 31 35  1  0
 32 33  1  0
 33  2  1  0
  2 34  1  0
 34 35  1  0
M  END
>  <Classification>  (478) 
1

>  <pchembl>  (478) 
7.0

>  <InChI_steorem>  (478) 
InChI=1S/C24H31F2N3O5S/c1-13(2)19(29-21(30)14-10-17(32-3)20(34-5)18(11-14)33-4)23-28-16(12-35-23)22(31)27-15-6-8-24(25,26)9-7-15/h10-13,15,19H,6-9H2,1-5H3,(H,27,31)(H,29,30)

>  <source>  (478) 
ChEMBL25

>  <source_id>  (478) 
25

>  <optional_reference>  (478) 
10.1021/acs.jmedchem.7b01340

>  <optional_origin>  (478) 
None

>  <target>  (478) 
MDR1

$$$$

     RDKit          2D

 26 28  0  0  0  0  0  0  0  0999 V2000
   33.1618  -19.5713    0.0000 N   0  0  0  0  0  0  0  0  0  0  0  0
   33.1618  -17.9369    0.0000 C   0  0  0  0  0  0  0  0  0  0  0  0
   33.8671  -18.3497    0.0000 C   0  0  0  0  0  0  0  0  0  0  0  0
   33.8655  -19.1650    0.0000 C   0  0  0  0  0  0  0  0  0  0  0  0
   34.5697  -19.5723    0.0000 C   0  0  0  0  0  0  0  0  0  0  0  0
   35.2760  -19.1654    0.0000 C   0  0  0  0  0  0  0  0  0  0  0  0
   35.2736  -18.3469    0.0000 C   0  0  0  0  0  0  0  0  0  0  0  0
   34.5689  -17.9433    0.0000 C   0  0  0  0  0  0  0  0  0  0  0  0
   32.4565  -19.1668    0.0000 C   0  0  0  0  0  0  0  0  0  0  0  0
   32.4591  -18.3515    0.0000 C   0  0  0  0  0  0  0  0  0  0  0  0
   31.7553  -17.9434    0.0000 C   0  0  0  0  0  0  0  0  0  0  0  0
   31.0486  -18.3495    0.0000 C   0  0  0  0  0  0  0  0  0  0  0  0
   31.0500  -19.1680    0.0000 C   0  0  0  0  0  0  0  0  0  0  0  0
   31.7543  -19.5724    0.0000 C   0  0  0  0  0  0  0  0  0  0  0  0
   33.1604  -17.1197    0.0000 O   0  0  0  0  0  0  0  0  0  0  0  0
   34.5690  -20.3895    0.0000 C   0  0  0  0  0  0  0  0  0  0  0  0
   35.9800  -17.9360    0.0000 C   0  0  0  0  0  0  0  0  0  0  0  0
   33.1630  -20.3885    0.0000 C   0  0  0  0  0  0  0  0  0  0  0  0
   32.4559  -20.7981    0.0000 C   0  0  0  0  0  0  0  0  0  0  0  0
   32.4571  -21.6153    0.0000 C   0  0  0  0  0  0  0  0  0  0  0  0
   31.7500  -22.0250    0.0000 C   0  0  0  0  0  0  0  0  0  0  0  0
   31.0417  -21.6174    0.0000 N   0  0  0  0  0  0  0  0  0  0  0  0
   31.0433  -20.8026    0.0000 C   0  0  0  0  0  0  0  0  0  0  0  0
   30.3390  -20.3952    0.0000 C   0  0  0  0  0  0  0  0  0  0  0  0
   29.6287  -21.6194    0.0000 C   0  0  0  0  0  0  0  0  0  0  0  0
   30.3375  -22.0314    0.0000 C   0  0  0  0  0  0  0  0  0  0  0  0
 10  2  1  0
  9  1  1  0
  1  4  1  0
  3  2  1  0
  3  4  2  0
  4  5  1  0
  5  6  2  0
  6  7  1  0
  7  8  2  0
  8  3  1  0
  9 10  2  0
 10 11  1  0
 11 12  2  0
 12 13  1  0
 13 14  2  0
 14  9  1  0
  2 15  2  0
  5 16  1  0
  7 17  1  0
  1 18  1  0
 18 19  1  0
 19 20  1  0
 20 21  1  0
 21 22  1  0
 22 23  1  0
 22 26  1  0
 23 24  1  0
 25 26  1  0
M  END
>  <Classification>  (479) 
1

>  <pchembl>  (479) 
8.39

>  <InChI_steorem>  (479) 
InChI=1S/C23H30N2O/c1-5-24(6-2)13-9-10-14-25-21-12-8-7-11-19(21)23(26)20-16-17(3)15-18(4)22(20)25/h7-8,11-12,15-16H,5-6,9-10,13-14H2,1-4H3

>  <source>  (479) 
ChEMBL25

>  <source_id>  (479) 
25

>  <optional_reference>  (479) 
10.1016/j.ejmech.2017.02.022

>  <optional_origin>  (479) 
None

>  <target>  (479) 
MDR1

$$$$

     RDKit          2D

 43 47  0  0  0  0  0  0  0  0999 V2000
    0.6218  -27.8092    0.0000 C   0  0  0  0  0  0  0  0  0  0  0  0
    0.6206  -28.6329    0.0000 C   0  0  0  0  0  0  0  0  0  0  0  0
    1.3328  -29.0419    0.0000 C   0  0  0  0  0  0  0  0  0  0  0  0
    2.0466  -28.6324    0.0000 C   0  0  0  0  0  0  0  0  0  0  0  0
    2.0438  -27.8056    0.0000 C   0  0  0  0  0  0  0  0  0  0  0  0
    1.3310  -27.3962    0.0000 C   0  0  0  0  0  0  0  0  0  0  0  0
    2.7591  -29.0399    0.0000 C   0  0  0  0  0  0  0  0  0  0  0  0
    2.7604  -29.8612    0.0000 O   0  0  0  0  0  0  0  0  0  0  0  0
    3.4662  -28.6302    0.0000 N   0  0  0  0  0  0  0  0  0  0  0  0
    4.1786  -29.0377    0.0000 C   0  0  0  0  0  0  0  0  0  0  0  0
    2.7541  -27.3902    0.0000 O   0  0  0  0  0  0  0  0  0  0  0  0
    3.4633  -27.8003    0.0000 C   0  0  0  0  0  0  0  0  0  0  0  0
    4.1736  -27.3849    0.0000 C   0  0  0  0  0  0  0  0  0  0  0  0
    4.9230  -27.7216    0.0000 C   0  0  0  0  0  0  0  0  0  0  0  0
    5.4716  -27.1081    0.0000 N   0  0  0  0  0  0  0  0  0  0  0  0
    5.0562  -26.3977    0.0000 N   0  0  0  0  0  0  0  0  0  0  0  0
    4.2535  -26.5708    0.0000 N   0  0  0  0  0  0  0  0  0  0  0  0
    6.2899  -27.1076    0.0000 C   0  0  0  0  0  0  0  0  0  0  0  0
    6.6981  -26.3956    0.0000 C   0  0  0  0  0  0  0  0  0  0  0  0
    7.5194  -26.3951    0.0000 N   0  0  0  0  0  0  0  0  0  0  0  0
    7.9292  -27.1131    0.0000 C   0  0  0  0  0  0  0  0  0  0  0  0
    8.7469  -27.1146    0.0000 C   0  0  0  0  0  0  0  0  0  0  0  0
    7.9273  -25.6878    0.0000 C   0  0  0  0  0  0  0  0  0  0  0  0
    8.7512  -25.6909    0.0000 C   0  0  0  0  0  0  0  0  0  0  0  0
    9.1561  -26.4058    0.0000 C   0  0  0  0  0  0  0  0  0  0  0  0
    9.9763  -26.4095    0.0000 C   0  0  0  0  0  0  0  0  0  0  0  0
   10.3926  -25.6991    0.0000 C   0  0  0  0  0  0  0  0  0  0  0  0
    9.9786  -24.9835    0.0000 C   0  0  0  0  0  0  0  0  0  0  0  0
    9.1597  -24.9833    0.0000 C   0  0  0  0  0  0  0  0  0  0  0  0
   10.3918  -24.2720    0.0000 O   0  0  0  0  0  0  0  0  0  0  0  0
   11.2139  -25.7014    0.0000 O   0  0  0  0  0  0  0  0  0  0  0  0
   11.6205  -26.4144    0.0000 C   0  0  0  0  0  0  0  0  0  0  0  0
   11.2131  -24.2725    0.0000 C   0  0  0  0  0  0  0  0  0  0  0  0
    4.1753  -29.8574    0.0000 C   0  0  0  0  0  0  0  0  0  0  0  0
    4.8869  -30.2690    0.0000 C   0  0  0  0  0  0  0  0  0  0  0  0
    5.5991  -29.8551    0.0000 C   0  0  0  0  0  0  0  0  0  0  0  0
    5.5952  -29.0296    0.0000 C   0  0  0  0  0  0  0  0  0  0  0  0
    4.8830  -28.6258    0.0000 C   0  0  0  0  0  0  0  0  0  0  0  0
    6.3084  -30.2610    0.0000 O   0  0  0  0  0  0  0  0  0  0  0  0
    7.0145  -29.8497    0.0000 C   0  0  0  0  0  0  0  0  0  0  0  0
    7.7238  -30.2556    0.0000 F   0  0  0  0  0  0  0  0  0  0  0  0
    7.0114  -29.0325    0.0000 F   0  0  0  0  0  0  0  0  0  0  0  0
    7.7179  -29.4354    0.0000 F   0  0  0  0  0  0  0  0  0  0  0  0
  1  2  2  0
  2  3  1  0
  3  4  2  0
  4  5  1  0
  5  6  2  0
  6  1  1  0
  4  7  1  0
  7  8  2  0
  7  9  1  0
  9 10  1  0
  5 11  1  0
 11 12  1  0
 12 13  1  0
 13 14  2  0
 14 15  1  0
 15 16  1  0
 16 17  2  0
 17 13  1  0
 15 18  1  0
 18 19  1  0
 19 20  1  0
 20 21  1  0
 20 23  1  0
 21 22  1  0
 22 25  1  0
 24 23  1  0
 24 25  2  0
 25 26  1  0
 26 27  2  0
 27 28  1  0
 28 29  2  0
 29 24  1  0
 28 30  1  0
 27 31  1  0
 31 32  1  0
 30 33  1  0
 10 34  2  0
 34 35  1  0
 35 36  2  0
 36 37  1  0
 37 38  2  0
 38 10  1  0
 36 39  1  0
 39 40  1  0
 40 41  1  0
 40 42  1  0
 40 43  1  0
M  END
>  <Classification>  (480) 
1

>  <pchembl>  (480) 
5.34

>  <InChI_steorem>  (480) 
InChI=1S/C30H30F3N5O5/c1-40-27-15-20-11-12-37(17-21(20)16-28(27)41-2)13-14-38-18-23(35-36-38)19-42-26-6-4-3-5-25(26)29(39)34-22-7-9-24(10-8-22)43-30(31,32)33/h3-10,15-16,18H,11-14,17,19H2,1-2H3,(H,34,39)

>  <source>  (480) 
ChEMBL25

>  <source_id>  (480) 
25

>  <optional_reference>  (480) 
10.1016/j.bmc.2017.06.015

>  <optional_origin>  (480) 
None

>  <target>  (480) 
MDR1

$$$$

     RDKit          2D

 25 27  0  0  0  0  0  0  0  0999 V2000
   14.9318  -10.7556    0.0000 N   0  0  0  0  0  0  0  0  0  0  0  0
   14.9318   -9.1212    0.0000 C   0  0  0  0  0  0  0  0  0  0  0  0
   15.6371   -9.5339    0.0000 C   0  0  0  0  0  0  0  0  0  0  0  0
   15.6355  -10.3493    0.0000 C   0  0  0  0  0  0  0  0  0  0  0  0
   16.3397  -10.7566    0.0000 C   0  0  0  0  0  0  0  0  0  0  0  0
   17.0460  -10.3496    0.0000 C   0  0  0  0  0  0  0  0  0  0  0  0
   17.0437   -9.5311    0.0000 C   0  0  0  0  0  0  0  0  0  0  0  0
   16.3389   -9.1275    0.0000 C   0  0  0  0  0  0  0  0  0  0  0  0
   14.2266  -10.3511    0.0000 C   0  0  0  0  0  0  0  0  0  0  0  0
   14.2291   -9.5357    0.0000 C   0  0  0  0  0  0  0  0  0  0  0  0
   13.5254   -9.1276    0.0000 C   0  0  0  0  0  0  0  0  0  0  0  0
   12.8186   -9.5337    0.0000 C   0  0  0  0  0  0  0  0  0  0  0  0
   12.8200  -10.3522    0.0000 C   0  0  0  0  0  0  0  0  0  0  0  0
   13.5243  -10.7567    0.0000 C   0  0  0  0  0  0  0  0  0  0  0  0
   14.9304   -8.3040    0.0000 O   0  0  0  0  0  0  0  0  0  0  0  0
   16.3391  -11.5738    0.0000 C   0  0  0  0  0  0  0  0  0  0  0  0
   17.7501   -9.1203    0.0000 C   0  0  0  0  0  0  0  0  0  0  0  0
   14.9330  -11.5727    0.0000 C   0  0  0  0  0  0  0  0  0  0  0  0
   14.2259  -11.9824    0.0000 C   0  0  0  0  0  0  0  0  0  0  0  0
   14.2271  -12.7996    0.0000 C   0  0  0  0  0  0  0  0  0  0  0  0
   13.5200  -13.2092    0.0000 N   0  0  0  0  0  0  0  0  0  0  0  0
   12.8134  -12.8013    0.0000 C   0  0  0  0  0  0  0  0  0  0  0  0
   12.1084  -13.2075    0.0000 C   0  0  0  0  0  0  0  0  0  0  0  0
   12.8135  -14.4348    0.0000 C   0  0  0  0  0  0  0  0  0  0  0  0
   13.5246  -14.0270    0.0000 C   0  0  0  0  0  0  0  0  0  0  0  0
 10  2  1  0
  9  1  1  0
  1  4  1  0
  3  2  1  0
  3  4  2  0
  4  5  1  0
  5  6  2  0
  6  7  1  0
  7  8  2  0
  8  3  1  0
  9 10  2  0
 10 11  1  0
 11 12  2  0
 12 13  1  0
 13 14  2  0
 14  9  1  0
  2 15  2  0
  5 16  1  0
  7 17  1  0
  1 18  1  0
 18 19  1  0
 19 20  1  0
 20 21  1  0
 21 22  1  0
 21 25  1  0
 22 23  1  0
 24 25  1  0
M  END
>  <Classification>  (481) 
1

>  <pchembl>  (481) 
7.85

>  <InChI_steorem>  (481) 
InChI=1S/C22H28N2O/c1-5-23(6-2)12-9-13-24-20-11-8-7-10-18(20)22(25)19-15-16(3)14-17(4)21(19)24/h7-8,10-11,14-15H,5-6,9,12-13H2,1-4H3

>  <source>  (481) 
ChEMBL25

>  <source_id>  (481) 
25

>  <optional_reference>  (481) 
10.1016/j.ejmech.2017.02.022

>  <optional_origin>  (481) 
None

>  <target>  (481) 
MDR1

$$$$

     RDKit          2D

 81 88  0  0  0  0  0  0  0  0999 V2000
   20.9070  -17.1856    0.0000 O   0  0  0  0  0  0  0  0  0  0  0  0
   18.3804  -14.6291    0.0000 C   0  0  0  0  0  0  0  0  0  0  0  0
   18.8960  -13.9850    0.0000 O   0  0  0  0  0  0  0  0  0  0  0  0
   18.6802  -15.3977    0.0000 C   0  0  0  0  0  0  0  0  0  0  0  0
    4.7072   -9.4216    0.0000 C   0  0  0  0  0  0  0  0  0  0  0  0
   22.0194  -18.0827    0.0000 C   0  0  0  0  0  0  0  0  0  0  0  0
    5.9707  -13.7465    0.0000 N   0  0  0  0  0  0  0  0  0  0  0  0
   14.4486  -14.2099    0.0000 C   0  0  0  0  0  0  0  0  0  0  0  0
   17.3496  -15.9105    0.0000 C   0  0  0  0  0  0  0  0  0  0  0  0
   19.2768  -16.9321    0.0000 C   0  0  0  0  0  0  0  0  0  0  0  0
    1.7043   -7.5511    0.0000 C   0  0  0  0  0  0  0  0  0  0  0  0
    3.3971   -9.9384    0.0000 C   0  0  0  0  0  0  0  0  0  0  0  0
   17.5649  -14.5045    0.0000 O   0  0  0  0  0  0  0  0  0  0  0  0
    5.8025  -10.2948    0.0000 C   0  0  0  0  0  0  0  0  0  0  0  0
    5.4553  -13.1234    0.0000 N   0  0  0  0  0  0  0  0  0  0  0  0
   12.3620  -13.7135    0.0000 C   0  0  0  0  0  0  0  0  0  0  0  0
   16.4674  -13.6140    0.0000 C   0  0  0  0  0  0  0  0  0  0  0  0
   15.2886  -13.0286    0.0000 N   0  0  0  0  0  0  0  0  0  0  0  0
   21.1277  -15.7738    0.0000 O   0  0  0  0  0  0  0  0  0  0  0  0
    4.7943  -11.5612    0.0000 C   0  0  0  0  0  0  0  0  0  0  0  0
    2.5996   -9.8125    0.0000 C   0  0  0  0  0  0  0  0  0  0  0  0
   18.1649  -16.0373    0.0000 C   0  0  0  0  0  0  0  0  0  0  0  0
   16.0902  -12.8975    0.0000 N   0  0  0  0  0  0  0  0  0  0  0  0
    6.7286  -13.4553    0.0000 N   0  0  0  0  0  0  0  0  0  0  0  0
   20.6097  -16.4160    0.0000 C   0  0  0  0  0  0  0  0  0  0  0  0
    9.5492  -13.5908    0.0000 C   0  0  0  0  0  0  0  0  0  0  0  0
   21.7222  -17.3130    0.0000 C   0  0  0  0  0  0  0  0  0  0  0  0
    5.5984  -11.6871    0.0000 C   0  0  0  0  0  0  0  0  0  0  0  0
   19.5738  -17.7019    0.0000 C   0  0  0  0  0  0  0  0  0  0  0  0
    4.1097   -7.9074    0.0000 O   0  0  0  0  0  0  0  0  0  0  0  0
   15.1693  -13.8326    0.0000 N   0  0  0  0  0  0  0  0  0  0  0  0
    5.8939  -12.4410    0.0000 C   0  0  0  0  0  0  0  0  0  0  0  0
   18.4615  -16.8033    0.0000 N   0  0  0  0  0  0  0  0  0  0  0  0
    2.5125   -7.6705    0.0000 C   0  0  0  0  0  0  0  0  0  0  0  0
   13.7653  -13.7747    0.0000 C   0  0  0  0  0  0  0  0  0  0  0  0
    3.6078   -8.5460    0.0000 C   0  0  0  0  0  0  0  0  0  0  0  0
    6.1003  -11.0486    0.0000 O   0  0  0  0  0  0  0  0  0  0  0  0
   13.0444  -14.1480    0.0000 O   0  0  0  0  0  0  0  0  0  0  0  0
   15.8998  -14.1929    0.0000 C   0  0  0  0  0  0  0  0  0  0  0  0
   11.6389  -14.0867    0.0000 C   0  0  0  0  0  0  0  0  0  0  0  0
    7.4111  -13.8896    0.0000 C   0  0  0  0  0  0  0  0  0  0  0  0
    6.6807  -12.6408    0.0000 C   0  0  0  0  0  0  0  0  0  0  0  0
   19.4972  -15.5163    0.0000 C   0  0  0  0  0  0  0  0  0  0  0  0
    3.9033   -9.2999    0.0000 C   0  0  0  0  0  0  0  0  0  0  0  0
   10.9523  -13.6457    0.0000 O   0  0  0  0  0  0  0  0  0  0  0  0
    4.4966  -10.8075    0.0000 C   0  0  0  0  0  0  0  0  0  0  0  0
    8.8327  -13.9617    0.0000 O   0  0  0  0  0  0  0  0  0  0  0  0
    6.3110   -9.6627    0.0000 O   0  0  0  0  0  0  0  0  0  0  0  0
   17.2650  -13.7359    0.0000 C   0  0  0  0  0  0  0  0  0  0  0  0
    8.1342  -13.5166    0.0000 C   0  0  0  0  0  0  0  0  0  0  0  0
    3.6768  -10.7146    0.0000 N   0  0  0  0  0  0  0  0  0  0  0  0
   19.7946  -16.2887    0.0000 C   0  0  0  0  0  0  0  0  0  0  0  0
    5.0050  -10.1754    0.0000 C   0  0  0  0  0  0  0  0  0  0  0  0
    2.8037   -8.4243    0.0000 O   0  0  0  0  0  0  0  0  0  0  0  0
   10.2381  -14.0253    0.0000 C   0  0  0  0  0  0  0  0  0  0  0  0
    5.5093   -8.4934    0.0000 C   0  0  0  0  0  0  0  0  0  0  0  0
   20.1969  -14.6259    0.0000 C   0  0  0  0  0  0  0  0  0  0  0  0
    6.5979   -7.7324    0.0000 N   0  0  0  0  0  0  0  0  0  0  0  0
    9.1558  -10.2162    0.0000 Br  0  0  0  0  0  0  0  0  0  0  0  0
    7.7549   -8.5232    0.0000 C   0  0  0  0  0  0  0  0  0  0  0  0
    6.3139   -8.4910    0.0000 C   0  0  0  0  0  0  0  0  0  0  0  0
    8.4501   -9.7887    0.0000 C   0  0  0  0  0  0  0  0  0  0  0  0
    7.7172  -10.1920    0.0000 C   0  0  0  0  0  0  0  0  0  0  0  0
    7.0052   -9.7572    0.0000 C   0  0  0  0  0  0  0  0  0  0  0  0
    7.0273   -8.9217    0.0000 C   0  0  0  0  0  0  0  0  0  0  0  0
    8.4681   -8.9522    0.0000 C   0  0  0  0  0  0  0  0  0  0  0  0
    5.2896   -7.6696    0.0000 C   0  0  0  0  0  0  0  0  0  0  0  0
    5.9659   -7.2263    0.0000 O   0  0  0  0  0  0  0  0  0  0  0  0
    4.5288   -7.3860    0.0000 C   0  0  0  0  0  0  0  0  0  0  0  0
   21.3090  -13.8856    0.0000 O   0  0  0  0  0  0  0  0  0  0  0  0
   19.3863  -13.2375    0.0000 C   0  0  0  0  0  0  0  0  0  0  0  0
   19.0153  -11.8459    0.0000 C   0  0  0  0  0  0  0  0  0  0  0  0
   18.2110  -12.0621    0.0000 C   0  0  0  0  0  0  0  0  0  0  0  0
   17.9982  -12.8709    0.0000 C   0  0  0  0  0  0  0  0  0  0  0  0
   20.6642  -13.3709    0.0000 N   0  0  0  0  0  0  0  0  0  0  0  0
   19.6037  -12.4332    0.0000 C   0  0  0  0  0  0  0  0  0  0  0  0
   21.4743  -15.3457    0.0000 C   0  0  0  0  0  0  0  0  0  0  0  0
   17.6260  -11.4803    0.0000 Br  0  0  0  0  0  0  0  0  0  0  0  0
   21.0187  -14.6579    0.0000 C   0  0  0  0  0  0  0  0  0  0  0  0
   19.9755  -13.8251    0.0000 C   0  0  0  0  0  0  0  0  0  0  0  0
   18.5880  -13.4548    0.0000 C   0  0  0  0  0  0  0  0  0  0  0  0
 53  5  1  0
 41 24  1  0
  1 27  1  0
 12 51  1  0
 49 13  1  0
 14 53  1  0
 17 39  2  0
 33 10  1  0
 31 18  1  0
 10 52  2  0
 46 20  1  0
 15 32  1  0
 31 39  1  0
 26 47  1  0
 14 48  2  0
 13  2  1  0
  2  3  2  0
 40 45  1  0
 16 40  1  0
 50 41  1  0
  8 35  1  0
 25 19  2  0
 49 17  1  0
 22  9  1  0
 45 55  1  0
 44 36  1  0
 24  7  1  0
 10 29  1  0
  2  4  1  0
 23 17  1  0
 32 28  1  0
 52 43  1  0
  4 22  2  0
 46 51  1  0
 34 11  1  0
 35 38  1  0
 44 12  2  0
 47 50  1  0
  5 44  1  0
 18 23  2  0
  7 15  2  0
 24 42  1  0
 31  8  1  0
 38 16  1  0
 55 26  1  0
 54 34  1  0
 27  6  1  0
 37 14  1  0
 46 53  2  0
 12 21  1  0
 36 54  1  0
 52 25  1  0
 32 42  2  0
 36 30  2  0
 25  1  1  0
  4 43  1  0
 28 37  1  0
 22 33  1  0
  5 56  1  0
 43 57  1  0
 63 62  2  0
 66 60  2  0
 62 59  1  0
 61 65  1  0
 68 58  1  0
 68 67  1  0
 60 65  1  0
 58 61  2  0
 61 56  1  0
 56 67  2  0
 65 64  2  0
 62 66  1  0
 67 69  1  0
 64 63  1  0
 80 57  1  0
 80 71  1  0
 74 81  2  0
 79 77  1  0
 72 73  2  0
 57 79  2  0
 71 76  2  0
 79 70  1  0
 81 71  1  0
 75 80  2  0
 73 74  1  0
 73 78  1  0
 76 72  1  0
 70 75  1  0
M  END
>  <Classification>  (482) 
1

>  <pchembl>  (482) 
5.49

>  <InChI_steorem>  (482) 
InChI=1S/C56H62Br2N10O13/c1-9-76-53(69)43-31(3)59-33(5)45(49(43)47-35(7)80-63-51(47)37-11-15-39(57)16-12-37)55(71)78-29-41-27-67(65-61-41)19-21-73-23-25-75-26-24-74-22-20-68-28-42(62-66-68)30-79-56(72)46-34(6)60-32(4)44(54(70)77-10-2)50(46)48-36(8)81-64-52(48)38-13-17-40(58)18-14-38/h11-18,27-28,49-50,59-60H,9-10,19-26,29-30H2,1-8H3

>  <source>  (482) 
ChEMBL25

>  <source_id>  (482) 
25

>  <optional_reference>  (482) 
10.1016/j.bmc.2017.04.008

>  <optional_origin>  (482) 
None

>  <target>  (482) 
MDR1

$$$$

     RDKit          2D

 27 30  0  0  0  0  0  0  0  0999 V2000
    2.0581  -20.0831    0.0000 C   0  0  0  0  0  0  0  0  0  0  0  0
    2.0569  -20.9026    0.0000 C   0  0  0  0  0  0  0  0  0  0  0  0
    2.7650  -21.3116    0.0000 C   0  0  0  0  0  0  0  0  0  0  0  0
    2.7632  -19.6742    0.0000 C   0  0  0  0  0  0  0  0  0  0  0  0
    3.4718  -20.0795    0.0000 C   0  0  0  0  0  0  0  0  0  0  0  0
    3.4726  -20.8985    0.0000 C   0  0  0  0  0  0  0  0  0  0  0  0
    4.1811  -21.3055    0.0000 N   0  0  0  0  0  0  0  0  0  0  0  0
    4.8894  -20.8947    0.0000 C   0  0  0  0  0  0  0  0  0  0  0  0
    4.8846  -20.0726    0.0000 N   0  0  0  0  0  0  0  0  0  0  0  0
    4.1755  -19.6692    0.0000 C   0  0  0  0  0  0  0  0  0  0  0  0
    4.1712  -18.8520    0.0000 N   0  0  0  0  0  0  0  0  0  0  0  0
    4.8767  -18.4397    0.0000 C   0  0  0  0  0  0  0  0  0  0  0  0
    5.5820  -18.8479    0.0000 C   0  0  0  0  0  0  0  0  0  0  0  0
    6.2871  -18.4363    0.0000 C   0  0  0  0  0  0  0  0  0  0  0  0
    6.2832  -17.6182    0.0000 C   0  0  0  0  0  0  0  0  0  0  0  0
    5.5683  -17.2136    0.0000 C   0  0  0  0  0  0  0  0  0  0  0  0
    4.8662  -17.6276    0.0000 C   0  0  0  0  0  0  0  0  0  0  0  0
    5.5951  -21.2965    0.0000 C   0  0  0  0  0  0  0  0  0  0  0  0
    5.5969  -22.1148    0.0000 C   0  0  0  0  0  0  0  0  0  0  0  0
    6.3054  -22.5205    0.0000 C   0  0  0  0  0  0  0  0  0  0  0  0
    7.0125  -22.1091    0.0000 N   0  0  0  0  0  0  0  0  0  0  0  0
    7.0067  -21.2877    0.0000 C   0  0  0  0  0  0  0  0  0  0  0  0
    6.2976  -20.8857    0.0000 C   0  0  0  0  0  0  0  0  0  0  0  0
    5.5611  -16.3964    0.0000 O   0  0  0  0  0  0  0  0  0  0  0  0
    6.2652  -15.9816    0.0000 C   0  0  0  0  0  0  0  0  0  0  0  0
    6.9881  -17.2049    0.0000 O   0  0  0  0  0  0  0  0  0  0  0  0
    7.6985  -17.6088    0.0000 C   0  0  0  0  0  0  0  0  0  0  0  0
  1  2  2  0
  2  3  1  0
  3  6  2  0
  5  4  2  0
  4  1  1  0
  5  6  1  0
  6  7  1  0
  7  8  2  0
  8  9  1  0
  9 10  2  0
 10  5  1  0
 10 11  1  0
 11 12  1  0
 12 13  2  0
 13 14  1  0
 14 15  2  0
 15 16  1  0
 16 17  2  0
 17 12  1  0
 18 19  2  0
 19 20  1  0
 20 21  2  0
 21 22  1  0
 22 23  2  0
 23 18  1  0
  8 18  1  0
 16 24  1  0
 24 25  1  0
 15 26  1  0
 26 27  1  0
M  END
>  <Classification>  (483) 
1

>  <pchembl>  (483) 
5.68

>  <InChI_steorem>  (483) 
InChI=1S/C21H18N4O2/c1-26-18-8-7-15(13-19(18)27-2)23-21-16-5-3-4-6-17(16)24-20(25-21)14-9-11-22-12-10-14/h3-13H,1-2H3,(H,23,24,25)

>  <source>  (483) 
ChEMBL25

>  <source_id>  (483) 
25

>  <optional_reference>  (483) 
10.1021/acs.jmedchem.7b00441

>  <optional_origin>  (483) 
None

>  <target>  (483) 
MDR1

$$$$

     RDKit          2D

 41 45  0  0  0  0  0  0  0  0999 V2000
    1.6412   -4.9939    0.0000 C   0  0  0  0  0  0  0  0  0  0  0  0
    1.6401   -5.8176    0.0000 C   0  0  0  0  0  0  0  0  0  0  0  0
    2.3522   -6.2265    0.0000 C   0  0  0  0  0  0  0  0  0  0  0  0
    3.0660   -5.8171    0.0000 C   0  0  0  0  0  0  0  0  0  0  0  0
    3.0632   -4.9903    0.0000 C   0  0  0  0  0  0  0  0  0  0  0  0
    2.3505   -4.5809    0.0000 C   0  0  0  0  0  0  0  0  0  0  0  0
    3.7785   -6.2246    0.0000 C   0  0  0  0  0  0  0  0  0  0  0  0
    3.7798   -7.0459    0.0000 O   0  0  0  0  0  0  0  0  0  0  0  0
    4.4856   -5.8149    0.0000 N   0  0  0  0  0  0  0  0  0  0  0  0
    5.1981   -6.2224    0.0000 C   0  0  0  0  0  0  0  0  0  0  0  0
    3.7735   -4.5749    0.0000 O   0  0  0  0  0  0  0  0  0  0  0  0
    4.4827   -4.9850    0.0000 C   0  0  0  0  0  0  0  0  0  0  0  0
    5.1930   -4.5696    0.0000 C   0  0  0  0  0  0  0  0  0  0  0  0
    5.9424   -4.9062    0.0000 C   0  0  0  0  0  0  0  0  0  0  0  0
    6.4911   -4.2928    0.0000 N   0  0  0  0  0  0  0  0  0  0  0  0
    6.0756   -3.5824    0.0000 N   0  0  0  0  0  0  0  0  0  0  0  0
    5.2729   -3.7554    0.0000 N   0  0  0  0  0  0  0  0  0  0  0  0
    7.3093   -4.2923    0.0000 C   0  0  0  0  0  0  0  0  0  0  0  0
    7.7175   -3.5803    0.0000 C   0  0  0  0  0  0  0  0  0  0  0  0
    8.5389   -3.5798    0.0000 N   0  0  0  0  0  0  0  0  0  0  0  0
    8.9486   -4.2978    0.0000 C   0  0  0  0  0  0  0  0  0  0  0  0
    9.7664   -4.2993    0.0000 C   0  0  0  0  0  0  0  0  0  0  0  0
    8.9467   -2.8724    0.0000 C   0  0  0  0  0  0  0  0  0  0  0  0
    9.7706   -2.8756    0.0000 C   0  0  0  0  0  0  0  0  0  0  0  0
   10.1755   -3.5905    0.0000 C   0  0  0  0  0  0  0  0  0  0  0  0
   10.9957   -3.5942    0.0000 C   0  0  0  0  0  0  0  0  0  0  0  0
   11.4121   -2.8838    0.0000 C   0  0  0  0  0  0  0  0  0  0  0  0
   10.9981   -2.1682    0.0000 C   0  0  0  0  0  0  0  0  0  0  0  0
   10.1792   -2.1680    0.0000 C   0  0  0  0  0  0  0  0  0  0  0  0
   11.4112   -1.4566    0.0000 O   0  0  0  0  0  0  0  0  0  0  0  0
   12.2334   -2.8861    0.0000 O   0  0  0  0  0  0  0  0  0  0  0  0
   12.6400   -3.5991    0.0000 C   0  0  0  0  0  0  0  0  0  0  0  0
   12.2325   -1.4571    0.0000 C   0  0  0  0  0  0  0  0  0  0  0  0
    5.1947   -7.0421    0.0000 C   0  0  0  0  0  0  0  0  0  0  0  0
    5.9064   -7.4537    0.0000 C   0  0  0  0  0  0  0  0  0  0  0  0
    6.6185   -7.0398    0.0000 C   0  0  0  0  0  0  0  0  0  0  0  0
    6.6146   -6.2142    0.0000 C   0  0  0  0  0  0  0  0  0  0  0  0
    5.9024   -5.8105    0.0000 C   0  0  0  0  0  0  0  0  0  0  0  0
    4.7793   -7.7468    0.0000 N   0  0  0  0  0  0  0  0  0  0  0  0
    5.1819   -8.4589    0.0000 O   0  0  0  0  0  0  0  0  0  0  0  0
    3.9614   -7.7394    0.0000 O   0  0  0  0  0  0  0  0  0  0  0  0
  1  2  2  0
  2  3  1  0
  3  4  2  0
  4  5  1  0
  5  6  2  0
  6  1  1  0
  4  7  1  0
  7  8  2  0
  7  9  1  0
  9 10  1  0
  5 11  1  0
 11 12  1  0
 12 13  1  0
 13 14  2  0
 14 15  1  0
 15 16  1  0
 16 17  2  0
 17 13  1  0
 15 18  1  0
 18 19  1  0
 19 20  1  0
 20 21  1  0
 20 23  1  0
 21 22  1  0
 22 25  1  0
 24 23  1  0
 24 25  2  0
 25 26  1  0
 26 27  2  0
 27 28  1  0
 28 29  2  0
 29 24  1  0
 28 30  1  0
 27 31  1  0
 31 32  1  0
 30 33  1  0
 10 34  2  0
 34 35  1  0
 35 36  2  0
 36 37  1  0
 37 38  2  0
 38 10  1  0
 34 39  1  0
 39 40  2  0
 39 41  1  0
M  CHG  2  39   1  41  -1
M  END
>  <Classification>  (484) 
0

>  <pchembl>  (484) 
4.57

>  <InChI_steorem>  (484) 
InChI=1S/C29H30N6O6/c1-39-27-15-20-11-12-33(17-21(20)16-28(27)40-2)13-14-34-18-22(31-32-34)19-41-26-10-6-3-7-23(26)29(36)30-24-8-4-5-9-25(24)35(37)38/h3-10,15-16,18H,11-14,17,19H2,1-2H3,(H,30,36)

>  <source>  (484) 
ChEMBL25

>  <source_id>  (484) 
25

>  <optional_reference>  (484) 
10.1016/j.bmc.2017.06.015

>  <optional_origin>  (484) 
None

>  <target>  (484) 
MDR1

$$$$

     RDKit          2D

 27 30  0  0  0  0  0  0  0  0999 V2000
    2.0581   -4.5523    0.0000 C   0  0  0  0  0  0  0  0  0  0  0  0
    2.0569   -5.3718    0.0000 C   0  0  0  0  0  0  0  0  0  0  0  0
    2.7650   -5.7808    0.0000 C   0  0  0  0  0  0  0  0  0  0  0  0
    2.7632   -4.1434    0.0000 C   0  0  0  0  0  0  0  0  0  0  0  0
    3.4718   -4.5487    0.0000 C   0  0  0  0  0  0  0  0  0  0  0  0
    3.4726   -5.3677    0.0000 C   0  0  0  0  0  0  0  0  0  0  0  0
    4.1811   -5.7748    0.0000 N   0  0  0  0  0  0  0  0  0  0  0  0
    4.8894   -5.3640    0.0000 C   0  0  0  0  0  0  0  0  0  0  0  0
    4.8846   -4.5418    0.0000 N   0  0  0  0  0  0  0  0  0  0  0  0
    4.1755   -4.1385    0.0000 C   0  0  0  0  0  0  0  0  0  0  0  0
    4.1712   -3.3213    0.0000 N   0  0  0  0  0  0  0  0  0  0  0  0
    4.8767   -2.9089    0.0000 C   0  0  0  0  0  0  0  0  0  0  0  0
    5.5820   -3.3172    0.0000 C   0  0  0  0  0  0  0  0  0  0  0  0
    6.2871   -2.9055    0.0000 C   0  0  0  0  0  0  0  0  0  0  0  0
    6.2832   -2.0874    0.0000 C   0  0  0  0  0  0  0  0  0  0  0  0
    5.5683   -1.6828    0.0000 C   0  0  0  0  0  0  0  0  0  0  0  0
    4.8662   -2.0968    0.0000 C   0  0  0  0  0  0  0  0  0  0  0  0
    5.5951   -5.7657    0.0000 C   0  0  0  0  0  0  0  0  0  0  0  0
    5.5969   -6.5840    0.0000 N   0  0  0  0  0  0  0  0  0  0  0  0
    6.3054   -6.9898    0.0000 C   0  0  0  0  0  0  0  0  0  0  0  0
    7.0125   -6.5784    0.0000 C   0  0  0  0  0  0  0  0  0  0  0  0
    7.0067   -5.7570    0.0000 C   0  0  0  0  0  0  0  0  0  0  0  0
    6.2976   -5.3549    0.0000 C   0  0  0  0  0  0  0  0  0  0  0  0
    5.5611   -0.8656    0.0000 O   0  0  0  0  0  0  0  0  0  0  0  0
    6.2652   -0.4508    0.0000 C   0  0  0  0  0  0  0  0  0  0  0  0
    6.9881   -1.6742    0.0000 O   0  0  0  0  0  0  0  0  0  0  0  0
    7.6985   -2.0781    0.0000 C   0  0  0  0  0  0  0  0  0  0  0  0
  1  2  2  0
  2  3  1  0
  3  6  2  0
  5  4  2  0
  4  1  1  0
  5  6  1  0
  6  7  1  0
  7  8  2  0
  8  9  1  0
  9 10  2  0
 10  5  1  0
 10 11  1  0
 11 12  1  0
 12 13  2  0
 13 14  1  0
 14 15  2  0
 15 16  1  0
 16 17  2  0
 17 12  1  0
 18 19  2  0
 19 20  1  0
 20 21  2  0
 21 22  1  0
 22 23  2  0
 23 18  1  0
  8 18  1  0
 16 24  1  0
 24 25  1  0
 15 26  1  0
 26 27  1  0
M  END
>  <Classification>  (485) 
1

>  <pchembl>  (485) 
5.2

>  <InChI_steorem>  (485) 
InChI=1S/C21H18N4O2/c1-26-18-11-10-14(13-19(18)27-2)23-20-15-7-3-4-8-16(15)24-21(25-20)17-9-5-6-12-22-17/h3-13H,1-2H3,(H,23,24,25)

>  <source>  (485) 
ChEMBL25

>  <source_id>  (485) 
25

>  <optional_reference>  (485) 
10.1021/acs.jmedchem.7b00441

>  <optional_origin>  (485) 
None

>  <target>  (485) 
MDR1

$$$$

     RDKit          2D

 26 29  0  0  0  0  0  0  0  0999 V2000
   13.8059  -14.6340    0.0000 C   0  0  0  0  0  0  0  0  0  0  0  0
   13.8059  -15.4590    0.0000 C   0  0  0  0  0  0  0  0  0  0  0  0
   14.5171  -15.8739    0.0000 C   0  0  0  0  0  0  0  0  0  0  0  0
   15.2329  -15.4590    0.0000 C   0  0  0  0  0  0  0  0  0  0  0  0
   15.2329  -14.6340    0.0000 C   0  0  0  0  0  0  0  0  0  0  0  0
   14.5171  -14.2238    0.0000 C   0  0  0  0  0  0  0  0  0  0  0  0
   16.0191  -14.3790    0.0000 C   0  0  0  0  0  0  0  0  0  0  0  0
   16.5024  -15.0488    0.0000 C   0  0  0  0  0  0  0  0  0  0  0  0
   16.0191  -15.7141    0.0000 N   0  0  0  0  0  0  0  0  0  0  0  0
   17.3226  -14.9610    0.0000 C   0  0  0  0  0  0  0  0  0  0  0  0
   17.8060  -15.6308    0.0000 C   0  0  0  0  0  0  0  0  0  0  0  0
   18.6261  -15.5428    0.0000 C   0  0  0  0  0  0  0  0  0  0  0  0
   18.9629  -14.7898    0.0000 C   0  0  0  0  0  0  0  0  0  0  0  0
   18.4795  -14.1200    0.0000 C   0  0  0  0  0  0  0  0  0  0  0  0
   17.6595  -14.2078    0.0000 N   0  0  0  0  0  0  0  0  0  0  0  0
   17.1716  -13.5425    0.0000 C   0  0  0  0  0  0  0  0  0  0  0  0
   16.3515  -13.6260    0.0000 C   0  0  0  0  0  0  0  0  0  0  0  0
   17.7559  -12.9583    0.0000 C   0  0  0  0  0  0  0  0  0  0  0  0
   18.4715  -12.5436    0.0000 C   0  0  0  0  0  0  0  0  0  0  0  0
   19.0556  -13.1277    0.0000 O   0  0  0  0  0  0  0  0  0  0  0  0
   19.8763  -13.1277    0.0000 C   0  0  0  0  0  0  0  0  0  0  0  0
   18.4715  -11.7231    0.0000 O   0  0  0  0  0  0  0  0  0  0  0  0
   16.9089  -14.0317    0.0000 C   0  0  0  0  0  0  0  0  0  0  0  0
   19.7880  -14.7898    0.0000 C   0  0  0  0  0  0  0  0  0  0  0  0
   20.1983  -15.5054    0.0000 C   0  0  0  0  0  0  0  0  0  0  0  0
   16.9123  -15.6767    0.0000 S   0  0  0  0  0  0  0  0  0  0  0  0
  1  2  2  0
  2  3  1  0
  3  4  2  0
  4  5  1  0
  5  6  2  0
  6  1  1  0
  7  5  1  0
  8  7  2  0
  9  8  1  0
  4  9  1  0
  8 10  1  0
 10 11  1  0
 11 12  1  0
 12 13  1  0
 13 14  1  0
 14 15  1  0
 15 16  1  0
 16 17  1  0
 17  7  1  0
 16 18  1  0
 12 18  1  0
 18 19  1  0
 19 20  1  0
 20 21  1  0
 19 22  2  0
 15 23  1  0
 13 24  1  0
 24 25  1  0
 10 26  2  0
M  END
>  <Classification>  (486) 
0

>  <pchembl>  (486) 
4.11

>  <InChI_steorem>  (486) 
InChI=1S/C21H26N2O2S/c1-4-12-11-23(2)17-9-15-13-7-5-6-8-16(13)22-20(15)18(26)10-14(12)19(17)21(24)25-3/h5-8,12,14,17,19,22H,4,9-11H2,1-3H3

>  <source>  (486) 
ChEMBL25

>  <source_id>  (486) 
25

>  <optional_reference>  (486) 
10.1016/j.ejmech.2017.01.044

>  <optional_origin>  (486) 
None

>  <target>  (486) 
MDR1

$$$$

     RDKit          2D

 38 42  0  0  0  0  0  0  0  0999 V2000
   11.3815  -20.3101    0.0000 C   0  0  0  0  0  0  0  0  0  0  0  0
   11.3803  -21.1337    0.0000 C   0  0  0  0  0  0  0  0  0  0  0  0
   12.0925  -21.5427    0.0000 C   0  0  0  0  0  0  0  0  0  0  0  0
   12.8063  -21.1332    0.0000 C   0  0  0  0  0  0  0  0  0  0  0  0
   12.8035  -20.3065    0.0000 C   0  0  0  0  0  0  0  0  0  0  0  0
   12.0907  -19.8971    0.0000 C   0  0  0  0  0  0  0  0  0  0  0  0
   13.5188  -21.5407    0.0000 C   0  0  0  0  0  0  0  0  0  0  0  0
   13.5201  -22.3620    0.0000 O   0  0  0  0  0  0  0  0  0  0  0  0
   14.2258  -21.1310    0.0000 N   0  0  0  0  0  0  0  0  0  0  0  0
   14.9383  -21.5385    0.0000 C   0  0  0  0  0  0  0  0  0  0  0  0
   13.5138  -19.8911    0.0000 O   0  0  0  0  0  0  0  0  0  0  0  0
   14.2230  -20.3011    0.0000 C   0  0  0  0  0  0  0  0  0  0  0  0
   14.9333  -19.8857    0.0000 C   0  0  0  0  0  0  0  0  0  0  0  0
   15.6827  -20.2224    0.0000 C   0  0  0  0  0  0  0  0  0  0  0  0
   16.2313  -19.6089    0.0000 N   0  0  0  0  0  0  0  0  0  0  0  0
   15.8159  -18.8986    0.0000 N   0  0  0  0  0  0  0  0  0  0  0  0
   15.0131  -19.0716    0.0000 N   0  0  0  0  0  0  0  0  0  0  0  0
   17.0496  -19.6085    0.0000 C   0  0  0  0  0  0  0  0  0  0  0  0
   17.4578  -18.8964    0.0000 C   0  0  0  0  0  0  0  0  0  0  0  0
   18.2791  -18.8960    0.0000 N   0  0  0  0  0  0  0  0  0  0  0  0
   18.6889  -19.6139    0.0000 C   0  0  0  0  0  0  0  0  0  0  0  0
   19.5066  -19.6154    0.0000 C   0  0  0  0  0  0  0  0  0  0  0  0
   18.6870  -18.1886    0.0000 C   0  0  0  0  0  0  0  0  0  0  0  0
   19.5109  -18.1918    0.0000 C   0  0  0  0  0  0  0  0  0  0  0  0
   19.9158  -18.9066    0.0000 C   0  0  0  0  0  0  0  0  0  0  0  0
   20.7360  -18.9104    0.0000 C   0  0  0  0  0  0  0  0  0  0  0  0
   21.1523  -18.2000    0.0000 C   0  0  0  0  0  0  0  0  0  0  0  0
   20.7383  -17.4844    0.0000 C   0  0  0  0  0  0  0  0  0  0  0  0
   19.9194  -17.4841    0.0000 C   0  0  0  0  0  0  0  0  0  0  0  0
   21.1515  -16.7728    0.0000 O   0  0  0  0  0  0  0  0  0  0  0  0
   21.9736  -18.2023    0.0000 O   0  0  0  0  0  0  0  0  0  0  0  0
   22.3802  -18.9153    0.0000 C   0  0  0  0  0  0  0  0  0  0  0  0
   21.9728  -16.7733    0.0000 C   0  0  0  0  0  0  0  0  0  0  0  0
   14.9350  -22.3583    0.0000 C   0  0  0  0  0  0  0  0  0  0  0  0
   15.6466  -22.7698    0.0000 C   0  0  0  0  0  0  0  0  0  0  0  0
   16.3588  -22.3559    0.0000 C   0  0  0  0  0  0  0  0  0  0  0  0
   16.3549  -21.5304    0.0000 C   0  0  0  0  0  0  0  0  0  0  0  0
   15.6427  -21.1267    0.0000 C   0  0  0  0  0  0  0  0  0  0  0  0
  1  2  2  0
  2  3  1  0
  3  4  2  0
  4  5  1  0
  5  6  2  0
  6  1  1  0
  4  7  1  0
  7  8  2  0
  7  9  1  0
  9 10  1  0
  5 11  1  0
 11 12  1  0
 12 13  1  0
 13 14  2  0
 14 15  1  0
 15 16  1  0
 16 17  2  0
 17 13  1  0
 15 18  1  0
 18 19  1  0
 19 20  1  0
 20 21  1  0
 20 23  1  0
 21 22  1  0
 22 25  1  0
 24 23  1  0
 24 25  2  0
 25 26  1  0
 26 27  2  0
 27 28  1  0
 28 29  2  0
 29 24  1  0
 28 30  1  0
 27 31  1  0
 31 32  1  0
 30 33  1  0
 10 34  2  0
 34 35  1  0
 35 36  2  0
 36 37  1  0
 37 38  2  0
 38 10  1  0
M  END
>  <Classification>  (487) 
0

>  <pchembl>  (487) 
4.59

>  <InChI_steorem>  (487) 
InChI=1S/C29H31N5O4/c1-36-27-16-21-12-13-33(18-22(21)17-28(27)37-2)14-15-34-19-24(31-32-34)20-38-26-11-7-6-10-25(26)29(35)30-23-8-4-3-5-9-23/h3-11,16-17,19H,12-15,18,20H2,1-2H3,(H,30,35)

>  <source>  (487) 
ChEMBL25

>  <source_id>  (487) 
25

>  <optional_reference>  (487) 
10.1016/j.bmc.2017.06.015

>  <optional_origin>  (487) 
None

>  <target>  (487) 
MDR1

$$$$

     RDKit          2D

 30 33  0  0  0  0  0  0  0  0999 V2000
    7.3666  -11.7626    0.0000 N   0  0  0  0  0  0  0  0  0  0  0  0
    7.3666  -10.1282    0.0000 C   0  0  0  0  0  0  0  0  0  0  0  0
    8.0719  -10.5409    0.0000 C   0  0  0  0  0  0  0  0  0  0  0  0
    8.0703  -11.3563    0.0000 C   0  0  0  0  0  0  0  0  0  0  0  0
    8.7745  -11.7636    0.0000 C   0  0  0  0  0  0  0  0  0  0  0  0
    9.4808  -11.3566    0.0000 C   0  0  0  0  0  0  0  0  0  0  0  0
    9.4785  -10.5382    0.0000 C   0  0  0  0  0  0  0  0  0  0  0  0
    8.7737  -10.1346    0.0000 C   0  0  0  0  0  0  0  0  0  0  0  0
    6.6613  -11.3581    0.0000 C   0  0  0  0  0  0  0  0  0  0  0  0
    6.6639  -10.5428    0.0000 C   0  0  0  0  0  0  0  0  0  0  0  0
    5.9601  -10.1346    0.0000 C   0  0  0  0  0  0  0  0  0  0  0  0
    5.2534  -10.5408    0.0000 C   0  0  0  0  0  0  0  0  0  0  0  0
    5.2548  -11.3593    0.0000 C   0  0  0  0  0  0  0  0  0  0  0  0
    5.9591  -11.7637    0.0000 C   0  0  0  0  0  0  0  0  0  0  0  0
    7.3652   -9.3110    0.0000 O   0  0  0  0  0  0  0  0  0  0  0  0
    8.7739  -12.5808    0.0000 C   0  0  0  0  0  0  0  0  0  0  0  0
   10.1849  -10.1273    0.0000 C   0  0  0  0  0  0  0  0  0  0  0  0
    7.3678  -12.5798    0.0000 C   0  0  0  0  0  0  0  0  0  0  0  0
    6.6607  -12.9894    0.0000 C   0  0  0  0  0  0  0  0  0  0  0  0
    6.6619  -13.8066    0.0000 C   0  0  0  0  0  0  0  0  0  0  0  0
    5.9548  -14.2162    0.0000 C   0  0  0  0  0  0  0  0  0  0  0  0
    5.2465  -13.8087    0.0000 N   0  0  0  0  0  0  0  0  0  0  0  0
    5.2481  -12.9939    0.0000 C   0  0  0  0  0  0  0  0  0  0  0  0
    4.5439  -12.5864    0.0000 C   0  0  0  0  0  0  0  0  0  0  0  0
    3.8343  -12.9926    0.0000 N   0  0  0  0  0  0  0  0  0  0  0  0
    3.8336  -13.8107    0.0000 C   0  0  0  0  0  0  0  0  0  0  0  0
    4.5423  -14.2227    0.0000 C   0  0  0  0  0  0  0  0  0  0  0  0
    3.1276  -12.5823    0.0000 C   0  0  0  0  0  0  0  0  0  0  0  0
    3.1295  -11.7652    0.0000 C   0  0  0  0  0  0  0  0  0  0  0  0
    2.4227  -11.3549    0.0000 O   0  0  0  0  0  0  0  0  0  0  0  0
 10  2  1  0
  9  1  1  0
  1  4  1  0
  3  2  1  0
  3  4  2  0
  4  5  1  0
  5  6  2  0
  6  7  1  0
  7  8  2  0
  8  3  1  0
  9 10  2  0
 10 11  1  0
 11 12  2  0
 12 13  1  0
 13 14  2  0
 14  9  1  0
  2 15  2  0
  5 16  1  0
  7 17  1  0
  1 18  1  0
 18 19  1  0
 19 20  1  0
 20 21  1  0
 21 22  1  0
 22 23  1  0
 22 27  1  0
 23 24  1  0
 24 25  1  0
 25 26  1  0
 26 27  1  0
 25 28  1  0
 28 29  1  0
 29 30  1  0
M  END
>  <Classification>  (488) 
1

>  <pchembl>  (488) 
8.9

>  <InChI_steorem>  (488) 
InChI=1S/C25H33N3O2/c1-19-17-20(2)24-22(18-19)25(30)21-7-3-4-8-23(21)28(24)10-6-5-9-26-11-13-27(14-12-26)15-16-29/h3-4,7-8,17-18,29H,5-6,9-16H2,1-2H3

>  <source>  (488) 
ChEMBL25

>  <source_id>  (488) 
25

>  <optional_reference>  (488) 
10.1016/j.ejmech.2017.02.022

>  <optional_origin>  (488) 
None

>  <target>  (488) 
MDR1

$$$$

     RDKit          2D

 41 45  0  0  0  0  0  0  0  0999 V2000
   20.3499  -28.5109    0.0000 C   0  0  0  0  0  0  0  0  0  0  0  0
   20.3488  -29.3345    0.0000 C   0  0  0  0  0  0  0  0  0  0  0  0
   21.0610  -29.7435    0.0000 C   0  0  0  0  0  0  0  0  0  0  0  0
   21.7748  -29.3340    0.0000 C   0  0  0  0  0  0  0  0  0  0  0  0
   21.7719  -28.5073    0.0000 C   0  0  0  0  0  0  0  0  0  0  0  0
   21.0592  -28.0979    0.0000 C   0  0  0  0  0  0  0  0  0  0  0  0
   22.4872  -29.7415    0.0000 C   0  0  0  0  0  0  0  0  0  0  0  0
   22.4885  -30.5629    0.0000 O   0  0  0  0  0  0  0  0  0  0  0  0
   23.1943  -29.3318    0.0000 N   0  0  0  0  0  0  0  0  0  0  0  0
   23.9068  -29.7393    0.0000 C   0  0  0  0  0  0  0  0  0  0  0  0
   22.4822  -28.0919    0.0000 O   0  0  0  0  0  0  0  0  0  0  0  0
   23.1915  -28.5019    0.0000 C   0  0  0  0  0  0  0  0  0  0  0  0
   23.9018  -28.0865    0.0000 C   0  0  0  0  0  0  0  0  0  0  0  0
   24.6511  -28.4232    0.0000 C   0  0  0  0  0  0  0  0  0  0  0  0
   25.1998  -27.8097    0.0000 N   0  0  0  0  0  0  0  0  0  0  0  0
   24.7844  -27.0994    0.0000 N   0  0  0  0  0  0  0  0  0  0  0  0
   23.9816  -27.2724    0.0000 N   0  0  0  0  0  0  0  0  0  0  0  0
   26.0180  -27.8093    0.0000 C   0  0  0  0  0  0  0  0  0  0  0  0
   26.4263  -27.0972    0.0000 C   0  0  0  0  0  0  0  0  0  0  0  0
   27.2476  -27.0968    0.0000 N   0  0  0  0  0  0  0  0  0  0  0  0
   27.6573  -27.8147    0.0000 C   0  0  0  0  0  0  0  0  0  0  0  0
   28.4751  -27.8162    0.0000 C   0  0  0  0  0  0  0  0  0  0  0  0
   27.6554  -26.3894    0.0000 C   0  0  0  0  0  0  0  0  0  0  0  0
   28.4794  -26.3926    0.0000 C   0  0  0  0  0  0  0  0  0  0  0  0
   28.8843  -27.1074    0.0000 C   0  0  0  0  0  0  0  0  0  0  0  0
   29.7045  -27.1112    0.0000 C   0  0  0  0  0  0  0  0  0  0  0  0
   30.1208  -26.4008    0.0000 C   0  0  0  0  0  0  0  0  0  0  0  0
   29.7068  -25.6852    0.0000 C   0  0  0  0  0  0  0  0  0  0  0  0
   28.8879  -25.6849    0.0000 C   0  0  0  0  0  0  0  0  0  0  0  0
   30.1199  -24.9736    0.0000 O   0  0  0  0  0  0  0  0  0  0  0  0
   30.9421  -26.4031    0.0000 O   0  0  0  0  0  0  0  0  0  0  0  0
   31.3487  -27.1161    0.0000 C   0  0  0  0  0  0  0  0  0  0  0  0
   30.9413  -24.9741    0.0000 C   0  0  0  0  0  0  0  0  0  0  0  0
   23.9034  -30.5591    0.0000 C   0  0  0  0  0  0  0  0  0  0  0  0
   24.6151  -30.9706    0.0000 C   0  0  0  0  0  0  0  0  0  0  0  0
   25.3273  -30.5567    0.0000 C   0  0  0  0  0  0  0  0  0  0  0  0
   25.3233  -29.7312    0.0000 C   0  0  0  0  0  0  0  0  0  0  0  0
   24.6111  -29.3275    0.0000 C   0  0  0  0  0  0  0  0  0  0  0  0
   26.0384  -30.9617    0.0000 N   0  0  0  0  0  0  0  0  0  0  0  0
   26.7446  -30.5504    0.0000 O   0  0  0  0  0  0  0  0  0  0  0  0
   26.0415  -31.7789    0.0000 O   0  0  0  0  0  0  0  0  0  0  0  0
  1  2  2  0
  2  3  1  0
  3  4  2  0
  4  5  1  0
  5  6  2  0
  6  1  1  0
  4  7  1  0
  7  8  2  0
  7  9  1  0
  9 10  1  0
  5 11  1  0
 11 12  1  0
 12 13  1  0
 13 14  2  0
 14 15  1  0
 15 16  1  0
 16 17  2  0
 17 13  1  0
 15 18  1  0
 18 19  1  0
 19 20  1  0
 20 21  1  0
 20 23  1  0
 21 22  1  0
 22 25  1  0
 24 23  1  0
 24 25  2  0
 25 26  1  0
 26 27  2  0
 27 28  1  0
 28 29  2  0
 29 24  1  0
 28 30  1  0
 27 31  1  0
 31 32  1  0
 30 33  1  0
 10 34  2  0
 34 35  1  0
 35 36  2  0
 36 37  1  0
 37 38  2  0
 38 10  1  0
 39 40  2  0
 39 41  1  0
 36 39  1  0
M  CHG  2  39   1  41  -1
M  END
>  <Classification>  (489) 
0

>  <pchembl>  (489) 
4.68

>  <InChI_steorem>  (489) 
InChI=1S/C29H30N6O6/c1-39-27-15-20-11-12-33(17-21(20)16-28(27)40-2)13-14-34-18-23(31-32-34)19-41-26-6-4-3-5-25(26)29(36)30-22-7-9-24(10-8-22)35(37)38/h3-10,15-16,18H,11-14,17,19H2,1-2H3,(H,30,36)

>  <source>  (489) 
ChEMBL25

>  <source_id>  (489) 
25

>  <optional_reference>  (489) 
10.1016/j.bmc.2017.06.015

>  <optional_origin>  (489) 
None

>  <target>  (489) 
MDR1

$$$$

     RDKit          2D

 29 32  0  0  0  0  0  0  0  0999 V2000
   24.4988   -2.7694    0.0000 N   0  0  0  0  0  0  0  0  0  0  0  0
   24.4988   -1.1350    0.0000 C   0  0  0  0  0  0  0  0  0  0  0  0
   25.2040   -1.5477    0.0000 C   0  0  0  0  0  0  0  0  0  0  0  0
   25.2024   -2.3631    0.0000 C   0  0  0  0  0  0  0  0  0  0  0  0
   25.9067   -2.7704    0.0000 C   0  0  0  0  0  0  0  0  0  0  0  0
   26.6129   -2.3634    0.0000 C   0  0  0  0  0  0  0  0  0  0  0  0
   26.6106   -1.5449    0.0000 C   0  0  0  0  0  0  0  0  0  0  0  0
   25.9058   -1.1413    0.0000 C   0  0  0  0  0  0  0  0  0  0  0  0
   23.7935   -2.3649    0.0000 C   0  0  0  0  0  0  0  0  0  0  0  0
   23.7960   -1.5495    0.0000 C   0  0  0  0  0  0  0  0  0  0  0  0
   23.0923   -1.1414    0.0000 C   0  0  0  0  0  0  0  0  0  0  0  0
   22.3855   -1.5476    0.0000 C   0  0  0  0  0  0  0  0  0  0  0  0
   22.3869   -2.3661    0.0000 C   0  0  0  0  0  0  0  0  0  0  0  0
   23.0912   -2.7705    0.0000 C   0  0  0  0  0  0  0  0  0  0  0  0
   24.4973   -0.3178    0.0000 O   0  0  0  0  0  0  0  0  0  0  0  0
   25.9060   -3.5876    0.0000 C   0  0  0  0  0  0  0  0  0  0  0  0
   27.3170   -1.1341    0.0000 C   0  0  0  0  0  0  0  0  0  0  0  0
   24.4999   -3.5866    0.0000 C   0  0  0  0  0  0  0  0  0  0  0  0
   23.7928   -3.9962    0.0000 C   0  0  0  0  0  0  0  0  0  0  0  0
   23.7940   -4.8134    0.0000 C   0  0  0  0  0  0  0  0  0  0  0  0
   23.0869   -5.2230    0.0000 N   0  0  0  0  0  0  0  0  0  0  0  0
   22.3803   -4.8152    0.0000 C   0  0  0  0  0  0  0  0  0  0  0  0
   21.6753   -5.2213    0.0000 C   0  0  0  0  0  0  0  0  0  0  0  0
   21.6722   -6.0388    0.0000 N   0  0  0  0  0  0  0  0  0  0  0  0
   22.3804   -6.4486    0.0000 C   0  0  0  0  0  0  0  0  0  0  0  0
   23.0916   -6.0408    0.0000 C   0  0  0  0  0  0  0  0  0  0  0  0
   20.9636   -6.4458    0.0000 C   0  0  0  0  0  0  0  0  0  0  0  0
   20.2568   -6.0356    0.0000 C   0  0  0  0  0  0  0  0  0  0  0  0
   19.5482   -6.4425    0.0000 O   0  0  0  0  0  0  0  0  0  0  0  0
 10  2  1  0
  9  1  1  0
  1  4  1  0
  3  2  1  0
  3  4  2  0
  4  5  1  0
  5  6  2  0
  6  7  1  0
  7  8  2  0
  8  3  1  0
  9 10  2  0
 10 11  1  0
 11 12  2  0
 12 13  1  0
 13 14  2  0
 14  9  1  0
  2 15  2  0
  5 16  1  0
  7 17  1  0
  1 18  1  0
 18 19  1  0
 19 20  1  0
 20 21  1  0
 21 22  1  0
 21 26  1  0
 22 23  1  0
 23 24  1  0
 24 25  1  0
 25 26  1  0
 24 27  1  0
 27 28  1  0
 28 29  1  0
M  END
>  <Classification>  (490) 
1

>  <pchembl>  (490) 
8.1

>  <InChI_steorem>  (490) 
InChI=1S/C24H31N3O2/c1-18-16-19(2)23-21(17-18)24(29)20-6-3-4-7-22(20)27(23)9-5-8-25-10-12-26(13-11-25)14-15-28/h3-4,6-7,16-17,28H,5,8-15H2,1-2H3

>  <source>  (490) 
ChEMBL25

>  <source_id>  (490) 
25

>  <optional_reference>  (490) 
10.1016/j.ejmech.2017.02.022

>  <optional_origin>  (490) 
None

>  <target>  (490) 
MDR1

$$$$

     RDKit          2D

 43 47  0  0  0  0  0  0  0  0999 V2000
    9.4919   -9.9747    0.0000 C   0  0  0  0  0  0  0  0  0  0  0  0
   15.4381  -15.0105    0.0000 C   0  0  0  0  0  0  0  0  0  0  0  0
   11.4814  -13.1134    0.0000 C   0  0  0  0  0  0  0  0  0  0  0  0
   15.3608  -16.6590    0.0000 C   0  0  0  0  0  0  0  0  0  0  0  0
   14.7099  -15.3904    0.0000 C   0  0  0  0  0  0  0  0  0  0  0  0
    7.5863   -8.9783    0.0000 C   0  0  0  0  0  0  0  0  0  0  0  0
    9.5712  -12.1317    0.0000 N   0  0  0  0  0  0  0  0  0  0  0  0
   16.1349  -15.4528    0.0000 C   0  0  0  0  0  0  0  0  0  0  0  0
   11.3368  -14.5513    0.0000 N   0  0  0  0  0  0  0  0  0  0  0  0
   11.6835  -11.7240    0.0000 C   0  0  0  0  0  0  0  0  0  0  0  0
    9.9947   -9.3340    0.0000 O   0  0  0  0  0  0  0  0  0  0  0  0
   12.1927  -11.0900    0.0000 O   0  0  0  0  0  0  0  0  0  0  0  0
   10.8863  -11.6035    0.0000 C   0  0  0  0  0  0  0  0  0  0  0  0
    9.7862  -10.7277    0.0000 C   0  0  0  0  0  0  0  0  0  0  0  0
   10.5897  -10.8505    0.0000 C   0  0  0  0  0  0  0  0  0  0  0  0
   14.6689  -16.2131    0.0000 C   0  0  0  0  0  0  0  0  0  0  0  0
   10.3812  -12.2334    0.0000 C   0  0  0  0  0  0  0  0  0  0  0  0
   13.2953  -15.3170    0.0000 C   0  0  0  0  0  0  0  0  0  0  0  0
    8.4821  -11.2412    0.0000 C   0  0  0  0  0  0  0  0  0  0  0  0
   12.5619  -14.0683    0.0000 C   0  0  0  0  0  0  0  0  0  0  0  0
   11.9841  -12.4770    0.0000 O   0  0  0  0  0  0  0  0  0  0  0  0
   16.0980  -16.2769    0.0000 C   0  0  0  0  0  0  0  0  0  0  0  0
   11.8533  -15.1724    0.0000 N   0  0  0  0  0  0  0  0  0  0  0  0
    8.6883   -9.8517    0.0000 O   0  0  0  0  0  0  0  0  0  0  0  0
   12.6102  -14.8824    0.0000 N   0  0  0  0  0  0  0  0  0  0  0  0
    8.3942   -9.0989    0.0000 C   0  0  0  0  0  0  0  0  0  0  0  0
   11.7757  -13.8665    0.0000 C   0  0  0  0  0  0  0  0  0  0  0  0
   14.0171  -14.9442    0.0000 C   0  0  0  0  0  0  0  0  0  0  0  0
    9.2791  -11.3642    0.0000 C   0  0  0  0  0  0  0  0  0  0  0  0
   10.6776  -12.9906    0.0000 C   0  0  0  0  0  0  0  0  0  0  0  0
   11.2976   -9.9724    0.0000 C   0  0  0  0  0  0  0  0  0  0  0  0
   11.7547   -8.7108    0.0000 O   0  0  0  0  0  0  0  0  0  0  0  0
   12.7918  -11.2418    0.0000 C   0  0  0  0  0  0  0  0  0  0  0  0
   10.3160   -8.8722    0.0000 C   0  0  0  0  0  0  0  0  0  0  0  0
   14.2568  -10.4370    0.0000 C   0  0  0  0  0  0  0  0  0  0  0  0
   12.8142  -10.4062    0.0000 C   0  0  0  0  0  0  0  0  0  0  0  0
   12.1020   -9.9755    0.0000 C   0  0  0  0  0  0  0  0  0  0  0  0
   13.5026  -11.6766    0.0000 C   0  0  0  0  0  0  0  0  0  0  0  0
   13.5406  -10.0081    0.0000 C   0  0  0  0  0  0  0  0  0  0  0  0
   14.9428  -11.7010    0.0000 Br  0  0  0  0  0  0  0  0  0  0  0  0
   11.0760   -9.1543    0.0000 C   0  0  0  0  0  0  0  0  0  0  0  0
   14.2384  -11.2736    0.0000 C   0  0  0  0  0  0  0  0  0  0  0  0
   12.3847   -9.2177    0.0000 N   0  0  0  0  0  0  0  0  0  0  0  0
 29  7  1  0
 27  3  1  0
 25 23  1  0
 17  7  1  0
  1 24  1  0
 10 12  2  0
 22  8  2  0
 10 13  1  0
  4 22  1  0
  3 21  1  0
  2  5  2  0
 18 25  1  0
 27 20  2  0
 14  1  1  0
 23  9  2  0
 26  6  1  0
  9 27  1  0
 16  4  2  0
 17 30  1  0
 28 18  1  0
  5 16  1  0
 14 29  2  0
 21 10  1  0
 13 15  1  0
  8  2  1  0
  1 11  2  0
 17 13  2  0
 25 20  1  0
 28  5  1  0
 24 26  1  0
 15 14  1  0
 29 19  1  0
 15 31  1  0
 41 34  1  0
 37 36  1  0
 35 39  2  0
 31 41  2  0
 42 40  1  0
 36 33  2  0
 33 38  1  0
 43 37  2  0
 32 43  1  0
 32 41  1  0
 38 42  2  0
 37 31  1  0
 42 35  1  0
 39 36  1  0
M  END
>  <Classification>  (491) 
1

>  <pchembl>  (491) 
5.78

>  <InChI_steorem>  (491) 
InChI=1S/C32H32BrN5O5/c1-5-41-31(39)26-19(2)34-20(3)27(29(26)28-21(4)43-36-30(28)23-11-13-24(33)14-12-23)32(40)42-18-25-17-38(37-35-25)16-15-22-9-7-6-8-10-22/h6-14,17,29,34H,5,15-16,18H2,1-4H3

>  <source>  (491) 
ChEMBL25

>  <source_id>  (491) 
25

>  <optional_reference>  (491) 
10.1016/j.bmc.2017.04.008

>  <optional_origin>  (491) 
None

>  <target>  (491) 
MDR1

$$$$

     RDKit          2D

 39 42  0  0  0  0  0  0  0  0999 V2000
   10.6978   -8.0316    0.0000 F   0  0  0  0  0  0  0  0  0  0  0  0
    9.9920   -7.6230    0.0000 C   0  0  0  0  0  0  0  0  0  0  0  0
    9.9910   -8.4385    0.0000 F   0  0  0  0  0  0  0  0  0  0  0  0
    2.7143   -3.5989    0.0000 C   0  0  0  0  0  0  0  0  0  0  0  0
    2.7132   -4.4184    0.0000 C   0  0  0  0  0  0  0  0  0  0  0  0
    3.4212   -4.8274    0.0000 C   0  0  0  0  0  0  0  0  0  0  0  0
    4.1309   -4.4180    0.0000 C   0  0  0  0  0  0  0  0  0  0  0  0
    4.1280   -3.5953    0.0000 C   0  0  0  0  0  0  0  0  0  0  0  0
    3.4194   -3.1900    0.0000 C   0  0  0  0  0  0  0  0  0  0  0  0
    2.0051   -4.8265    0.0000 O   0  0  0  0  0  0  0  0  0  0  0  0
    1.2977   -4.4173    0.0000 C   0  0  0  0  0  0  0  0  0  0  0  0
    2.0065   -3.1905    0.0000 O   0  0  0  0  0  0  0  0  0  0  0  0
    1.2989   -3.5992    0.0000 C   0  0  0  0  0  0  0  0  0  0  0  0
    3.4210   -5.6446    0.0000 O   0  0  0  0  0  0  0  0  0  0  0  0
    2.7132   -6.0530    0.0000 C   0  0  0  0  0  0  0  0  0  0  0  0
    4.8342   -3.1840    0.0000 C   0  0  0  0  0  0  0  0  0  0  0  0
    5.5434   -3.5900    0.0000 N   0  0  0  0  0  0  0  0  0  0  0  0
    4.8311   -2.3669    0.0000 O   0  0  0  0  0  0  0  0  0  0  0  0
    6.2496   -3.1787    0.0000 C   0  0  0  0  0  0  0  0  0  0  0  0
    6.9588   -3.5846    0.0000 C   0  0  0  0  0  0  0  0  0  0  0  0
    7.0452   -4.3968    0.0000 N   0  0  0  0  0  0  0  0  0  0  0  0
    7.8452   -4.5637    0.0000 C   0  0  0  0  0  0  0  0  0  0  0  0
    8.2511   -3.8544    0.0000 C   0  0  0  0  0  0  0  0  0  0  0  0
    7.7019   -3.2493    0.0000 S   0  0  0  0  0  0  0  0  0  0  0  0
    8.1803   -5.3090    0.0000 C   0  0  0  0  0  0  0  0  0  0  0  0
    7.7025   -5.9719    0.0000 O   0  0  0  0  0  0  0  0  0  0  0  0
    8.9934   -5.3914    0.0000 N   0  0  0  0  0  0  0  0  0  0  0  0
    9.3286   -6.1367    0.0000 C   0  0  0  0  0  0  0  0  0  0  0  0
    8.8500   -6.7954    0.0000 C   0  0  0  0  0  0  0  0  0  0  0  0
    9.1819   -7.5382    0.0000 C   0  0  0  0  0  0  0  0  0  0  0  0
   10.4749   -6.9622    0.0000 C   0  0  0  0  0  0  0  0  0  0  0  0
   10.1419   -6.2131    0.0000 C   0  0  0  0  0  0  0  0  0  0  0  0
    6.2465   -2.3615    0.0000 C   0  0  0  0  0  0  0  0  0  0  0  0
    6.9527   -1.9503    0.0000 C   0  0  0  0  0  0  0  0  0  0  0  0
    7.6584   -2.3601    0.0000 C   0  0  0  0  0  0  0  0  0  0  0  0
    8.3640   -1.9495    0.0000 C   0  0  0  0  0  0  0  0  0  0  0  0
    8.3614   -1.1315    0.0000 C   0  0  0  0  0  0  0  0  0  0  0  0
    7.6472   -0.7257    0.0000 C   0  0  0  0  0  0  0  0  0  0  0  0
    6.9444   -1.1387    0.0000 C   0  0  0  0  0  0  0  0  0  0  0  0
  2  1  1  0
  3  2  1  0
  4  5  2  0
  5  6  1  0
  6  7  2  0
  7  8  1  0
  8  9  2  0
  9  4  1  0
  5 10  1  0
 10 11  1  0
  4 12  1  0
 12 13  1  0
  6 14  1  0
 14 15  1  0
  8 16  1  0
 16 17  1  0
 16 18  2  0
 17 19  1  0
 19 20  1  0
 20 21  2  0
 21 22  1  0
 22 23  2  0
 23 24  1  0
 24 20  1  0
 22 25  1  0
 25 26  2  0
 25 27  1  0
 27 28  1  0
 28 29  1  0
 28 32  1  0
 29 30  1  0
 30  2  1  0
  2 31  1  0
 31 32  1  0
 19 33  1  0
 33 34  1  0
 34 35  2  0
 35 36  1  0
 36 37  2  0
 37 38  1  0
 38 39  2  0
 39 34  1  0
M  END
>  <Classification>  (492) 
1

>  <pchembl>  (492) 
6.12

>  <InChI_steorem>  (492) 
InChI=1S/C28H31F2N3O5S/c1-36-22-14-18(15-23(37-2)24(22)38-3)25(34)32-20(13-17-7-5-4-6-8-17)27-33-21(16-39-27)26(35)31-19-9-11-28(29,30)12-10-19/h4-8,14-16,19-20H,9-13H2,1-3H3,(H,31,35)(H,32,34)

>  <source>  (492) 
ChEMBL25

>  <source_id>  (492) 
25

>  <optional_reference>  (492) 
10.1021/acs.jmedchem.7b01340

>  <optional_origin>  (492) 
None

>  <target>  (492) 
MDR1

$$$$

     RDKit          2D

 25 28  0  0  0  0  0  0  0  0999 V2000
   30.1150  -12.3982    0.0000 C   0  0  0  0  0  0  0  0  0  0  0  0
   30.1138  -13.2177    0.0000 C   0  0  0  0  0  0  0  0  0  0  0  0
   30.8219  -13.6267    0.0000 C   0  0  0  0  0  0  0  0  0  0  0  0
   30.8201  -11.9893    0.0000 C   0  0  0  0  0  0  0  0  0  0  0  0
   31.5287  -12.3946    0.0000 C   0  0  0  0  0  0  0  0  0  0  0  0
   31.5295  -13.2136    0.0000 C   0  0  0  0  0  0  0  0  0  0  0  0
   32.2380  -13.6206    0.0000 N   0  0  0  0  0  0  0  0  0  0  0  0
   32.9463  -13.2098    0.0000 C   0  0  0  0  0  0  0  0  0  0  0  0
   32.9415  -12.3877    0.0000 N   0  0  0  0  0  0  0  0  0  0  0  0
   32.2324  -11.9843    0.0000 C   0  0  0  0  0  0  0  0  0  0  0  0
   32.2281  -11.1671    0.0000 N   0  0  0  0  0  0  0  0  0  0  0  0
   32.9336  -10.7548    0.0000 C   0  0  0  0  0  0  0  0  0  0  0  0
   33.6389  -11.1630    0.0000 C   0  0  0  0  0  0  0  0  0  0  0  0
   34.3440  -10.7514    0.0000 C   0  0  0  0  0  0  0  0  0  0  0  0
   34.3401   -9.9333    0.0000 C   0  0  0  0  0  0  0  0  0  0  0  0
   33.6252   -9.5287    0.0000 C   0  0  0  0  0  0  0  0  0  0  0  0
   32.9231   -9.9427    0.0000 C   0  0  0  0  0  0  0  0  0  0  0  0
   33.6520  -13.6116    0.0000 C   0  0  0  0  0  0  0  0  0  0  0  0
   33.6538  -14.4299    0.0000 C   0  0  0  0  0  0  0  0  0  0  0  0
   34.3623  -14.8356    0.0000 C   0  0  0  0  0  0  0  0  0  0  0  0
   35.0694  -14.4242    0.0000 N   0  0  0  0  0  0  0  0  0  0  0  0
   35.0636  -13.6028    0.0000 C   0  0  0  0  0  0  0  0  0  0  0  0
   34.3545  -13.2008    0.0000 C   0  0  0  0  0  0  0  0  0  0  0  0
   33.6180   -8.7115    0.0000 O   0  0  0  0  0  0  0  0  0  0  0  0
   34.3221   -8.2967    0.0000 C   0  0  0  0  0  0  0  0  0  0  0  0
  1  2  2  0
  2  3  1  0
  3  6  2  0
  5  4  2  0
  4  1  1  0
  5  6  1  0
  6  7  1  0
  7  8  2  0
  8  9  1  0
  9 10  2  0
 10  5  1  0
 10 11  1  0
 11 12  1  0
 12 13  2  0
 13 14  1  0
 14 15  2  0
 15 16  1  0
 16 17  2  0
 17 12  1  0
 18 19  2  0
 19 20  1  0
 20 21  2  0
 21 22  1  0
 22 23  2  0
 23 18  1  0
  8 18  1  0
 16 24  1  0
 24 25  1  0
M  END
>  <Classification>  (493) 
1

>  <pchembl>  (493) 
5.26

>  <InChI_steorem>  (493) 
InChI=1S/C20H16N4O/c1-25-16-6-4-5-15(13-16)22-20-17-7-2-3-8-18(17)23-19(24-20)14-9-11-21-12-10-14/h2-13H,1H3,(H,22,23,24)

>  <source>  (493) 
ChEMBL25

>  <source_id>  (493) 
25

>  <optional_reference>  (493) 
10.1021/acs.jmedchem.7b00441

>  <optional_origin>  (493) 
None

>  <target>  (493) 
MDR1

$$$$

     RDKit          2D

 26 29  0  0  0  0  0  0  0  0999 V2000
   23.7229   -5.7414    0.0000 C   0  0  0  0  0  0  0  0  0  0  0  0
   23.7229   -6.5665    0.0000 C   0  0  0  0  0  0  0  0  0  0  0  0
   24.4386   -6.9813    0.0000 C   0  0  0  0  0  0  0  0  0  0  0  0
   25.1498   -6.5665    0.0000 C   0  0  0  0  0  0  0  0  0  0  0  0
   25.1498   -5.7414    0.0000 C   0  0  0  0  0  0  0  0  0  0  0  0
   24.4386   -5.3311    0.0000 C   0  0  0  0  0  0  0  0  0  0  0  0
   25.9362   -5.4908    0.0000 C   0  0  0  0  0  0  0  0  0  0  0  0
   26.4196   -6.1562    0.0000 C   0  0  0  0  0  0  0  0  0  0  0  0
   25.9362   -6.8216    0.0000 N   0  0  0  0  0  0  0  0  0  0  0  0
   27.2398   -6.0683    0.0000 C   0  0  0  0  0  0  0  0  0  0  0  0
   27.7232   -6.7337    0.0000 C   0  0  0  0  0  0  0  0  0  0  0  0
   28.5435   -6.6458    0.0000 C   0  0  0  0  0  0  0  0  0  0  0  0
   28.8804   -5.8971    0.0000 C   0  0  0  0  0  0  0  0  0  0  0  0
   28.3925   -5.2317    0.0000 C   0  0  0  0  0  0  0  0  0  0  0  0
   27.5723   -5.3151    0.0000 N   0  0  0  0  0  0  0  0  0  0  0  0
   27.0889   -4.6497    0.0000 C   0  0  0  0  0  0  0  0  0  0  0  0
   26.2732   -4.7376    0.0000 C   0  0  0  0  0  0  0  0  0  0  0  0
   27.6731   -4.0654    0.0000 C   0  0  0  0  0  0  0  0  0  0  0  0
   28.3844   -3.6551    0.0000 C   0  0  0  0  0  0  0  0  0  0  0  0
   28.9732   -4.2349    0.0000 O   0  0  0  0  0  0  0  0  0  0  0  0
   29.7938   -4.2349    0.0000 C   0  0  0  0  0  0  0  0  0  0  0  0
   28.3844   -2.8301    0.0000 O   0  0  0  0  0  0  0  0  0  0  0  0
   26.7773   -5.1076    0.0000 C   0  0  0  0  0  0  0  0  0  0  0  0
   29.7054   -5.8971    0.0000 C   0  0  0  0  0  0  0  0  0  0  0  0
   30.1158   -6.6084    0.0000 C   0  0  0  0  0  0  0  0  0  0  0  0
   26.8250   -6.7841    0.0000 O   0  0  0  0  0  0  0  0  0  0  0  0
  1  2  2  0
  2  3  1  0
  3  4  2  0
  4  5  1  0
  5  6  2  0
  6  1  1  0
  7  5  1  0
  8  7  2  0
  9  8  1  0
  4  9  1  0
  8 10  1  0
 10 11  1  0
 11 12  1  0
 12 13  1  0
 13 14  1  0
 14 15  1  0
 15 16  1  0
 16 17  1  0
 17  7  1  0
 16 18  1  0
 12 18  1  0
 18 19  1  0
 19 20  1  0
 20 21  1  0
 19 22  2  0
 15 23  1  0
 13 24  1  0
 24 25  1  0
 10 26  1  0
M  END
>  <Classification>  (494) 
0

>  <pchembl>  (494) 
4.08

>  <InChI_steorem>  (494) 
InChI=1S/C21H28N2O3/c1-4-12-11-23(2)17-9-15-13-7-5-6-8-16(13)22-20(15)18(24)10-14(12)19(17)21(25)26-3/h5-8,12,14,17-19,22,24H,4,9-11H2,1-3H3

>  <source>  (494) 
ChEMBL25

>  <source_id>  (494) 
25

>  <optional_reference>  (494) 
10.1016/j.ejmech.2017.01.044

>  <optional_origin>  (494) 
None

>  <target>  (494) 
MDR1

$$$$

     RDKit          2D

 17 19  0  0  0  0  0  0  0  0999 V2000
    4.6881   -3.3926    0.0000 N   0  0  0  0  0  0  0  0  0  0  0  0
    4.6881   -1.7582    0.0000 C   0  0  0  0  0  0  0  0  0  0  0  0
    5.3933   -2.1709    0.0000 C   0  0  0  0  0  0  0  0  0  0  0  0
    5.3917   -2.9863    0.0000 C   0  0  0  0  0  0  0  0  0  0  0  0
    6.0960   -3.3936    0.0000 C   0  0  0  0  0  0  0  0  0  0  0  0
    6.8023   -2.9866    0.0000 C   0  0  0  0  0  0  0  0  0  0  0  0
    6.7999   -2.1681    0.0000 C   0  0  0  0  0  0  0  0  0  0  0  0
    6.0951   -1.7645    0.0000 C   0  0  0  0  0  0  0  0  0  0  0  0
    3.9828   -2.9881    0.0000 C   0  0  0  0  0  0  0  0  0  0  0  0
    3.9853   -2.1727    0.0000 C   0  0  0  0  0  0  0  0  0  0  0  0
    3.2816   -1.7646    0.0000 C   0  0  0  0  0  0  0  0  0  0  0  0
    2.5748   -2.1708    0.0000 C   0  0  0  0  0  0  0  0  0  0  0  0
    2.5762   -2.9893    0.0000 C   0  0  0  0  0  0  0  0  0  0  0  0
    3.2805   -3.3937    0.0000 C   0  0  0  0  0  0  0  0  0  0  0  0
    4.6866   -0.9410    0.0000 O   0  0  0  0  0  0  0  0  0  0  0  0
    6.0953   -4.2108    0.0000 C   0  0  0  0  0  0  0  0  0  0  0  0
    7.5063   -1.7573    0.0000 C   0  0  0  0  0  0  0  0  0  0  0  0
 10  2  1  0
  9  1  1  0
  1  4  1  0
  3  2  1  0
  3  4  2  0
  4  5  1  0
  5  6  2  0
  6  7  1  0
  7  8  2  0
  8  3  1  0
  9 10  2  0
 10 11  1  0
 11 12  2  0
 12 13  1  0
 13 14  2  0
 14  9  1  0
  2 15  2  0
  5 16  1  0
  7 17  1  0
M  END
>  <Classification>  (495) 
1

>  <pchembl>  (495) 
7.57

>  <InChI_steorem>  (495) 
InChI=1S/C15H13NO/c1-9-7-10(2)14-12(8-9)15(17)11-5-3-4-6-13(11)16-14/h3-8H,1-2H3,(H,16,17)

>  <source>  (495) 
ChEMBL25

>  <source_id>  (495) 
25

>  <optional_reference>  (495) 
10.1016/j.ejmech.2017.02.022

>  <optional_origin>  (495) 
None

>  <target>  (495) 
MDR1

$$$$

     RDKit          2D

 39 43  0  0  0  0  0  0  0  0999 V2000
    9.8296  -13.0833    0.0000 C   0  0  0  0  0  0  0  0  0  0  0  0
    9.8285  -13.9069    0.0000 C   0  0  0  0  0  0  0  0  0  0  0  0
   10.5407  -14.3159    0.0000 C   0  0  0  0  0  0  0  0  0  0  0  0
   11.2545  -13.9065    0.0000 C   0  0  0  0  0  0  0  0  0  0  0  0
   11.2516  -13.0797    0.0000 C   0  0  0  0  0  0  0  0  0  0  0  0
   10.5389  -12.6703    0.0000 C   0  0  0  0  0  0  0  0  0  0  0  0
   11.9669  -14.3140    0.0000 C   0  0  0  0  0  0  0  0  0  0  0  0
   11.9682  -15.1353    0.0000 O   0  0  0  0  0  0  0  0  0  0  0  0
   12.6740  -13.9042    0.0000 N   0  0  0  0  0  0  0  0  0  0  0  0
   13.3865  -14.3117    0.0000 C   0  0  0  0  0  0  0  0  0  0  0  0
   11.9619  -12.6643    0.0000 O   0  0  0  0  0  0  0  0  0  0  0  0
   12.6712  -13.0743    0.0000 C   0  0  0  0  0  0  0  0  0  0  0  0
   13.3815  -12.6590    0.0000 C   0  0  0  0  0  0  0  0  0  0  0  0
   14.1308  -12.9956    0.0000 C   0  0  0  0  0  0  0  0  0  0  0  0
   14.6795  -12.3821    0.0000 N   0  0  0  0  0  0  0  0  0  0  0  0
   14.2641  -11.6718    0.0000 N   0  0  0  0  0  0  0  0  0  0  0  0
   13.4613  -11.8448    0.0000 N   0  0  0  0  0  0  0  0  0  0  0  0
   15.4977  -12.3817    0.0000 C   0  0  0  0  0  0  0  0  0  0  0  0
   15.9060  -11.6696    0.0000 C   0  0  0  0  0  0  0  0  0  0  0  0
   16.7273  -11.6692    0.0000 N   0  0  0  0  0  0  0  0  0  0  0  0
   17.1370  -12.3871    0.0000 C   0  0  0  0  0  0  0  0  0  0  0  0
   17.9548  -12.3887    0.0000 C   0  0  0  0  0  0  0  0  0  0  0  0
   17.1351  -10.9618    0.0000 C   0  0  0  0  0  0  0  0  0  0  0  0
   17.9591  -10.9650    0.0000 C   0  0  0  0  0  0  0  0  0  0  0  0
   18.3639  -11.6799    0.0000 C   0  0  0  0  0  0  0  0  0  0  0  0
   19.1842  -11.6836    0.0000 C   0  0  0  0  0  0  0  0  0  0  0  0
   19.6005  -10.9732    0.0000 C   0  0  0  0  0  0  0  0  0  0  0  0
   19.1865  -10.2576    0.0000 C   0  0  0  0  0  0  0  0  0  0  0  0
   18.3676  -10.2574    0.0000 C   0  0  0  0  0  0  0  0  0  0  0  0
   19.5996   -9.5460    0.0000 O   0  0  0  0  0  0  0  0  0  0  0  0
   20.4218  -10.9755    0.0000 O   0  0  0  0  0  0  0  0  0  0  0  0
   20.8284  -11.6885    0.0000 C   0  0  0  0  0  0  0  0  0  0  0  0
   20.4209   -9.5465    0.0000 C   0  0  0  0  0  0  0  0  0  0  0  0
   13.3831  -15.1315    0.0000 C   0  0  0  0  0  0  0  0  0  0  0  0
   14.0948  -15.5430    0.0000 C   0  0  0  0  0  0  0  0  0  0  0  0
   14.8069  -15.1291    0.0000 C   0  0  0  0  0  0  0  0  0  0  0  0
   14.8030  -14.3036    0.0000 C   0  0  0  0  0  0  0  0  0  0  0  0
   14.0908  -13.8999    0.0000 C   0  0  0  0  0  0  0  0  0  0  0  0
   15.5162  -15.5350    0.0000 Cl  0  0  0  0  0  0  0  0  0  0  0  0
  1  2  2  0
  2  3  1  0
  3  4  2  0
  4  5  1  0
  5  6  2  0
  6  1  1  0
  4  7  1  0
  7  8  2  0
  7  9  1  0
  9 10  1  0
  5 11  1  0
 11 12  1  0
 12 13  1  0
 13 14  2  0
 14 15  1  0
 15 16  1  0
 16 17  2  0
 17 13  1  0
 15 18  1  0
 18 19  1  0
 19 20  1  0
 20 21  1  0
 20 23  1  0
 21 22  1  0
 22 25  1  0
 24 23  1  0
 24 25  2  0
 25 26  1  0
 26 27  2  0
 27 28  1  0
 28 29  2  0
 29 24  1  0
 28 30  1  0
 27 31  1  0
 31 32  1  0
 30 33  1  0
 10 34  2  0
 34 35  1  0
 35 36  2  0
 36 37  1  0
 37 38  2  0
 38 10  1  0
 36 39  1  0
M  END
>  <Classification>  (496) 
1

>  <pchembl>  (496) 
5.16

>  <InChI_steorem>  (496) 
InChI=1S/C29H30ClN5O4/c1-37-27-15-20-11-12-34(17-21(20)16-28(27)38-2)13-14-35-18-24(32-33-35)19-39-26-6-4-3-5-25(26)29(36)31-23-9-7-22(30)8-10-23/h3-10,15-16,18H,11-14,17,19H2,1-2H3,(H,31,36)

>  <source>  (496) 
ChEMBL25

>  <source_id>  (496) 
25

>  <optional_reference>  (496) 
10.1016/j.bmc.2017.06.015

>  <optional_origin>  (496) 
None

>  <target>  (496) 
MDR1

$$$$

     RDKit          2D

 87 94  0  0  0  0  0  0  0  0999 V2000
   10.6384   -4.1341    0.0000 N   0  0  0  0  0  0  0  0  0  0  0  0
   10.0098   -3.6331    0.0000 O   0  0  0  0  0  0  0  0  0  0  0  0
    9.5545   -4.8908    0.0000 C   0  0  0  0  0  0  0  0  0  0  0  0
    9.3322   -4.0705    0.0000 C   0  0  0  0  0  0  0  0  0  0  0  0
   11.0473   -6.1544    0.0000 C   0  0  0  0  0  0  0  0  0  0  0  0
   12.4919   -6.1862    0.0000 C   0  0  0  0  0  0  0  0  0  0  0  0
   10.3586   -4.8909    0.0000 C   0  0  0  0  0  0  0  0  0  0  0  0
   11.0697   -5.3236    0.0000 C   0  0  0  0  0  0  0  0  0  0  0  0
   11.7951   -4.9237    0.0000 C   0  0  0  0  0  0  0  0  0  0  0  0
   11.7612   -6.5912    0.0000 C   0  0  0  0  0  0  0  0  0  0  0  0
   12.5101   -5.3503    0.0000 C   0  0  0  0  0  0  0  0  0  0  0  0
    8.5732   -3.7868    0.0000 C   0  0  0  0  0  0  0  0  0  0  0  0
   15.7892  -10.4404    0.0000 C   0  0  0  0  0  0  0  0  0  0  0  0
   24.8173  -10.1512    0.0000 C   0  0  0  0  0  0  0  0  0  0  0  0
   24.4389   -9.4370    0.0000 N   0  0  0  0  0  0  0  0  0  0  0  0
    8.8720   -5.7751    0.0000 C   0  0  0  0  0  0  0  0  0  0  0  0
   19.3146  -10.1864    0.0000 O   0  0  0  0  0  0  0  0  0  0  0  0
   29.4730  -12.3085    0.0000 O   0  0  0  0  0  0  0  0  0  0  0  0
   23.6384   -9.5701    0.0000 N   0  0  0  0  0  0  0  0  0  0  0  0
    8.0691   -5.6516    0.0000 C   0  0  0  0  0  0  0  0  0  0  0  0
   17.9123  -10.1241    0.0000 C   0  0  0  0  0  0  0  0  0  0  0  0
    6.9748   -4.7761    0.0000 O   0  0  0  0  0  0  0  0  0  0  0  0
    6.7678   -6.1674    0.0000 C   0  0  0  0  0  0  0  0  0  0  0  0
   10.1369  -10.0949    0.0000 N   0  0  0  0  0  0  0  0  0  0  0  0
    8.6666   -7.1598    0.0000 C   0  0  0  0  0  0  0  0  0  0  0  0
   10.4737   -6.0154    0.0000 O   0  0  0  0  0  0  0  0  0  0  0  0
   27.0283  -11.9353    0.0000 C   0  0  0  0  0  0  0  0  0  0  0  0
   12.2978   -9.8659    0.0000 C   0  0  0  0  0  0  0  0  0  0  0  0
    9.7634   -8.0354    0.0000 C   0  0  0  0  0  0  0  0  0  0  0  0
    7.8513   -7.0644    0.0000 N   0  0  0  0  0  0  0  0  0  0  0  0
   10.8930   -9.8036    0.0000 N   0  0  0  0  0  0  0  0  0  0  0  0
    5.8721   -3.9071    0.0000 C   0  0  0  0  0  0  0  0  0  0  0  0
    9.9705   -6.6482    0.0000 C   0  0  0  0  0  0  0  0  0  0  0  0
   25.9096  -11.0418    0.0000 O   0  0  0  0  0  0  0  0  0  0  0  0
    7.7778   -4.8995    0.0000 C   0  0  0  0  0  0  0  0  0  0  0  0
    9.1699   -6.5270    0.0000 C   0  0  0  0  0  0  0  0  0  0  0  0
   18.5920  -10.5565    0.0000 C   0  0  0  0  0  0  0  0  0  0  0  0
   26.7242  -11.1682    0.0000 C   0  0  0  0  0  0  0  0  0  0  0  0
   25.6135  -10.2748    0.0000 C   0  0  0  0  0  0  0  0  0  0  0  0
   15.1051   -9.9974    0.0000 O   0  0  0  0  0  0  0  0  0  0  0  0
   28.1420  -12.8265    0.0000 C   0  0  0  0  0  0  0  0  0  0  0  0
   26.8064  -13.3401    0.0000 N   0  0  0  0  0  0  0  0  0  0  0  0
    9.6183   -9.4754    0.0000 N   0  0  0  0  0  0  0  0  0  0  0  0
   26.5138  -12.5716    0.0000 C   0  0  0  0  0  0  0  0  0  0  0  0
   13.6988   -9.9416    0.0000 C   0  0  0  0  0  0  0  0  0  0  0  0
   22.7988  -10.7473    0.0000 C   0  0  0  0  0  0  0  0  0  0  0  0
   25.6995  -12.4472    0.0000 C   0  0  0  0  0  0  0  0  0  0  0  0
   30.0636  -13.8446    0.0000 C   0  0  0  0  0  0  0  0  0  0  0  0
   21.3966  -10.6809    0.0000 O   0  0  0  0  0  0  0  0  0  0  0  0
   20.7169  -10.2485    0.0000 C   0  0  0  0  0  0  0  0  0  0  0  0
    6.6834   -4.0241    0.0000 C   0  0  0  0  0  0  0  0  0  0  0  0
   19.9984  -10.6188    0.0000 C   0  0  0  0  0  0  0  0  0  0  0  0
   12.9847  -10.3137    0.0000 O   0  0  0  0  0  0  0  0  0  0  0  0
   10.8445   -8.9901    0.0000 C   0  0  0  0  0  0  0  0  0  0  0  0
    8.2785   -4.2644    0.0000 O   0  0  0  0  0  0  0  0  0  0  0  0
   17.1936  -10.4985    0.0000 O   0  0  0  0  0  0  0  0  0  0  0  0
   11.5769  -10.2400    0.0000 C   0  0  0  0  0  0  0  0  0  0  0  0
   30.3650  -14.6128    0.0000 C   0  0  0  0  0  0  0  0  0  0  0  0
   16.5098  -10.0661    0.0000 C   0  0  0  0  0  0  0  0  0  0  0  0
   27.9179  -14.2349    0.0000 C   0  0  0  0  0  0  0  0  0  0  0  0
   27.6209  -13.4667    0.0000 C   0  0  0  0  0  0  0  0  0  0  0  0
   29.2493  -13.7238    0.0000 O   0  0  0  0  0  0  0  0  0  0  0  0
   10.2684   -7.4002    0.0000 O   0  0  0  0  0  0  0  0  0  0  0  0
   24.2500  -10.7301    0.0000 C   0  0  0  0  0  0  0  0  0  0  0  0
   22.1192  -10.3108    0.0000 C   0  0  0  0  0  0  0  0  0  0  0  0
   27.2431  -10.5194    0.0000 O   0  0  0  0  0  0  0  0  0  0  0  0
    7.5640   -6.2951    0.0000 C   0  0  0  0  0  0  0  0  0  0  0  0
   27.8445  -12.0557    0.0000 C   0  0  0  0  0  0  0  0  0  0  0  0
   10.0590   -8.7957    0.0000 C   0  0  0  0  0  0  0  0  0  0  0  0
   23.5174  -10.3730    0.0000 N   0  0  0  0  0  0  0  0  0  0  0  0
   28.9561  -12.9516    0.0000 C   0  0  0  0  0  0  0  0  0  0  0  0
   14.3891  -10.3782    0.0000 C   0  0  0  0  0  0  0  0  0  0  0  0
    8.9604   -7.9160    0.0000 C   0  0  0  0  0  0  0  0  0  0  0  0
   28.6272  -11.0460    0.0000 C   0  0  0  0  0  0  0  0  0  0  0  0
   29.4473  -11.0805    0.0000 C   0  0  0  0  0  0  0  0  0  0  0  0
   28.0372   -8.8615    0.0000 C   0  0  0  0  0  0  0  0  0  0  0  0
   28.4101  -10.2483    0.0000 C   0  0  0  0  0  0  0  0  0  0  0  0
   26.4338   -9.2972    0.0000 C   0  0  0  0  0  0  0  0  0  0  0  0
   27.8169   -9.6649    0.0000 C   0  0  0  0  0  0  0  0  0  0  0  0
   26.6455   -8.4895    0.0000 C   0  0  0  0  0  0  0  0  0  0  0  0
   30.0230  -11.5971    0.0000 C   0  0  0  0  0  0  0  0  0  0  0  0
   27.0195   -9.8810    0.0000 C   0  0  0  0  0  0  0  0  0  0  0  0
   29.7418  -10.3098    0.0000 O   0  0  0  0  0  0  0  0  0  0  0  0
   29.0962   -9.7959    0.0000 N   0  0  0  0  0  0  0  0  0  0  0  0
   27.4488   -8.2742    0.0000 C   0  0  0  0  0  0  0  0  0  0  0  0
   13.2251   -4.9546    0.0000 Br  0  0  0  0  0  0  0  0  0  0  0  0
   27.6600   -7.4847    0.0000 Br  0  0  0  0  0  0  0  0  0  0  0  0
  3  4  2  0
 11  9  1  0
  4 12  1  0
  9  8  2  0
  2  1  1  0
 10  6  1  0
  1  7  2  0
  5 10  2  0
  7  8  1  0
  7  3  1  0
  2  4  1  0
  6 11  2  0
  8  5  1  0
 27 44  2  0
 20 67  2  0
 41 68  1  0
 61 60  1  0
 39 14  1  0
 17 37  1  0
 65 49  1  0
 13 40  1  0
 40 72  1  0
 45 53  1  0
 56 59  1  0
 16 20  1  0
 51 32  1  0
 30 25  1  0
 71 62  1  0
 25 36  2  0
 30 67  1  0
 15 14  1  0
 61 41  2  0
 31 54  1  0
 50 52  1  0
 35 55  2  0
 28 53  1  0
 59 13  1  0
 43 69  1  0
 52 17  1  0
 62 48  1  0
 29 63  1  0
 21 56  1  0
 39 34  1  0
 36 16  1  0
 38 27  1  0
 34 38  1  0
 27 68  1  0
 67 23  1  0
 48 58  1  0
 42 61  1  0
 22 51  1  0
 69 29  1  0
 31 24  1  0
 72 45  1  0
 71 18  2  0
 25 73  1  0
 20 35  1  0
 49 50  1  0
 33 26  2  0
 57 31  1  0
 44 42  1  0
 24 43  2  0
 14 64  2  0
 37 21  1  0
 19 15  2  0
 35 22  1  0
 46 65  1  0
 33 36  1  0
 70 64  1  0
 63 33  1  0
 41 71  1  0
 38 66  2  0
 28 57  1  0
 44 47  1  0
 69 54  2  0
 70 46  1  0
 70 19  1  0
 16  3  1  0
 68 74  1  0
 79 76  2  0
 78 82  2  0
 77 79  1  0
 75 83  1  0
 75 81  1  0
 77 74  1  0
 85 80  2  0
 84 77  2  0
 74 75  2  0
 80 78  1  0
 83 84  1  0
 82 79  1  0
 76 85  1  0
 11 86  1  0
 85 87  1  0
M  END
>  <Classification>  (497) 
1

>  <pchembl>  (497) 
5.89

>  <InChI_steorem>  (497) 
InChI=1S/C60H70Br2N10O15/c1-9-82-57(73)47-35(3)63-37(5)49(53(47)51-39(7)86-67-55(51)41-13-11-15-43(61)29-41)59(75)84-33-45-31-71(69-65-45)17-19-77-21-23-79-25-27-81-28-26-80-24-22-78-20-18-72-32-46(66-70-72)34-85-60(76)50-38(6)64-36(4)48(58(74)83-10-2)54(50)52-40(8)87-68-56(52)42-14-12-16-44(62)30-42/h11-16,29-32,53-54,63-64H,9-10,17-28,33-34H2,1-8H3

>  <source>  (497) 
ChEMBL25

>  <source_id>  (497) 
25

>  <optional_reference>  (497) 
10.1016/j.bmc.2017.04.008

>  <optional_origin>  (497) 
None

>  <target>  (497) 
MDR1

$$$$

     RDKit          2D

 42 46  0  0  0  0  0  0  0  0999 V2000
    1.5906  -12.4128    0.0000 C   0  0  0  0  0  0  0  0  0  0  0  0
    1.5895  -13.2401    0.0000 C   0  0  0  0  0  0  0  0  0  0  0  0
    2.3049  -13.6510    0.0000 C   0  0  0  0  0  0  0  0  0  0  0  0
    3.0219  -13.2397    0.0000 C   0  0  0  0  0  0  0  0  0  0  0  0
    3.0190  -12.4092    0.0000 C   0  0  0  0  0  0  0  0  0  0  0  0
    2.3031  -11.9979    0.0000 C   0  0  0  0  0  0  0  0  0  0  0  0
    3.7375  -13.6491    0.0000 C   0  0  0  0  0  0  0  0  0  0  0  0
    3.7388  -14.4741    0.0000 O   0  0  0  0  0  0  0  0  0  0  0  0
    4.4478  -13.2375    0.0000 N   0  0  0  0  0  0  0  0  0  0  0  0
    5.1635  -13.6467    0.0000 C   0  0  0  0  0  0  0  0  0  0  0  0
    3.7325  -11.9919    0.0000 O   0  0  0  0  0  0  0  0  0  0  0  0
    4.4450  -12.4038    0.0000 C   0  0  0  0  0  0  0  0  0  0  0  0
    5.1584  -11.9866    0.0000 C   0  0  0  0  0  0  0  0  0  0  0  0
    5.9112  -12.3247    0.0000 C   0  0  0  0  0  0  0  0  0  0  0  0
    6.4624  -11.7084    0.0000 N   0  0  0  0  0  0  0  0  0  0  0  0
    6.0451  -10.9949    0.0000 N   0  0  0  0  0  0  0  0  0  0  0  0
    5.2387  -11.1687    0.0000 N   0  0  0  0  0  0  0  0  0  0  0  0
    7.2843  -11.7080    0.0000 C   0  0  0  0  0  0  0  0  0  0  0  0
    7.6944  -10.9927    0.0000 C   0  0  0  0  0  0  0  0  0  0  0  0
    8.5195  -10.9923    0.0000 N   0  0  0  0  0  0  0  0  0  0  0  0
    8.9310  -11.7134    0.0000 C   0  0  0  0  0  0  0  0  0  0  0  0
    9.7525  -11.7150    0.0000 C   0  0  0  0  0  0  0  0  0  0  0  0
    8.9291  -10.2817    0.0000 C   0  0  0  0  0  0  0  0  0  0  0  0
    9.7568  -10.2849    0.0000 C   0  0  0  0  0  0  0  0  0  0  0  0
   10.1635  -11.0030    0.0000 C   0  0  0  0  0  0  0  0  0  0  0  0
   10.9875  -11.0068    0.0000 C   0  0  0  0  0  0  0  0  0  0  0  0
   11.4057  -10.2931    0.0000 C   0  0  0  0  0  0  0  0  0  0  0  0
   10.9898   -9.5743    0.0000 C   0  0  0  0  0  0  0  0  0  0  0  0
   10.1672   -9.5741    0.0000 C   0  0  0  0  0  0  0  0  0  0  0  0
   11.4047   -8.8595    0.0000 O   0  0  0  0  0  0  0  0  0  0  0  0
   12.2307  -10.2955    0.0000 O   0  0  0  0  0  0  0  0  0  0  0  0
   12.6391  -11.0117    0.0000 C   0  0  0  0  0  0  0  0  0  0  0  0
   12.2298   -8.8600    0.0000 C   0  0  0  0  0  0  0  0  0  0  0  0
    5.1601  -14.4703    0.0000 C   0  0  0  0  0  0  0  0  0  0  0  0
    5.8751  -14.8836    0.0000 C   0  0  0  0  0  0  0  0  0  0  0  0
    6.5904  -14.4679    0.0000 C   0  0  0  0  0  0  0  0  0  0  0  0
    6.5865  -13.6386    0.0000 C   0  0  0  0  0  0  0  0  0  0  0  0
    5.8710  -13.2331    0.0000 C   0  0  0  0  0  0  0  0  0  0  0  0
    7.3029  -14.8757    0.0000 C   0  0  0  0  0  0  0  0  0  0  0  0
    7.3060  -15.6965    0.0000 C   0  0  0  0  0  0  0  0  0  0  0  0
    8.0122  -14.4625    0.0000 C   0  0  0  0  0  0  0  0  0  0  0  0
    8.0174  -15.2882    0.0000 C   0  0  0  0  0  0  0  0  0  0  0  0
  1  2  2  0
  2  3  1  0
  3  4  2  0
  4  5  1  0
  5  6  2  0
  6  1  1  0
  4  7  1  0
  7  8  2  0
  7  9  1  0
  9 10  1  0
  5 11  1  0
 11 12  1  0
 12 13  1  0
 13 14  2  0
 14 15  1  0
 15 16  1  0
 16 17  2  0
 17 13  1  0
 15 18  1  0
 18 19  1  0
 19 20  1  0
 20 21  1  0
 20 23  1  0
 21 22  1  0
 22 25  1  0
 24 23  1  0
 24 25  2  0
 25 26  1  0
 26 27  2  0
 27 28  1  0
 28 29  2  0
 29 24  1  0
 28 30  1  0
 27 31  1  0
 31 32  1  0
 30 33  1  0
 10 34  2  0
 34 35  1  0
 35 36  2  0
 36 37  1  0
 37 38  2  0
 38 10  1  0
 36 39  1  0
 39 40  1  0
 39 41  1  0
 39 42  1  0
M  END
>  <Classification>  (498) 
1

>  <pchembl>  (498) 
5.9

>  <InChI_steorem>  (498) 
InChI=1S/C33H39N5O4/c1-33(2,3)25-10-12-26(13-11-25)34-32(39)28-8-6-7-9-29(28)42-22-27-21-38(36-35-27)17-16-37-15-14-23-18-30(40-4)31(41-5)19-24(23)20-37/h6-13,18-19,21H,14-17,20,22H2,1-5H3,(H,34,39)

>  <source>  (498) 
ChEMBL25

>  <source_id>  (498) 
25

>  <optional_reference>  (498) 
10.1016/j.bmc.2017.06.015

>  <optional_origin>  (498) 
None

>  <target>  (498) 
MDR1

$$$$

     RDKit          2D

 39 43  0  0  0  0  0  0  0  0999 V2000
    1.4761  -19.9138    0.0000 C   0  0  0  0  0  0  0  0  0  0  0  0
    1.4750  -20.7375    0.0000 C   0  0  0  0  0  0  0  0  0  0  0  0
    2.1872  -21.1465    0.0000 C   0  0  0  0  0  0  0  0  0  0  0  0
    2.9009  -20.7370    0.0000 C   0  0  0  0  0  0  0  0  0  0  0  0
    2.8981  -19.9102    0.0000 C   0  0  0  0  0  0  0  0  0  0  0  0
    2.1854  -19.5009    0.0000 C   0  0  0  0  0  0  0  0  0  0  0  0
    3.6134  -21.1445    0.0000 C   0  0  0  0  0  0  0  0  0  0  0  0
    3.6147  -21.9658    0.0000 O   0  0  0  0  0  0  0  0  0  0  0  0
    4.3205  -20.7348    0.0000 N   0  0  0  0  0  0  0  0  0  0  0  0
    5.0330  -21.1423    0.0000 C   0  0  0  0  0  0  0  0  0  0  0  0
    3.6084  -19.4949    0.0000 O   0  0  0  0  0  0  0  0  0  0  0  0
    4.3177  -19.9049    0.0000 C   0  0  0  0  0  0  0  0  0  0  0  0
    5.0279  -19.4895    0.0000 C   0  0  0  0  0  0  0  0  0  0  0  0
    5.7773  -19.8262    0.0000 C   0  0  0  0  0  0  0  0  0  0  0  0
    6.3260  -19.2127    0.0000 N   0  0  0  0  0  0  0  0  0  0  0  0
    5.9106  -18.5023    0.0000 N   0  0  0  0  0  0  0  0  0  0  0  0
    5.1078  -18.6754    0.0000 N   0  0  0  0  0  0  0  0  0  0  0  0
    7.1442  -19.2122    0.0000 C   0  0  0  0  0  0  0  0  0  0  0  0
    7.5524  -18.5002    0.0000 C   0  0  0  0  0  0  0  0  0  0  0  0
    8.3738  -18.4998    0.0000 N   0  0  0  0  0  0  0  0  0  0  0  0
    8.7835  -19.2177    0.0000 C   0  0  0  0  0  0  0  0  0  0  0  0
    9.6013  -19.2192    0.0000 C   0  0  0  0  0  0  0  0  0  0  0  0
    8.7816  -17.7924    0.0000 C   0  0  0  0  0  0  0  0  0  0  0  0
    9.6056  -17.7956    0.0000 C   0  0  0  0  0  0  0  0  0  0  0  0
   10.0104  -18.5104    0.0000 C   0  0  0  0  0  0  0  0  0  0  0  0
   10.8307  -18.5141    0.0000 C   0  0  0  0  0  0  0  0  0  0  0  0
   11.2470  -17.8038    0.0000 C   0  0  0  0  0  0  0  0  0  0  0  0
   10.8330  -17.0882    0.0000 C   0  0  0  0  0  0  0  0  0  0  0  0
   10.0141  -17.0879    0.0000 C   0  0  0  0  0  0  0  0  0  0  0  0
   11.2461  -16.3766    0.0000 O   0  0  0  0  0  0  0  0  0  0  0  0
   12.0683  -17.8061    0.0000 O   0  0  0  0  0  0  0  0  0  0  0  0
   12.4749  -18.5190    0.0000 C   0  0  0  0  0  0  0  0  0  0  0  0
   12.0674  -16.3771    0.0000 C   0  0  0  0  0  0  0  0  0  0  0  0
    5.0296  -21.9621    0.0000 C   0  0  0  0  0  0  0  0  0  0  0  0
    5.7413  -22.3736    0.0000 C   0  0  0  0  0  0  0  0  0  0  0  0
    6.4534  -21.9597    0.0000 C   0  0  0  0  0  0  0  0  0  0  0  0
    6.4495  -21.1342    0.0000 C   0  0  0  0  0  0  0  0  0  0  0  0
    5.7373  -20.7305    0.0000 C   0  0  0  0  0  0  0  0  0  0  0  0
    4.3209  -22.3690    0.0000 C   0  0  0  0  0  0  0  0  0  0  0  0
  1  2  2  0
  2  3  1  0
  3  4  2  0
  4  5  1  0
  5  6  2  0
  6  1  1  0
  4  7  1  0
  7  8  2  0
  7  9  1  0
  9 10  1  0
  5 11  1  0
 11 12  1  0
 12 13  1  0
 13 14  2  0
 14 15  1  0
 15 16  1  0
 16 17  2  0
 17 13  1  0
 15 18  1  0
 18 19  1  0
 19 20  1  0
 20 21  1  0
 20 23  1  0
 21 22  1  0
 22 25  1  0
 24 23  1  0
 24 25  2  0
 25 26  1  0
 26 27  2  0
 27 28  1  0
 28 29  2  0
 29 24  1  0
 28 30  1  0
 27 31  1  0
 31 32  1  0
 30 33  1  0
 10 34  2  0
 34 35  1  0
 35 36  2  0
 36 37  1  0
 37 38  2  0
 38 10  1  0
 34 39  1  0
M  END
>  <Classification>  (499) 
0

>  <pchembl>  (499) 
4.66

>  <InChI_steorem>  (499) 
InChI=1S/C30H33N5O4/c1-21-8-4-6-10-26(21)31-30(36)25-9-5-7-11-27(25)39-20-24-19-35(33-32-24)15-14-34-13-12-22-16-28(37-2)29(38-3)17-23(22)18-34/h4-11,16-17,19H,12-15,18,20H2,1-3H3,(H,31,36)

>  <source>  (499) 
ChEMBL25

>  <source_id>  (499) 
25

>  <optional_reference>  (499) 
10.1016/j.bmc.2017.06.015

>  <optional_origin>  (499) 
None

>  <target>  (499) 
MDR1

$$$$

     RDKit          2D

 26 29  0  0  0  0  0  0  0  0999 V2000
    5.3773  -20.7435    0.0000 N   0  0  0  0  0  0  0  0  0  0  0  0
    5.3773  -19.1091    0.0000 C   0  0  0  0  0  0  0  0  0  0  0  0
    6.0826  -19.5218    0.0000 C   0  0  0  0  0  0  0  0  0  0  0  0
    6.0810  -20.3372    0.0000 C   0  0  0  0  0  0  0  0  0  0  0  0
    6.7852  -20.7445    0.0000 C   0  0  0  0  0  0  0  0  0  0  0  0
    7.4915  -20.3375    0.0000 C   0  0  0  0  0  0  0  0  0  0  0  0
    7.4891  -19.5190    0.0000 C   0  0  0  0  0  0  0  0  0  0  0  0
    6.7843  -19.1154    0.0000 C   0  0  0  0  0  0  0  0  0  0  0  0
    4.6720  -20.3390    0.0000 C   0  0  0  0  0  0  0  0  0  0  0  0
    4.6746  -19.5236    0.0000 C   0  0  0  0  0  0  0  0  0  0  0  0
    3.9708  -19.1155    0.0000 C   0  0  0  0  0  0  0  0  0  0  0  0
    3.2641  -19.5216    0.0000 C   0  0  0  0  0  0  0  0  0  0  0  0
    3.2655  -20.3401    0.0000 C   0  0  0  0  0  0  0  0  0  0  0  0
    3.9698  -20.7446    0.0000 C   0  0  0  0  0  0  0  0  0  0  0  0
    5.3759  -18.2919    0.0000 O   0  0  0  0  0  0  0  0  0  0  0  0
    6.7845  -21.5617    0.0000 C   0  0  0  0  0  0  0  0  0  0  0  0
    8.1955  -19.1081    0.0000 C   0  0  0  0  0  0  0  0  0  0  0  0
    5.3785  -21.5606    0.0000 C   0  0  0  0  0  0  0  0  0  0  0  0
    4.6714  -21.9703    0.0000 C   0  0  0  0  0  0  0  0  0  0  0  0
    4.6726  -22.7875    0.0000 C   0  0  0  0  0  0  0  0  0  0  0  0
    3.9655  -23.1971    0.0000 N   0  0  0  0  0  0  0  0  0  0  0  0
    3.2588  -22.7892    0.0000 C   0  0  0  0  0  0  0  0  0  0  0  0
    2.5538  -23.1954    0.0000 C   0  0  0  0  0  0  0  0  0  0  0  0
    2.5508  -24.0129    0.0000 C   0  0  0  0  0  0  0  0  0  0  0  0
    3.2589  -24.4227    0.0000 C   0  0  0  0  0  0  0  0  0  0  0  0
    3.9701  -24.0149    0.0000 C   0  0  0  0  0  0  0  0  0  0  0  0
 10  2  1  0
  9  1  1  0
  1  4  1  0
  3  2  1  0
  3  4  2  0
  4  5  1  0
  5  6  2  0
  6  7  1  0
  7  8  2  0
  8  3  1  0
  9 10  2  0
 10 11  1  0
 11 12  2  0
 12 13  1  0
 13 14  2  0
 14  9  1  0
  2 15  2  0
  5 16  1  0
  7 17  1  0
  1 18  1  0
 18 19  1  0
 19 20  1  0
 20 21  1  0
 21 22  1  0
 21 26  1  0
 22 23  1  0
 23 24  1  0
 24 25  1  0
 25 26  1  0
M  END
>  <Classification>  (500) 
1

>  <pchembl>  (500) 
7.77

>  <InChI_steorem>  (500) 
InChI=1S/C23H28N2O/c1-17-15-18(2)22-20(16-17)23(26)19-9-4-5-10-21(19)25(22)14-8-13-24-11-6-3-7-12-24/h4-5,9-10,15-16H,3,6-8,11-14H2,1-2H3

>  <source>  (500) 
ChEMBL25

>  <source_id>  (500) 
25

>  <optional_reference>  (500) 
10.1016/j.ejmech.2017.02.022

>  <optional_origin>  (500) 
None

>  <target>  (500) 
MDR1

$$$$

     RDKit          2D

 27 30  0  0  0  0  0  0  0  0999 V2000
   23.4876  -19.3526    0.0000 N   0  0  0  0  0  0  0  0  0  0  0  0
   23.4876  -17.7182    0.0000 C   0  0  0  0  0  0  0  0  0  0  0  0
   24.1929  -18.1309    0.0000 C   0  0  0  0  0  0  0  0  0  0  0  0
   24.1913  -18.9463    0.0000 C   0  0  0  0  0  0  0  0  0  0  0  0
   24.8955  -19.3536    0.0000 C   0  0  0  0  0  0  0  0  0  0  0  0
   25.6018  -18.9466    0.0000 C   0  0  0  0  0  0  0  0  0  0  0  0
   25.5994  -18.1281    0.0000 C   0  0  0  0  0  0  0  0  0  0  0  0
   24.8946  -17.7245    0.0000 C   0  0  0  0  0  0  0  0  0  0  0  0
   22.7823  -18.9481    0.0000 C   0  0  0  0  0  0  0  0  0  0  0  0
   22.7848  -18.1327    0.0000 C   0  0  0  0  0  0  0  0  0  0  0  0
   22.0811  -17.7246    0.0000 C   0  0  0  0  0  0  0  0  0  0  0  0
   21.3743  -18.1308    0.0000 C   0  0  0  0  0  0  0  0  0  0  0  0
   21.3757  -18.9493    0.0000 C   0  0  0  0  0  0  0  0  0  0  0  0
   22.0801  -19.3537    0.0000 C   0  0  0  0  0  0  0  0  0  0  0  0
   23.4862  -16.9010    0.0000 O   0  0  0  0  0  0  0  0  0  0  0  0
   24.8948  -20.1708    0.0000 C   0  0  0  0  0  0  0  0  0  0  0  0
   26.3058  -17.7173    0.0000 C   0  0  0  0  0  0  0  0  0  0  0  0
   23.4888  -20.1698    0.0000 C   0  0  0  0  0  0  0  0  0  0  0  0
   22.7817  -20.5794    0.0000 C   0  0  0  0  0  0  0  0  0  0  0  0
   22.7829  -21.3966    0.0000 C   0  0  0  0  0  0  0  0  0  0  0  0
   22.0757  -21.8062    0.0000 C   0  0  0  0  0  0  0  0  0  0  0  0
   21.3674  -21.3986    0.0000 N   0  0  0  0  0  0  0  0  0  0  0  0
   21.3690  -20.5839    0.0000 C   0  0  0  0  0  0  0  0  0  0  0  0
   20.6648  -20.1764    0.0000 C   0  0  0  0  0  0  0  0  0  0  0  0
   19.9553  -20.5826    0.0000 O   0  0  0  0  0  0  0  0  0  0  0  0
   19.9545  -21.4007    0.0000 C   0  0  0  0  0  0  0  0  0  0  0  0
   20.6633  -21.8127    0.0000 C   0  0  0  0  0  0  0  0  0  0  0  0
 10  2  1  0
  9  1  1  0
  1  4  1  0
  3  2  1  0
  3  4  2  0
  4  5  1  0
  5  6  2  0
  6  7  1  0
  7  8  2  0
  8  3  1  0
  9 10  2  0
 10 11  1  0
 11 12  2  0
 12 13  1  0
 13 14  2  0
 14  9  1  0
  2 15  2  0
  5 16  1  0
  7 17  1  0
  1 18  1  0
 18 19  1  0
 19 20  1  0
 20 21  1  0
 21 22  1  0
 22 23  1  0
 22 27  1  0
 23 24  1  0
 24 25  1  0
 25 26  1  0
 26 27  1  0
M  END
>  <Classification>  (501) 
1

>  <pchembl>  (501) 
8.4

>  <InChI_steorem>  (501) 
InChI=1S/C23H28N2O2/c1-17-15-18(2)22-20(16-17)23(26)19-7-3-4-8-21(19)25(22)10-6-5-9-24-11-13-27-14-12-24/h3-4,7-8,15-16H,5-6,9-14H2,1-2H3

>  <source>  (501) 
ChEMBL25

>  <source_id>  (501) 
25

>  <optional_reference>  (501) 
10.1016/j.ejmech.2017.02.022

>  <optional_origin>  (501) 
None

>  <target>  (501) 
MDR1

$$$$

     RDKit          2D

 27 29  0  0  0  0  0  0  0  0999 V2000
   14.9649  -19.9717    0.0000 N   0  0  0  0  0  0  0  0  0  0  0  0
   14.9649  -18.3373    0.0000 C   0  0  0  0  0  0  0  0  0  0  0  0
   15.6701  -18.7500    0.0000 C   0  0  0  0  0  0  0  0  0  0  0  0
   15.6685  -19.5654    0.0000 C   0  0  0  0  0  0  0  0  0  0  0  0
   16.3728  -19.9727    0.0000 C   0  0  0  0  0  0  0  0  0  0  0  0
   17.0791  -19.5657    0.0000 C   0  0  0  0  0  0  0  0  0  0  0  0
   17.0767  -18.7472    0.0000 C   0  0  0  0  0  0  0  0  0  0  0  0
   16.3719  -18.3436    0.0000 C   0  0  0  0  0  0  0  0  0  0  0  0
   14.2596  -19.5672    0.0000 C   0  0  0  0  0  0  0  0  0  0  0  0
   14.2621  -18.7518    0.0000 C   0  0  0  0  0  0  0  0  0  0  0  0
   13.5584  -18.3437    0.0000 C   0  0  0  0  0  0  0  0  0  0  0  0
   12.8516  -18.7499    0.0000 C   0  0  0  0  0  0  0  0  0  0  0  0
   12.8530  -19.5683    0.0000 C   0  0  0  0  0  0  0  0  0  0  0  0
   13.5573  -19.9728    0.0000 C   0  0  0  0  0  0  0  0  0  0  0  0
   14.9634  -17.5201    0.0000 O   0  0  0  0  0  0  0  0  0  0  0  0
   16.3721  -20.7899    0.0000 C   0  0  0  0  0  0  0  0  0  0  0  0
   17.7831  -18.3364    0.0000 C   0  0  0  0  0  0  0  0  0  0  0  0
   14.9660  -20.7889    0.0000 C   0  0  0  0  0  0  0  0  0  0  0  0
   14.2589  -21.1985    0.0000 C   0  0  0  0  0  0  0  0  0  0  0  0
   14.2601  -22.0157    0.0000 C   0  0  0  0  0  0  0  0  0  0  0  0
   13.5530  -22.4253    0.0000 N   0  0  0  0  0  0  0  0  0  0  0  0
   12.8464  -22.0174    0.0000 C   0  0  0  0  0  0  0  0  0  0  0  0
   12.1414  -22.4236    0.0000 C   0  0  0  0  0  0  0  0  0  0  0  0
   12.8465  -23.6509    0.0000 C   0  0  0  0  0  0  0  0  0  0  0  0
   13.5577  -23.2431    0.0000 C   0  0  0  0  0  0  0  0  0  0  0  0
   11.4340  -22.0143    0.0000 O   0  0  0  0  0  0  0  0  0  0  0  0
   12.8441  -24.4681    0.0000 O   0  0  0  0  0  0  0  0  0  0  0  0
 10  2  1  0
  9  1  1  0
  1  4  1  0
  3  2  1  0
  3  4  2  0
  4  5  1  0
  5  6  2  0
  6  7  1  0
  7  8  2  0
  8  3  1  0
  9 10  2  0
 10 11  1  0
 11 12  2  0
 12 13  1  0
 13 14  2  0
 14  9  1  0
  2 15  2  0
  5 16  1  0
  7 17  1  0
  1 18  1  0
 18 19  1  0
 19 20  1  0
 20 21  1  0
 21 22  1  0
 21 25  1  0
 22 23  1  0
 24 25  1  0
 23 26  1  0
 24 27  1  0
M  END
>  <Classification>  (502) 
1

>  <pchembl>  (502) 
7.95

>  <InChI_steorem>  (502) 
InChI=1S/C22H28N2O3/c1-16-14-17(2)21-19(15-16)22(27)18-6-3-4-7-20(18)24(21)9-5-8-23(10-12-25)11-13-26/h3-4,6-7,14-15,25-26H,5,8-13H2,1-2H3

>  <source>  (502) 
ChEMBL25

>  <source_id>  (502) 
25

>  <optional_reference>  (502) 
10.1016/j.ejmech.2017.02.022

>  <optional_origin>  (502) 
None

>  <target>  (502) 
MDR1

$$$$

     RDKit          2D

 25 28  0  0  0  0  0  0  0  0999 V2000
   20.3087  -20.4421    0.0000 C   0  0  0  0  0  0  0  0  0  0  0  0
   20.3075  -21.2617    0.0000 C   0  0  0  0  0  0  0  0  0  0  0  0
   21.0156  -21.6706    0.0000 C   0  0  0  0  0  0  0  0  0  0  0  0
   21.0138  -20.0333    0.0000 C   0  0  0  0  0  0  0  0  0  0  0  0
   21.7224  -20.4385    0.0000 C   0  0  0  0  0  0  0  0  0  0  0  0
   21.7232  -21.2575    0.0000 C   0  0  0  0  0  0  0  0  0  0  0  0
   22.4317  -21.6646    0.0000 N   0  0  0  0  0  0  0  0  0  0  0  0
   23.1400  -21.2538    0.0000 C   0  0  0  0  0  0  0  0  0  0  0  0
   23.1352  -20.4317    0.0000 N   0  0  0  0  0  0  0  0  0  0  0  0
   22.4261  -20.0283    0.0000 C   0  0  0  0  0  0  0  0  0  0  0  0
   22.4218  -19.2111    0.0000 N   0  0  0  0  0  0  0  0  0  0  0  0
   23.1273  -18.7988    0.0000 C   0  0  0  0  0  0  0  0  0  0  0  0
   23.8326  -19.2070    0.0000 C   0  0  0  0  0  0  0  0  0  0  0  0
   24.5377  -18.7953    0.0000 C   0  0  0  0  0  0  0  0  0  0  0  0
   24.5338  -17.9773    0.0000 C   0  0  0  0  0  0  0  0  0  0  0  0
   23.8189  -17.5726    0.0000 C   0  0  0  0  0  0  0  0  0  0  0  0
   23.1168  -17.9866    0.0000 C   0  0  0  0  0  0  0  0  0  0  0  0
   23.8457  -21.6556    0.0000 C   0  0  0  0  0  0  0  0  0  0  0  0
   23.8475  -22.4738    0.0000 N   0  0  0  0  0  0  0  0  0  0  0  0
   24.5560  -22.8796    0.0000 C   0  0  0  0  0  0  0  0  0  0  0  0
   25.2631  -22.4682    0.0000 C   0  0  0  0  0  0  0  0  0  0  0  0
   25.2573  -21.6468    0.0000 C   0  0  0  0  0  0  0  0  0  0  0  0
   24.5482  -21.2447    0.0000 C   0  0  0  0  0  0  0  0  0  0  0  0
   23.8117  -16.7555    0.0000 O   0  0  0  0  0  0  0  0  0  0  0  0
   24.5158  -16.3406    0.0000 C   0  0  0  0  0  0  0  0  0  0  0  0
  1  2  2  0
  2  3  1  0
  3  6  2  0
  5  4  2  0
  4  1  1  0
  5  6  1  0
  6  7  1  0
  7  8  2  0
  8  9  1  0
  9 10  2  0
 10  5  1  0
 10 11  1  0
 11 12  1  0
 12 13  2  0
 13 14  1  0
 14 15  2  0
 15 16  1  0
 16 17  2  0
 17 12  1  0
 18 19  2  0
 19 20  1  0
 20 21  2  0
 21 22  1  0
 22 23  2  0
 23 18  1  0
  8 18  1  0
 16 24  1  0
 24 25  1  0
M  END
>  <Classification>  (503) 
0

>  <pchembl>  (503) 
4.9

>  <InChI_steorem>  (503) 
InChI=1S/C20H16N4O/c1-25-15-8-6-7-14(13-15)22-19-16-9-2-3-10-17(16)23-20(24-19)18-11-4-5-12-21-18/h2-13H,1H3,(H,22,23,24)

>  <source>  (503) 
ChEMBL25

>  <source_id>  (503) 
25

>  <optional_reference>  (503) 
10.1021/acs.jmedchem.7b00441

>  <optional_origin>  (503) 
None

>  <target>  (503) 
MDR1

$$$$

     RDKit          2D

 26 29  0  0  0  0  0  0  0  0999 V2000
    4.9151  -13.4878    0.0000 N   0  0  0  0  0  0  0  0  0  0  0  0
    4.9151  -11.8534    0.0000 C   0  0  0  0  0  0  0  0  0  0  0  0
    5.6203  -12.2661    0.0000 C   0  0  0  0  0  0  0  0  0  0  0  0
    5.6187  -13.0815    0.0000 C   0  0  0  0  0  0  0  0  0  0  0  0
    6.3230  -13.4888    0.0000 C   0  0  0  0  0  0  0  0  0  0  0  0
    7.0292  -13.0818    0.0000 C   0  0  0  0  0  0  0  0  0  0  0  0
    7.0269  -12.2633    0.0000 C   0  0  0  0  0  0  0  0  0  0  0  0
    6.3221  -11.8597    0.0000 C   0  0  0  0  0  0  0  0  0  0  0  0
    4.2098  -13.0833    0.0000 C   0  0  0  0  0  0  0  0  0  0  0  0
    4.2123  -12.2679    0.0000 C   0  0  0  0  0  0  0  0  0  0  0  0
    3.5086  -11.8598    0.0000 C   0  0  0  0  0  0  0  0  0  0  0  0
    2.8018  -12.2660    0.0000 C   0  0  0  0  0  0  0  0  0  0  0  0
    2.8032  -13.0845    0.0000 C   0  0  0  0  0  0  0  0  0  0  0  0
    3.5075  -13.4889    0.0000 C   0  0  0  0  0  0  0  0  0  0  0  0
    4.9136  -11.0362    0.0000 O   0  0  0  0  0  0  0  0  0  0  0  0
    6.3223  -14.3060    0.0000 C   0  0  0  0  0  0  0  0  0  0  0  0
    7.7333  -11.8525    0.0000 C   0  0  0  0  0  0  0  0  0  0  0  0
    4.9162  -14.3050    0.0000 C   0  0  0  0  0  0  0  0  0  0  0  0
    4.2091  -14.7146    0.0000 C   0  0  0  0  0  0  0  0  0  0  0  0
    4.2103  -15.5318    0.0000 C   0  0  0  0  0  0  0  0  0  0  0  0
    3.5032  -15.9414    0.0000 N   0  0  0  0  0  0  0  0  0  0  0  0
    2.7966  -15.5336    0.0000 C   0  0  0  0  0  0  0  0  0  0  0  0
    2.0916  -15.9397    0.0000 C   0  0  0  0  0  0  0  0  0  0  0  0
    2.0885  -16.7573    0.0000 O   0  0  0  0  0  0  0  0  0  0  0  0
    2.7967  -17.1670    0.0000 C   0  0  0  0  0  0  0  0  0  0  0  0
    3.5079  -16.7592    0.0000 C   0  0  0  0  0  0  0  0  0  0  0  0
 10  2  1  0
  9  1  1  0
  1  4  1  0
  3  2  1  0
  3  4  2  0
  4  5  1  0
  5  6  2  0
  6  7  1  0
  7  8  2  0
  8  3  1  0
  9 10  2  0
 10 11  1  0
 11 12  2  0
 12 13  1  0
 13 14  2  0
 14  9  1  0
  2 15  2  0
  5 16  1  0
  7 17  1  0
  1 18  1  0
 18 19  1  0
 19 20  1  0
 20 21  1  0
 21 22  1  0
 21 26  1  0
 22 23  1  0
 23 24  1  0
 24 25  1  0
 25 26  1  0
M  END
>  <Classification>  (504) 
1

>  <pchembl>  (504) 
7.7

>  <InChI_steorem>  (504) 
InChI=1S/C22H26N2O2/c1-16-14-17(2)21-19(15-16)22(25)18-6-3-4-7-20(18)24(21)9-5-8-23-10-12-26-13-11-23/h3-4,6-7,14-15H,5,8-13H2,1-2H3

>  <source>  (504) 
ChEMBL25

>  <source_id>  (504) 
25

>  <optional_reference>  (504) 
10.1016/j.ejmech.2017.02.022

>  <optional_origin>  (504) 
None

>  <target>  (504) 
MDR1

$$$$

     RDKit          2D

 30 33  0  0  0  0  0  0  0  0999 V2000
   12.4257  -13.0503    0.0000 C   0  0  0  0  0  0  0  0  0  0  0  0
   12.4245  -13.8698    0.0000 C   0  0  0  0  0  0  0  0  0  0  0  0
   13.1326  -14.2788    0.0000 C   0  0  0  0  0  0  0  0  0  0  0  0
   13.1308  -12.6414    0.0000 C   0  0  0  0  0  0  0  0  0  0  0  0
   13.8394  -13.0467    0.0000 C   0  0  0  0  0  0  0  0  0  0  0  0
   13.8402  -13.8657    0.0000 C   0  0  0  0  0  0  0  0  0  0  0  0
   14.5487  -14.2727    0.0000 N   0  0  0  0  0  0  0  0  0  0  0  0
   15.2570  -13.8619    0.0000 C   0  0  0  0  0  0  0  0  0  0  0  0
   15.2522  -13.0398    0.0000 N   0  0  0  0  0  0  0  0  0  0  0  0
   14.5431  -12.6364    0.0000 C   0  0  0  0  0  0  0  0  0  0  0  0
   14.5388  -11.8192    0.0000 N   0  0  0  0  0  0  0  0  0  0  0  0
   15.2443  -11.4069    0.0000 C   0  0  0  0  0  0  0  0  0  0  0  0
   15.9496  -11.8151    0.0000 C   0  0  0  0  0  0  0  0  0  0  0  0
   16.6546  -11.4035    0.0000 C   0  0  0  0  0  0  0  0  0  0  0  0
   16.6508  -10.5854    0.0000 C   0  0  0  0  0  0  0  0  0  0  0  0
   15.9359  -10.1808    0.0000 C   0  0  0  0  0  0  0  0  0  0  0  0
   15.2338  -10.5948    0.0000 C   0  0  0  0  0  0  0  0  0  0  0  0
   15.9627  -14.2637    0.0000 C   0  0  0  0  0  0  0  0  0  0  0  0
   15.9645  -15.0820    0.0000 C   0  0  0  0  0  0  0  0  0  0  0  0
   16.6730  -15.4877    0.0000 C   0  0  0  0  0  0  0  0  0  0  0  0
   17.3801  -15.0763    0.0000 N   0  0  0  0  0  0  0  0  0  0  0  0
   17.3743  -14.2549    0.0000 C   0  0  0  0  0  0  0  0  0  0  0  0
   16.6652  -13.8529    0.0000 C   0  0  0  0  0  0  0  0  0  0  0  0
   15.9287   -9.3636    0.0000 C   0  0  0  0  0  0  0  0  0  0  0  0
   16.6328   -8.9488    0.0000 O   0  0  0  0  0  0  0  0  0  0  0  0
   15.2174   -8.9613    0.0000 O   0  0  0  0  0  0  0  0  0  0  0  0
   17.3441   -9.3511    0.0000 C   0  0  0  0  0  0  0  0  0  0  0  0
   18.0481   -8.9363    0.0000 C   0  0  0  0  0  0  0  0  0  0  0  0
   17.3513  -10.1683    0.0000 C   0  0  0  0  0  0  0  0  0  0  0  0
   18.0484   -9.7568    0.0000 C   0  0  0  0  0  0  0  0  0  0  0  0
  1  2  2  0
  2  3  1  0
  3  6  2  0
  5  4  2  0
  4  1  1  0
  5  6  1  0
  6  7  1  0
  7  8  2  0
  8  9  1  0
  9 10  2  0
 10  5  1  0
 10 11  1  0
 11 12  1  0
 12 13  2  0
 13 14  1  0
 14 15  2  0
 15 16  1  0
 16 17  2  0
 17 12  1  0
 18 19  2  0
 19 20  1  0
 20 21  2  0
 21 22  1  0
 22 23  2  0
 23 18  1  0
  8 18  1  0
 16 24  1  0
 24 25  1  0
 24 26  2  0
 25 27  1  0
 27 28  1  0
 27 29  1  0
 27 30  1  0
M  END
>  <Classification>  (505) 
1

>  <pchembl>  (505) 
6.48

>  <InChI_steorem>  (505) 
InChI=1S/C24H22N4O2/c1-24(2,3)30-23(29)17-7-6-8-18(15-17)26-22-19-9-4-5-10-20(19)27-21(28-22)16-11-13-25-14-12-16/h4-15H,1-3H3,(H,26,27,28)

>  <source>  (505) 
ChEMBL25

>  <source_id>  (505) 
25

>  <optional_reference>  (505) 
10.1021/acs.jmedchem.7b00441

>  <optional_origin>  (505) 
None

>  <target>  (505) 
MDR1

$$$$

     RDKit          2D

 27 30  0  0  0  0  0  0  0  0999 V2000
    1.9054  -11.8492    0.0000 C   0  0  0  0  0  0  0  0  0  0  0  0
    1.9042  -12.6688    0.0000 C   0  0  0  0  0  0  0  0  0  0  0  0
    2.6123  -13.0777    0.0000 C   0  0  0  0  0  0  0  0  0  0  0  0
    2.6105  -11.4404    0.0000 C   0  0  0  0  0  0  0  0  0  0  0  0
    3.3191  -11.8456    0.0000 C   0  0  0  0  0  0  0  0  0  0  0  0
    3.3198  -12.6647    0.0000 C   0  0  0  0  0  0  0  0  0  0  0  0
    4.0284  -13.0717    0.0000 N   0  0  0  0  0  0  0  0  0  0  0  0
    4.7366  -12.6609    0.0000 C   0  0  0  0  0  0  0  0  0  0  0  0
    4.7319  -11.8388    0.0000 N   0  0  0  0  0  0  0  0  0  0  0  0
    4.0228  -11.4354    0.0000 C   0  0  0  0  0  0  0  0  0  0  0  0
    4.0185  -10.6182    0.0000 N   0  0  0  0  0  0  0  0  0  0  0  0
    4.7240  -10.2059    0.0000 C   0  0  0  0  0  0  0  0  0  0  0  0
    5.4293  -10.6141    0.0000 C   0  0  0  0  0  0  0  0  0  0  0  0
    6.1343  -10.2024    0.0000 C   0  0  0  0  0  0  0  0  0  0  0  0
    6.1304   -9.3844    0.0000 C   0  0  0  0  0  0  0  0  0  0  0  0
    5.4156   -8.9797    0.0000 C   0  0  0  0  0  0  0  0  0  0  0  0
    4.7135   -9.3937    0.0000 C   0  0  0  0  0  0  0  0  0  0  0  0
    5.4424  -13.0627    0.0000 C   0  0  0  0  0  0  0  0  0  0  0  0
    5.4442  -13.8810    0.0000 C   0  0  0  0  0  0  0  0  0  0  0  0
    6.1527  -14.2867    0.0000 N   0  0  0  0  0  0  0  0  0  0  0  0
    6.8598  -13.8753    0.0000 C   0  0  0  0  0  0  0  0  0  0  0  0
    6.8540  -13.0539    0.0000 C   0  0  0  0  0  0  0  0  0  0  0  0
    6.1449  -12.6519    0.0000 C   0  0  0  0  0  0  0  0  0  0  0  0
    5.4084   -8.1626    0.0000 O   0  0  0  0  0  0  0  0  0  0  0  0
    6.1125   -7.7477    0.0000 C   0  0  0  0  0  0  0  0  0  0  0  0
    6.8354   -8.9711    0.0000 O   0  0  0  0  0  0  0  0  0  0  0  0
    7.5458   -9.3750    0.0000 C   0  0  0  0  0  0  0  0  0  0  0  0
  1  2  2  0
  2  3  1  0
  3  6  2  0
  5  4  2  0
  4  1  1  0
  5  6  1  0
  6  7  1  0
  7  8  2  0
  8  9  1  0
  9 10  2  0
 10  5  1  0
 10 11  1  0
 11 12  1  0
 12 13  2  0
 13 14  1  0
 14 15  2  0
 15 16  1  0
 16 17  2  0
 17 12  1  0
 18 19  2  0
 19 20  1  0
 20 21  2  0
 21 22  1  0
 22 23  2  0
 23 18  1  0
  8 18  1  0
 16 24  1  0
 24 25  1  0
 15 26  1  0
 26 27  1  0
M  END
>  <Classification>  (506) 
1

>  <pchembl>  (506) 
5.51

>  <InChI_steorem>  (506) 
InChI=1S/C21H18N4O2/c1-26-18-10-9-15(12-19(18)27-2)23-21-16-7-3-4-8-17(16)24-20(25-21)14-6-5-11-22-13-14/h3-13H,1-2H3,(H,23,24,25)

>  <source>  (506) 
ChEMBL25

>  <source_id>  (506) 
25

>  <optional_reference>  (506) 
10.1021/acs.jmedchem.7b00441

>  <optional_origin>  (506) 
None

>  <target>  (506) 
MDR1

$$$$

     RDKit          2D

 40 44  0  0  0  0  0  0  0  0999 V2000
   20.3912   -5.5181    0.0000 C   0  0  0  0  0  0  0  0  0  0  0  0
   20.3901   -6.3417    0.0000 C   0  0  0  0  0  0  0  0  0  0  0  0
   21.1022   -6.7507    0.0000 C   0  0  0  0  0  0  0  0  0  0  0  0
   21.8160   -6.3413    0.0000 C   0  0  0  0  0  0  0  0  0  0  0  0
   21.8132   -5.5145    0.0000 C   0  0  0  0  0  0  0  0  0  0  0  0
   21.1005   -5.1051    0.0000 C   0  0  0  0  0  0  0  0  0  0  0  0
   22.5285   -6.7487    0.0000 C   0  0  0  0  0  0  0  0  0  0  0  0
   22.5298   -7.5701    0.0000 O   0  0  0  0  0  0  0  0  0  0  0  0
   23.2356   -6.3390    0.0000 N   0  0  0  0  0  0  0  0  0  0  0  0
   23.9481   -6.7465    0.0000 C   0  0  0  0  0  0  0  0  0  0  0  0
   22.5235   -5.0991    0.0000 O   0  0  0  0  0  0  0  0  0  0  0  0
   23.2327   -5.5091    0.0000 C   0  0  0  0  0  0  0  0  0  0  0  0
   23.9430   -5.0937    0.0000 C   0  0  0  0  0  0  0  0  0  0  0  0
   24.6924   -5.4304    0.0000 C   0  0  0  0  0  0  0  0  0  0  0  0
   25.2411   -4.8169    0.0000 N   0  0  0  0  0  0  0  0  0  0  0  0
   24.8256   -4.1066    0.0000 N   0  0  0  0  0  0  0  0  0  0  0  0
   24.0229   -4.2796    0.0000 N   0  0  0  0  0  0  0  0  0  0  0  0
   26.0593   -4.8165    0.0000 C   0  0  0  0  0  0  0  0  0  0  0  0
   26.4675   -4.1044    0.0000 C   0  0  0  0  0  0  0  0  0  0  0  0
   27.2889   -4.1040    0.0000 N   0  0  0  0  0  0  0  0  0  0  0  0
   27.6986   -4.8219    0.0000 C   0  0  0  0  0  0  0  0  0  0  0  0
   28.5164   -4.8234    0.0000 C   0  0  0  0  0  0  0  0  0  0  0  0
   27.6967   -3.3966    0.0000 C   0  0  0  0  0  0  0  0  0  0  0  0
   28.5206   -3.3998    0.0000 C   0  0  0  0  0  0  0  0  0  0  0  0
   28.9255   -4.1146    0.0000 C   0  0  0  0  0  0  0  0  0  0  0  0
   29.7457   -4.1184    0.0000 C   0  0  0  0  0  0  0  0  0  0  0  0
   30.1621   -3.4080    0.0000 C   0  0  0  0  0  0  0  0  0  0  0  0
   29.7481   -2.6924    0.0000 C   0  0  0  0  0  0  0  0  0  0  0  0
   28.9292   -2.6922    0.0000 C   0  0  0  0  0  0  0  0  0  0  0  0
   30.1612   -1.9808    0.0000 O   0  0  0  0  0  0  0  0  0  0  0  0
   30.9834   -3.4103    0.0000 O   0  0  0  0  0  0  0  0  0  0  0  0
   31.3900   -4.1233    0.0000 C   0  0  0  0  0  0  0  0  0  0  0  0
   30.9825   -1.9813    0.0000 C   0  0  0  0  0  0  0  0  0  0  0  0
   23.9447   -7.5663    0.0000 C   0  0  0  0  0  0  0  0  0  0  0  0
   24.6564   -7.9778    0.0000 C   0  0  0  0  0  0  0  0  0  0  0  0
   25.3685   -7.5639    0.0000 C   0  0  0  0  0  0  0  0  0  0  0  0
   25.3646   -6.7384    0.0000 C   0  0  0  0  0  0  0  0  0  0  0  0
   24.6524   -6.3347    0.0000 C   0  0  0  0  0  0  0  0  0  0  0  0
   26.0778   -7.9698    0.0000 O   0  0  0  0  0  0  0  0  0  0  0  0
   26.0809   -8.7870    0.0000 C   0  0  0  0  0  0  0  0  0  0  0  0
  1  2  2  0
  2  3  1  0
  3  4  2  0
  4  5  1  0
  5  6  2  0
  6  1  1  0
  4  7  1  0
  7  8  2  0
  7  9  1  0
  9 10  1  0
  5 11  1  0
 11 12  1  0
 12 13  1  0
 13 14  2  0
 14 15  1  0
 15 16  1  0
 16 17  2  0
 17 13  1  0
 15 18  1  0
 18 19  1  0
 19 20  1  0
 20 21  1  0
 20 23  1  0
 21 22  1  0
 22 25  1  0
 24 23  1  0
 24 25  2  0
 25 26  1  0
 26 27  2  0
 27 28  1  0
 28 29  2  0
 29 24  1  0
 28 30  1  0
 27 31  1  0
 31 32  1  0
 30 33  1  0
 10 34  2  0
 34 35  1  0
 35 36  2  0
 36 37  1  0
 37 38  2  0
 38 10  1  0
 36 39  1  0
 39 40  1  0
M  END
>  <Classification>  (507) 
1

>  <pchembl>  (507) 
5.08

>  <InChI_steorem>  (507) 
InChI=1S/C30H33N5O5/c1-37-25-10-8-23(9-11-25)31-30(36)26-6-4-5-7-27(26)40-20-24-19-35(33-32-24)15-14-34-13-12-21-16-28(38-2)29(39-3)17-22(21)18-34/h4-11,16-17,19H,12-15,18,20H2,1-3H3,(H,31,36)

>  <source>  (507) 
ChEMBL25

>  <source_id>  (507) 
25

>  <optional_reference>  (507) 
10.1016/j.bmc.2017.06.015

>  <optional_origin>  (507) 
None

>  <target>  (507) 
MDR1

$$$$

     RDKit          2D

 44 48  0  0  0  0  0  0  0  0999 V2000
   23.1400  -19.8313    0.0000 C   0  0  0  0  0  0  0  0  0  0  0  0
   23.1388  -20.6550    0.0000 C   0  0  0  0  0  0  0  0  0  0  0  0
   23.8510  -21.0639    0.0000 C   0  0  0  0  0  0  0  0  0  0  0  0
   24.5648  -20.6545    0.0000 C   0  0  0  0  0  0  0  0  0  0  0  0
   24.5619  -19.8277    0.0000 C   0  0  0  0  0  0  0  0  0  0  0  0
   23.8492  -19.4183    0.0000 C   0  0  0  0  0  0  0  0  0  0  0  0
   25.2772  -21.0620    0.0000 C   0  0  0  0  0  0  0  0  0  0  0  0
   25.2785  -21.8833    0.0000 O   0  0  0  0  0  0  0  0  0  0  0  0
   25.9843  -20.6523    0.0000 N   0  0  0  0  0  0  0  0  0  0  0  0
   26.6968  -21.0598    0.0000 C   0  0  0  0  0  0  0  0  0  0  0  0
   25.2722  -19.4123    0.0000 O   0  0  0  0  0  0  0  0  0  0  0  0
   25.9815  -19.8224    0.0000 C   0  0  0  0  0  0  0  0  0  0  0  0
   26.6918  -19.4070    0.0000 C   0  0  0  0  0  0  0  0  0  0  0  0
   27.4412  -19.7436    0.0000 C   0  0  0  0  0  0  0  0  0  0  0  0
   27.9898  -19.1301    0.0000 N   0  0  0  0  0  0  0  0  0  0  0  0
   27.5744  -18.4198    0.0000 N   0  0  0  0  0  0  0  0  0  0  0  0
   26.7716  -18.5928    0.0000 N   0  0  0  0  0  0  0  0  0  0  0  0
   28.8081  -19.1297    0.0000 C   0  0  0  0  0  0  0  0  0  0  0  0
   29.2163  -18.4176    0.0000 C   0  0  0  0  0  0  0  0  0  0  0  0
   30.0376  -18.4172    0.0000 N   0  0  0  0  0  0  0  0  0  0  0  0
   30.4473  -19.1352    0.0000 C   0  0  0  0  0  0  0  0  0  0  0  0
   31.2651  -19.1367    0.0000 C   0  0  0  0  0  0  0  0  0  0  0  0
   30.4455  -17.7098    0.0000 C   0  0  0  0  0  0  0  0  0  0  0  0
   31.2694  -17.7130    0.0000 C   0  0  0  0  0  0  0  0  0  0  0  0
   31.6743  -18.4279    0.0000 C   0  0  0  0  0  0  0  0  0  0  0  0
   32.4945  -18.4316    0.0000 C   0  0  0  0  0  0  0  0  0  0  0  0
   32.9108  -17.7212    0.0000 C   0  0  0  0  0  0  0  0  0  0  0  0
   32.4968  -17.0056    0.0000 C   0  0  0  0  0  0  0  0  0  0  0  0
   31.6779  -17.0054    0.0000 C   0  0  0  0  0  0  0  0  0  0  0  0
   32.9099  -16.2940    0.0000 O   0  0  0  0  0  0  0  0  0  0  0  0
   33.7321  -17.7235    0.0000 O   0  0  0  0  0  0  0  0  0  0  0  0
   34.1387  -18.4365    0.0000 C   0  0  0  0  0  0  0  0  0  0  0  0
   33.7313  -16.2945    0.0000 C   0  0  0  0  0  0  0  0  0  0  0  0
   26.6934  -21.8795    0.0000 C   0  0  0  0  0  0  0  0  0  0  0  0
   27.4051  -22.2910    0.0000 C   0  0  0  0  0  0  0  0  0  0  0  0
   28.1173  -21.8772    0.0000 C   0  0  0  0  0  0  0  0  0  0  0  0
   28.1133  -21.0516    0.0000 C   0  0  0  0  0  0  0  0  0  0  0  0
   27.4011  -20.6479    0.0000 C   0  0  0  0  0  0  0  0  0  0  0  0
   28.8184  -20.6386    0.0000 O   0  0  0  0  0  0  0  0  0  0  0  0
   28.8265  -22.2831    0.0000 O   0  0  0  0  0  0  0  0  0  0  0  0
   27.4060  -23.1082    0.0000 O   0  0  0  0  0  0  0  0  0  0  0  0
   29.5287  -21.0427    0.0000 C   0  0  0  0  0  0  0  0  0  0  0  0
   28.8296  -23.1002    0.0000 C   0  0  0  0  0  0  0  0  0  0  0  0
   26.6987  -23.5176    0.0000 C   0  0  0  0  0  0  0  0  0  0  0  0
  1  2  2  0
  2  3  1  0
  3  4  2  0
  4  5  1  0
  5  6  2  0
  6  1  1  0
  4  7  1  0
  7  8  2  0
  7  9  1  0
  9 10  1  0
  5 11  1  0
 11 12  1  0
 12 13  1  0
 13 14  2  0
 14 15  1  0
 15 16  1  0
 16 17  2  0
 17 13  1  0
 15 18  1  0
 18 19  1  0
 19 20  1  0
 20 21  1  0
 20 23  1  0
 21 22  1  0
 22 25  1  0
 24 23  1  0
 24 25  2  0
 25 26  1  0
 26 27  2  0
 27 28  1  0
 28 29  2  0
 29 24  1  0
 28 30  1  0
 27 31  1  0
 31 32  1  0
 30 33  1  0
 10 34  2  0
 34 35  1  0
 35 36  2  0
 36 37  1  0
 37 38  2  0
 38 10  1  0
 37 39  1  0
 36 40  1  0
 35 41  1  0
 39 42  1  0
 40 43  1  0
 41 44  1  0
M  END
>  <Classification>  (508) 
0

>  <pchembl>  (508) 
4.5

>  <InChI_steorem>  (508) 
InChI=1S/C32H37N5O7/c1-39-27-14-21-10-11-36(18-22(21)15-28(27)40-2)12-13-37-19-24(34-35-37)20-44-26-9-7-6-8-25(26)32(38)33-23-16-29(41-3)31(43-5)30(17-23)42-4/h6-9,14-17,19H,10-13,18,20H2,1-5H3,(H,33,38)

>  <source>  (508) 
ChEMBL25

>  <source_id>  (508) 
25

>  <optional_reference>  (508) 
10.1016/j.bmc.2017.06.015

>  <optional_origin>  (508) 
None

>  <target>  (508) 
MDR1

$$$$

     RDKit          2D

 37 41  0  0  0  0  0  0  0  0999 V2000
   12.9676   -4.1869    0.0000 C   0  0  0  0  0  0  0  0  0  0  0  0
   12.9676   -5.0097    0.0000 C   0  0  0  0  0  0  0  0  0  0  0  0
   13.6831   -5.4211    0.0000 C   0  0  0  0  0  0  0  0  0  0  0  0
   14.3940   -5.0097    0.0000 C   0  0  0  0  0  0  0  0  0  0  0  0
   14.3940   -4.1869    0.0000 C   0  0  0  0  0  0  0  0  0  0  0  0
   13.6831   -3.7713    0.0000 C   0  0  0  0  0  0  0  0  0  0  0  0
   15.1787   -3.9280    0.0000 C   0  0  0  0  0  0  0  0  0  0  0  0
   15.6662   -4.5984    0.0000 C   0  0  0  0  0  0  0  0  0  0  0  0
   15.1787   -5.2644    0.0000 N   0  0  0  0  0  0  0  0  0  0  0  0
   16.4841   -4.5121    0.0000 C   0  0  0  0  0  0  0  0  0  0  0  0
   16.9715   -5.1782    0.0000 C   0  0  0  0  0  0  0  0  0  0  0  0
   17.7894   -5.0919    0.0000 C   0  0  0  0  0  0  0  0  0  0  0  0
   18.1244   -4.3398    0.0000 C   0  0  0  0  0  0  0  0  0  0  0  0
   17.6413   -3.6694    0.0000 C   0  0  0  0  0  0  0  0  0  0  0  0
   16.8191   -3.7557    0.0000 N   0  0  0  0  0  0  0  0  0  0  0  0
   16.3360   -3.0896    0.0000 C   0  0  0  0  0  0  0  0  0  0  0  0
   15.5179   -3.1759    0.0000 C   0  0  0  0  0  0  0  0  0  0  0  0
   16.9180   -2.5075    0.0000 C   0  0  0  0  0  0  0  0  0  0  0  0
   17.6335   -2.0963    0.0000 C   0  0  0  0  0  0  0  0  0  0  0  0
   18.2154   -2.6783    0.0000 O   0  0  0  0  0  0  0  0  0  0  0  0
   19.0426   -2.6783    0.0000 C   0  0  0  0  0  0  0  0  0  0  0  0
   17.6335   -1.2691    0.0000 O   0  0  0  0  0  0  0  0  0  0  0  0
   16.0747   -3.5798    0.0000 C   0  0  0  0  0  0  0  0  0  0  0  0
   18.9514   -4.3398    0.0000 C   0  0  0  0  0  0  0  0  0  0  0  0
   19.3629   -5.0551    0.0000 C   0  0  0  0  0  0  0  0  0  0  0  0
   16.0727   -5.2276    0.0000 N   0  0  0  0  0  0  0  0  0  0  0  0
   16.4839   -5.9382    0.0000 N   0  0  0  0  0  0  0  0  0  0  0  0
   16.0727   -6.6535    0.0000 C   0  0  0  0  0  0  0  0  0  0  0  0
   16.4839   -7.3685    0.0000 N   0  0  0  0  0  0  0  0  0  0  0  0
   16.0727   -8.0836    0.0000 C   0  0  0  0  0  0  0  0  0  0  0  0
   16.4839   -8.7944    0.0000 C   0  0  0  0  0  0  0  0  0  0  0  0
   16.0727   -9.5095    0.0000 C   0  0  0  0  0  0  0  0  0  0  0  0
   16.4839  -10.2246    0.0000 N   0  0  0  0  0  0  0  0  0  0  0  0
   17.3107  -10.2246    0.0000 C   0  0  0  0  0  0  0  0  0  0  0  0
   17.7220   -9.5095    0.0000 C   0  0  0  0  0  0  0  0  0  0  0  0
   17.3107   -8.7944    0.0000 C   0  0  0  0  0  0  0  0  0  0  0  0
   15.2503   -6.6535    0.0000 S   0  0  0  0  0  0  0  0  0  0  0  0
  1  2  2  0
  2  3  1  0
  3  4  2  0
  4  5  1  0
  5  6  2  0
  6  1  1  0
  7  5  1  0
  8  7  2  0
  9  8  1  0
  4  9  1  0
  8 10  1  0
 10 11  1  0
 11 12  1  0
 12 13  1  0
 13 14  1  0
 14 15  1  0
 15 16  1  0
 16 17  1  0
 17  7  1  0
 16 18  1  0
 12 18  1  0
 18 19  1  0
 19 20  1  0
 20 21  1  0
 19 22  2  0
 15 23  1  0
 13 24  1  0
 24 25  1  0
 10 26  2  3
 26 27  1  0
 27 28  1  0
 28 29  1  0
 29 30  1  0
 30 31  1  0
 31 32  2  0
 32 33  1  0
 33 34  2  0
 34 35  1  0
 35 36  2  0
 36 31  1  0
 28 37  2  0
M  END
>  <Classification>  (509) 
0

>  <pchembl>  (509) 
4.34

>  <InChI_steorem>  (509) 
InChI=1S/C28H34N6O2S/c1-4-18-16-34(2)24-13-21-19-9-5-6-10-22(19)31-26(21)23(12-20(18)25(24)27(35)36-3)32-33-28(37)30-15-17-8-7-11-29-14-17/h5-11,14,18,20,24-25,31H,4,12-13,15-16H2,1-3H3,(H2,30,33,37)

>  <source>  (509) 
ChEMBL25

>  <source_id>  (509) 
25

>  <optional_reference>  (509) 
10.1016/j.ejmech.2017.01.044

>  <optional_origin>  (509) 
None

>  <target>  (509) 
MDR1

$$$$

     RDKit          2D

 28 31  0  0  0  0  0  0  0  0999 V2000
   33.9666  -10.6359    0.0000 N   0  0  0  0  0  0  0  0  0  0  0  0
   33.9666   -9.0015    0.0000 C   0  0  0  0  0  0  0  0  0  0  0  0
   34.6719   -9.4142    0.0000 C   0  0  0  0  0  0  0  0  0  0  0  0
   34.6703  -10.2296    0.0000 C   0  0  0  0  0  0  0  0  0  0  0  0
   35.3745  -10.6369    0.0000 C   0  0  0  0  0  0  0  0  0  0  0  0
   36.0808  -10.2299    0.0000 C   0  0  0  0  0  0  0  0  0  0  0  0
   36.0785   -9.4114    0.0000 C   0  0  0  0  0  0  0  0  0  0  0  0
   35.3737   -9.0078    0.0000 C   0  0  0  0  0  0  0  0  0  0  0  0
   33.2613  -10.2314    0.0000 C   0  0  0  0  0  0  0  0  0  0  0  0
   33.2639   -9.4160    0.0000 C   0  0  0  0  0  0  0  0  0  0  0  0
   32.5601   -9.0079    0.0000 C   0  0  0  0  0  0  0  0  0  0  0  0
   31.8534   -9.4141    0.0000 C   0  0  0  0  0  0  0  0  0  0  0  0
   31.8548  -10.2326    0.0000 C   0  0  0  0  0  0  0  0  0  0  0  0
   32.5591  -10.6370    0.0000 C   0  0  0  0  0  0  0  0  0  0  0  0
   33.9652   -8.1843    0.0000 O   0  0  0  0  0  0  0  0  0  0  0  0
   35.3739  -11.4541    0.0000 C   0  0  0  0  0  0  0  0  0  0  0  0
   36.7849   -9.0006    0.0000 C   0  0  0  0  0  0  0  0  0  0  0  0
   33.9678  -11.4531    0.0000 C   0  0  0  0  0  0  0  0  0  0  0  0
   33.2607  -11.8627    0.0000 C   0  0  0  0  0  0  0  0  0  0  0  0
   33.2619  -12.6799    0.0000 C   0  0  0  0  0  0  0  0  0  0  0  0
   32.5548  -13.0895    0.0000 C   0  0  0  0  0  0  0  0  0  0  0  0
   31.8465  -12.6819    0.0000 N   0  0  0  0  0  0  0  0  0  0  0  0
   31.8481  -11.8672    0.0000 C   0  0  0  0  0  0  0  0  0  0  0  0
   31.1438  -11.4597    0.0000 C   0  0  0  0  0  0  0  0  0  0  0  0
   30.4343  -11.8658    0.0000 N   0  0  0  0  0  0  0  0  0  0  0  0
   30.4336  -12.6840    0.0000 C   0  0  0  0  0  0  0  0  0  0  0  0
   31.1423  -13.0960    0.0000 C   0  0  0  0  0  0  0  0  0  0  0  0
   29.7276  -11.4556    0.0000 C   0  0  0  0  0  0  0  0  0  0  0  0
 10  2  1  0
  9  1  1  0
  1  4  1  0
  3  2  1  0
  3  4  2  0
  4  5  1  0
  5  6  2  0
  6  7  1  0
  7  8  2  0
  8  3  1  0
  9 10  2  0
 10 11  1  0
 11 12  2  0
 12 13  1  0
 13 14  2  0
 14  9  1  0
  2 15  2  0
  5 16  1  0
  7 17  1  0
  1 18  1  0
 18 19  1  0
 19 20  1  0
 20 21  1  0
 21 22  1  0
 22 23  1  0
 22 27  1  0
 23 24  1  0
 24 25  1  0
 25 26  1  0
 26 27  1  0
 25 28  1  0
M  END
>  <Classification>  (510) 
1

>  <pchembl>  (510) 
8.0

>  <InChI_steorem>  (510) 
InChI=1S/C24H31N3O/c1-18-16-19(2)23-21(17-18)24(28)20-8-4-5-9-22(20)27(23)11-7-6-10-26-14-12-25(3)13-15-26/h4-5,8-9,16-17H,6-7,10-15H2,1-3H3

>  <source>  (510) 
ChEMBL25

>  <source_id>  (510) 
25

>  <optional_reference>  (510) 
10.1016/j.ejmech.2017.02.022

>  <optional_origin>  (510) 
None

>  <target>  (510) 
MDR1

$$$$

     RDKit          2D

 39 43  0  0  0  0  0  0  0  0999 V2000
   33.5282  -20.5659    0.0000 C   0  0  0  0  0  0  0  0  0  0  0  0
   33.5270  -21.3896    0.0000 C   0  0  0  0  0  0  0  0  0  0  0  0
   34.2392  -21.7986    0.0000 C   0  0  0  0  0  0  0  0  0  0  0  0
   34.9530  -21.3891    0.0000 C   0  0  0  0  0  0  0  0  0  0  0  0
   34.9502  -20.5623    0.0000 C   0  0  0  0  0  0  0  0  0  0  0  0
   34.2374  -20.1530    0.0000 C   0  0  0  0  0  0  0  0  0  0  0  0
   35.6655  -21.7966    0.0000 C   0  0  0  0  0  0  0  0  0  0  0  0
   35.6668  -22.6179    0.0000 O   0  0  0  0  0  0  0  0  0  0  0  0
   36.3725  -21.3869    0.0000 N   0  0  0  0  0  0  0  0  0  0  0  0
   37.0850  -21.7944    0.0000 C   0  0  0  0  0  0  0  0  0  0  0  0
   35.6605  -20.1470    0.0000 O   0  0  0  0  0  0  0  0  0  0  0  0
   36.3697  -20.5570    0.0000 C   0  0  0  0  0  0  0  0  0  0  0  0
   37.0800  -20.1416    0.0000 C   0  0  0  0  0  0  0  0  0  0  0  0
   37.8294  -20.4783    0.0000 C   0  0  0  0  0  0  0  0  0  0  0  0
   38.3780  -19.8648    0.0000 N   0  0  0  0  0  0  0  0  0  0  0  0
   37.9626  -19.1544    0.0000 N   0  0  0  0  0  0  0  0  0  0  0  0
   37.1599  -19.3275    0.0000 N   0  0  0  0  0  0  0  0  0  0  0  0
   39.1963  -19.8644    0.0000 C   0  0  0  0  0  0  0  0  0  0  0  0
   39.6045  -19.1523    0.0000 C   0  0  0  0  0  0  0  0  0  0  0  0
   40.4258  -19.1519    0.0000 N   0  0  0  0  0  0  0  0  0  0  0  0
   40.8356  -19.8698    0.0000 C   0  0  0  0  0  0  0  0  0  0  0  0
   41.6533  -19.8713    0.0000 C   0  0  0  0  0  0  0  0  0  0  0  0
   40.8337  -18.4445    0.0000 C   0  0  0  0  0  0  0  0  0  0  0  0
   41.6576  -18.4477    0.0000 C   0  0  0  0  0  0  0  0  0  0  0  0
   42.0625  -19.1625    0.0000 C   0  0  0  0  0  0  0  0  0  0  0  0
   42.8827  -19.1662    0.0000 C   0  0  0  0  0  0  0  0  0  0  0  0
   43.2990  -18.4559    0.0000 C   0  0  0  0  0  0  0  0  0  0  0  0
   42.8850  -17.7403    0.0000 C   0  0  0  0  0  0  0  0  0  0  0  0
   42.0661  -17.7400    0.0000 C   0  0  0  0  0  0  0  0  0  0  0  0
   43.2982  -17.0287    0.0000 O   0  0  0  0  0  0  0  0  0  0  0  0
   44.1203  -18.4582    0.0000 O   0  0  0  0  0  0  0  0  0  0  0  0
   44.5269  -19.1711    0.0000 C   0  0  0  0  0  0  0  0  0  0  0  0
   44.1195  -17.0292    0.0000 C   0  0  0  0  0  0  0  0  0  0  0  0
   37.0817  -22.6142    0.0000 C   0  0  0  0  0  0  0  0  0  0  0  0
   37.7933  -23.0257    0.0000 C   0  0  0  0  0  0  0  0  0  0  0  0
   38.5055  -22.6118    0.0000 C   0  0  0  0  0  0  0  0  0  0  0  0
   38.5016  -21.7863    0.0000 C   0  0  0  0  0  0  0  0  0  0  0  0
   37.7894  -21.3826    0.0000 C   0  0  0  0  0  0  0  0  0  0  0  0
   39.2147  -23.0177    0.0000 F   0  0  0  0  0  0  0  0  0  0  0  0
  1  2  2  0
  2  3  1  0
  3  4  2  0
  4  5  1  0
  5  6  2  0
  6  1  1  0
  4  7  1  0
  7  8  2  0
  7  9  1  0
  9 10  1  0
  5 11  1  0
 11 12  1  0
 12 13  1  0
 13 14  2  0
 14 15  1  0
 15 16  1  0
 16 17  2  0
 17 13  1  0
 15 18  1  0
 18 19  1  0
 19 20  1  0
 20 21  1  0
 20 23  1  0
 21 22  1  0
 22 25  1  0
 24 23  1  0
 24 25  2  0
 25 26  1  0
 26 27  2  0
 27 28  1  0
 28 29  2  0
 29 24  1  0
 28 30  1  0
 27 31  1  0
 31 32  1  0
 30 33  1  0
 10 34  2  0
 34 35  1  0
 35 36  2  0
 36 37  1  0
 37 38  2  0
 38 10  1  0
 36 39  1  0
M  END
>  <Classification>  (511) 
1

>  <pchembl>  (511) 
5.08

>  <InChI_steorem>  (511) 
InChI=1S/C29H30FN5O4/c1-37-27-15-20-11-12-34(17-21(20)16-28(27)38-2)13-14-35-18-24(32-33-35)19-39-26-6-4-3-5-25(26)29(36)31-23-9-7-22(30)8-10-23/h3-10,15-16,18H,11-14,17,19H2,1-2H3,(H,31,36)

>  <source>  (511) 
ChEMBL25

>  <source_id>  (511) 
25

>  <optional_reference>  (511) 
10.1016/j.bmc.2017.06.015

>  <optional_origin>  (511) 
None

>  <target>  (511) 
MDR1

$$$$

     RDKit          2D

 87 94  0  0  0  0  0  0  0  0999 V2000
   10.6384   -4.1341    0.0000 N   0  0  0  0  0  0  0  0  0  0  0  0
   10.0098   -3.6331    0.0000 O   0  0  0  0  0  0  0  0  0  0  0  0
    9.5545   -4.8908    0.0000 C   0  0  0  0  0  0  0  0  0  0  0  0
    9.3322   -4.0705    0.0000 C   0  0  0  0  0  0  0  0  0  0  0  0
   11.0473   -6.1544    0.0000 C   0  0  0  0  0  0  0  0  0  0  0  0
   12.4919   -6.1862    0.0000 C   0  0  0  0  0  0  0  0  0  0  0  0
   10.3586   -4.8909    0.0000 C   0  0  0  0  0  0  0  0  0  0  0  0
   11.0697   -5.3236    0.0000 C   0  0  0  0  0  0  0  0  0  0  0  0
   11.7951   -4.9237    0.0000 C   0  0  0  0  0  0  0  0  0  0  0  0
   11.7612   -6.5912    0.0000 C   0  0  0  0  0  0  0  0  0  0  0  0
   12.5101   -5.3503    0.0000 C   0  0  0  0  0  0  0  0  0  0  0  0
    8.5732   -3.7868    0.0000 C   0  0  0  0  0  0  0  0  0  0  0  0
   15.7892  -10.4404    0.0000 C   0  0  0  0  0  0  0  0  0  0  0  0
   24.8173  -10.1512    0.0000 C   0  0  0  0  0  0  0  0  0  0  0  0
   24.4389   -9.4370    0.0000 N   0  0  0  0  0  0  0  0  0  0  0  0
    8.8720   -5.7751    0.0000 C   0  0  0  0  0  0  0  0  0  0  0  0
   19.3146  -10.1864    0.0000 O   0  0  0  0  0  0  0  0  0  0  0  0
   29.4730  -12.3085    0.0000 O   0  0  0  0  0  0  0  0  0  0  0  0
   23.6384   -9.5701    0.0000 N   0  0  0  0  0  0  0  0  0  0  0  0
    8.0691   -5.6516    0.0000 C   0  0  0  0  0  0  0  0  0  0  0  0
   17.9123  -10.1241    0.0000 C   0  0  0  0  0  0  0  0  0  0  0  0
    6.9748   -4.7761    0.0000 O   0  0  0  0  0  0  0  0  0  0  0  0
    6.7678   -6.1674    0.0000 C   0  0  0  0  0  0  0  0  0  0  0  0
   10.1369  -10.0949    0.0000 N   0  0  0  0  0  0  0  0  0  0  0  0
    8.6666   -7.1598    0.0000 C   0  0  0  0  0  0  0  0  0  0  0  0
   10.4737   -6.0154    0.0000 O   0  0  0  0  0  0  0  0  0  0  0  0
   27.0283  -11.9353    0.0000 C   0  0  0  0  0  0  0  0  0  0  0  0
   12.2978   -9.8659    0.0000 C   0  0  0  0  0  0  0  0  0  0  0  0
    9.7634   -8.0354    0.0000 C   0  0  0  0  0  0  0  0  0  0  0  0
    7.8513   -7.0644    0.0000 N   0  0  0  0  0  0  0  0  0  0  0  0
   10.8930   -9.8036    0.0000 N   0  0  0  0  0  0  0  0  0  0  0  0
    5.8721   -3.9071    0.0000 C   0  0  0  0  0  0  0  0  0  0  0  0
    9.9705   -6.6482    0.0000 C   0  0  0  0  0  0  0  0  0  0  0  0
   25.9096  -11.0418    0.0000 O   0  0  0  0  0  0  0  0  0  0  0  0
    7.7778   -4.8995    0.0000 C   0  0  0  0  0  0  0  0  0  0  0  0
    9.1699   -6.5270    0.0000 C   0  0  0  0  0  0  0  0  0  0  0  0
   18.5920  -10.5565    0.0000 C   0  0  0  0  0  0  0  0  0  0  0  0
   26.7242  -11.1682    0.0000 C   0  0  0  0  0  0  0  0  0  0  0  0
   25.6135  -10.2748    0.0000 C   0  0  0  0  0  0  0  0  0  0  0  0
   15.1051   -9.9974    0.0000 O   0  0  0  0  0  0  0  0  0  0  0  0
   28.1420  -12.8265    0.0000 C   0  0  0  0  0  0  0  0  0  0  0  0
   26.8064  -13.3401    0.0000 N   0  0  0  0  0  0  0  0  0  0  0  0
    9.6183   -9.4754    0.0000 N   0  0  0  0  0  0  0  0  0  0  0  0
   26.5138  -12.5716    0.0000 C   0  0  0  0  0  0  0  0  0  0  0  0
   13.6988   -9.9416    0.0000 C   0  0  0  0  0  0  0  0  0  0  0  0
   22.7988  -10.7473    0.0000 C   0  0  0  0  0  0  0  0  0  0  0  0
   25.6995  -12.4472    0.0000 C   0  0  0  0  0  0  0  0  0  0  0  0
   30.0636  -13.8446    0.0000 C   0  0  0  0  0  0  0  0  0  0  0  0
   21.3966  -10.6809    0.0000 O   0  0  0  0  0  0  0  0  0  0  0  0
   20.7169  -10.2485    0.0000 C   0  0  0  0  0  0  0  0  0  0  0  0
    6.6834   -4.0241    0.0000 C   0  0  0  0  0  0  0  0  0  0  0  0
   19.9984  -10.6188    0.0000 C   0  0  0  0  0  0  0  0  0  0  0  0
   12.9847  -10.3137    0.0000 O   0  0  0  0  0  0  0  0  0  0  0  0
   10.8445   -8.9901    0.0000 C   0  0  0  0  0  0  0  0  0  0  0  0
    8.2785   -4.2644    0.0000 O   0  0  0  0  0  0  0  0  0  0  0  0
   17.1936  -10.4985    0.0000 O   0  0  0  0  0  0  0  0  0  0  0  0
   11.5769  -10.2400    0.0000 C   0  0  0  0  0  0  0  0  0  0  0  0
   30.3650  -14.6128    0.0000 C   0  0  0  0  0  0  0  0  0  0  0  0
   16.5098  -10.0661    0.0000 C   0  0  0  0  0  0  0  0  0  0  0  0
   27.9179  -14.2349    0.0000 C   0  0  0  0  0  0  0  0  0  0  0  0
   27.6209  -13.4667    0.0000 C   0  0  0  0  0  0  0  0  0  0  0  0
   29.2493  -13.7238    0.0000 O   0  0  0  0  0  0  0  0  0  0  0  0
   10.2684   -7.4002    0.0000 O   0  0  0  0  0  0  0  0  0  0  0  0
   24.2500  -10.7301    0.0000 C   0  0  0  0  0  0  0  0  0  0  0  0
   22.1192  -10.3108    0.0000 C   0  0  0  0  0  0  0  0  0  0  0  0
   27.2431  -10.5194    0.0000 O   0  0  0  0  0  0  0  0  0  0  0  0
    7.5640   -6.2951    0.0000 C   0  0  0  0  0  0  0  0  0  0  0  0
   27.8445  -12.0557    0.0000 C   0  0  0  0  0  0  0  0  0  0  0  0
   10.0590   -8.7957    0.0000 C   0  0  0  0  0  0  0  0  0  0  0  0
   23.5174  -10.3730    0.0000 N   0  0  0  0  0  0  0  0  0  0  0  0
   28.9561  -12.9516    0.0000 C   0  0  0  0  0  0  0  0  0  0  0  0
   14.3891  -10.3782    0.0000 C   0  0  0  0  0  0  0  0  0  0  0  0
    8.9604   -7.9160    0.0000 C   0  0  0  0  0  0  0  0  0  0  0  0
   28.6272  -11.0460    0.0000 C   0  0  0  0  0  0  0  0  0  0  0  0
   29.4473  -11.0805    0.0000 C   0  0  0  0  0  0  0  0  0  0  0  0
   28.0372   -8.8615    0.0000 C   0  0  0  0  0  0  0  0  0  0  0  0
   28.4101  -10.2483    0.0000 C   0  0  0  0  0  0  0  0  0  0  0  0
   26.4338   -9.2972    0.0000 C   0  0  0  0  0  0  0  0  0  0  0  0
   27.8169   -9.6649    0.0000 C   0  0  0  0  0  0  0  0  0  0  0  0
   26.6455   -8.4895    0.0000 C   0  0  0  0  0  0  0  0  0  0  0  0
   30.0230  -11.5971    0.0000 C   0  0  0  0  0  0  0  0  0  0  0  0
   27.0195   -9.8810    0.0000 C   0  0  0  0  0  0  0  0  0  0  0  0
   29.7418  -10.3098    0.0000 O   0  0  0  0  0  0  0  0  0  0  0  0
   29.0962   -9.7959    0.0000 N   0  0  0  0  0  0  0  0  0  0  0  0
   27.4488   -8.2742    0.0000 C   0  0  0  0  0  0  0  0  0  0  0  0
   13.1915   -6.6086    0.0000 Br  0  0  0  0  0  0  0  0  0  0  0  0
   26.0660   -7.9132    0.0000 Br  0  0  0  0  0  0  0  0  0  0  0  0
  3  4  2  0
 11  9  1  0
  4 12  1  0
  9  8  2  0
  2  1  1  0
 10  6  1  0
  1  7  2  0
  5 10  2  0
  7  8  1  0
  7  3  1  0
  2  4  1  0
  6 11  2  0
  8  5  1  0
 27 44  2  0
 20 67  2  0
 41 68  1  0
 61 60  1  0
 39 14  1  0
 17 37  1  0
 65 49  1  0
 13 40  1  0
 40 72  1  0
 45 53  1  0
 56 59  1  0
 16 20  1  0
 51 32  1  0
 30 25  1  0
 71 62  1  0
 25 36  2  0
 30 67  1  0
 15 14  1  0
 61 41  2  0
 31 54  1  0
 50 52  1  0
 35 55  2  0
 28 53  1  0
 59 13  1  0
 43 69  1  0
 52 17  1  0
 62 48  1  0
 29 63  1  0
 21 56  1  0
 39 34  1  0
 36 16  1  0
 38 27  1  0
 34 38  1  0
 27 68  1  0
 67 23  1  0
 48 58  1  0
 42 61  1  0
 22 51  1  0
 69 29  1  0
 31 24  1  0
 72 45  1  0
 71 18  2  0
 25 73  1  0
 20 35  1  0
 49 50  1  0
 33 26  2  0
 57 31  1  0
 44 42  1  0
 24 43  2  0
 14 64  2  0
 37 21  1  0
 19 15  2  0
 35 22  1  0
 46 65  1  0
 33 36  1  0
 70 64  1  0
 63 33  1  0
 41 71  1  0
 38 66  2  0
 28 57  1  0
 44 47  1  0
 69 54  2  0
 70 46  1  0
 70 19  1  0
 16  3  1  0
 68 74  1  0
 79 76  2  0
 78 82  2  0
 77 79  1  0
 75 83  1  0
 75 81  1  0
 77 74  1  0
 85 80  2  0
 84 77  2  0
 74 75  2  0
 80 78  1  0
 83 84  1  0
 82 79  1  0
 76 85  1  0
  6 86  1  0
 80 87  1  0
M  END
>  <Classification>  (512) 
1

>  <pchembl>  (512) 
5.86

>  <InChI_steorem>  (512) 
InChI=1S/C60H70Br2N10O15/c1-9-82-57(73)47-35(3)63-37(5)49(53(47)51-39(7)86-67-55(51)41-11-15-43(61)16-12-41)59(75)84-33-45-31-71(69-65-45)19-21-77-23-25-79-27-29-81-30-28-80-26-24-78-22-20-72-32-46(66-70-72)34-85-60(76)50-38(6)64-36(4)48(58(74)83-10-2)54(50)52-40(8)87-68-56(52)42-13-17-44(62)18-14-42/h11-18,31-32,53-54,63-64H,9-10,19-30,33-34H2,1-8H3

>  <source>  (512) 
ChEMBL25

>  <source_id>  (512) 
25

>  <optional_reference>  (512) 
10.1016/j.bmc.2017.04.008

>  <optional_origin>  (512) 
None

>  <target>  (512) 
MDR1

$$$$

     RDKit          2D

 78 85  0  0  0  0  0  0  0  0999 V2000
    5.1365   -5.6996    0.0000 C   0  0  0  0  0  0  0  0  0  0  0  0
    8.2224   -9.7161    0.0000 C   0  0  0  0  0  0  0  0  0  0  0  0
    6.5273   -7.3288    0.0000 C   0  0  0  0  0  0  0  0  0  0  0  0
   17.9725  -15.0458    0.0000 O   0  0  0  0  0  0  0  0  0  0  0  0
   17.0408  -12.1844    0.0000 N   0  0  0  0  0  0  0  0  0  0  0  0
   12.8622  -12.0544    0.0000 C   0  0  0  0  0  0  0  0  0  0  0  0
    8.5948  -11.7756    0.0000 N   0  0  0  0  0  0  0  0  0  0  0  0
   15.9203  -15.7771    0.0000 C   0  0  0  0  0  0  0  0  0  0  0  0
    8.4267   -8.3238    0.0000 C   0  0  0  0  0  0  0  0  0  0  0  0
   14.2631  -12.1158    0.0000 C   0  0  0  0  0  0  0  0  0  0  0  0
    6.3009   -8.7435    0.0000 N   0  0  0  0  0  0  0  0  0  0  0  0
   16.7418  -15.7719    0.0000 C   0  0  0  0  0  0  0  0  0  0  0  0
    7.3314   -7.4506    0.0000 C   0  0  0  0  0  0  0  0  0  0  0  0
   15.7341  -12.0623    0.0000 N   0  0  0  0  0  0  0  0  0  0  0  0
    8.0793  -11.1524    0.0000 N   0  0  0  0  0  0  0  0  0  0  0  0
   17.9979  -17.9057    0.0000 O   0  0  0  0  0  0  0  0  0  0  0  0
   17.1813  -19.3396    0.0000 C   0  0  0  0  0  0  0  0  0  0  0  0
   15.5216  -17.9211    0.0000 C   0  0  0  0  0  0  0  0  0  0  0  0
    5.2236   -7.8415    0.0000 C   0  0  0  0  0  0  0  0  0  0  0  0
   11.4569  -11.9908    0.0000 O   0  0  0  0  0  0  0  0  0  0  0  0
    8.5180  -10.4700    0.0000 C   0  0  0  0  0  0  0  0  0  0  0  0
   15.5030  -15.0653    0.0000 C   0  0  0  0  0  0  0  0  0  0  0  0
   16.4324  -11.6463    0.0000 N   0  0  0  0  0  0  0  0  0  0  0  0
   13.5764  -11.6748    0.0000 O   0  0  0  0  0  0  0  0  0  0  0  0
   16.7731  -20.0565    0.0000 C   0  0  0  0  0  0  0  0  0  0  0  0
    6.7338   -5.9365    0.0000 O   0  0  0  0  0  0  0  0  0  0  0  0
    6.2318   -6.5751    0.0000 C   0  0  0  0  0  0  0  0  0  0  0  0
    7.4185   -9.5902    0.0000 C   0  0  0  0  0  0  0  0  0  0  0  0
    8.7244   -9.0775    0.0000 O   0  0  0  0  0  0  0  0  0  0  0  0
   12.1734  -11.6199    0.0000 C   0  0  0  0  0  0  0  0  0  0  0  0
   17.1664  -16.4798    0.0000 C   0  0  0  0  0  0  0  0  0  0  0  0
    9.3527  -11.4843    0.0000 N   0  0  0  0  0  0  0  0  0  0  0  0
   14.9861  -11.7426    0.0000 C   0  0  0  0  0  0  0  0  0  0  0  0
    7.6291   -8.2043    0.0000 C   0  0  0  0  0  0  0  0  0  0  0  0
   10.0353  -11.9186    0.0000 C   0  0  0  0  0  0  0  0  0  0  0  0
    6.0211   -7.9674    0.0000 C   0  0  0  0  0  0  0  0  0  0  0  0
    8.9351   -7.6918    0.0000 O   0  0  0  0  0  0  0  0  0  0  0  0
   17.1342  -13.6246    0.0000 C   0  0  0  0  0  0  0  0  0  0  0  0
    9.3048  -10.6698    0.0000 C   0  0  0  0  0  0  0  0  0  0  0  0
    7.1207   -8.8365    0.0000 C   0  0  0  0  0  0  0  0  0  0  0  0
   17.1475  -15.0536    0.0000 C   0  0  0  0  0  0  0  0  0  0  0  0
   10.7582  -11.5456    0.0000 C   0  0  0  0  0  0  0  0  0  0  0  0
   16.7646  -18.6276    0.0000 O   0  0  0  0  0  0  0  0  0  0  0  0
   15.9301  -17.2043    0.0000 C   0  0  0  0  0  0  0  0  0  0  0  0
   16.7283  -14.3430    0.0000 O   0  0  0  0  0  0  0  0  0  0  0  0
   16.7561  -17.1986    0.0000 C   0  0  0  0  0  0  0  0  0  0  0  0
   15.9169  -12.8561    0.0000 C   0  0  0  0  0  0  0  0  0  0  0  0
    5.4279   -6.4533    0.0000 O   0  0  0  0  0  0  0  0  0  0  0  0
   17.1729  -17.9106    0.0000 C   0  0  0  0  0  0  0  0  0  0  0  0
    4.3283   -5.5801    0.0000 C   0  0  0  0  0  0  0  0  0  0  0  0
   16.7243  -12.9297    0.0000 C   0  0  0  0  0  0  0  0  0  0  0  0
   15.5145  -16.4913    0.0000 N   0  0  0  0  0  0  0  0  0  0  0  0
    8.0716   -6.5472    0.0000 C   0  0  0  0  0  0  0  0  0  0  0  0
   11.7179   -8.2741    0.0000 Br  0  0  0  0  0  0  0  0  0  0  0  0
    9.5895   -6.9797    0.0000 C   0  0  0  0  0  0  0  0  0  0  0  0
   10.2795   -8.2499    0.0000 C   0  0  0  0  0  0  0  0  0  0  0  0
    7.8518   -5.7276    0.0000 C   0  0  0  0  0  0  0  0  0  0  0  0
    7.0910   -5.4439    0.0000 C   0  0  0  0  0  0  0  0  0  0  0  0
    8.8761   -6.5489    0.0000 C   0  0  0  0  0  0  0  0  0  0  0  0
   11.0303   -7.0102    0.0000 C   0  0  0  0  0  0  0  0  0  0  0  0
    8.5281   -5.2842    0.0000 O   0  0  0  0  0  0  0  0  0  0  0  0
    9.5673   -7.8152    0.0000 C   0  0  0  0  0  0  0  0  0  0  0  0
   11.0123   -7.8467    0.0000 C   0  0  0  0  0  0  0  0  0  0  0  0
   10.3172   -6.5812    0.0000 C   0  0  0  0  0  0  0  0  0  0  0  0
    9.1601   -5.7904    0.0000 N   0  0  0  0  0  0  0  0  0  0  0  0
   18.6534  -16.5686    0.0000 C   0  0  0  0  0  0  0  0  0  0  0  0
   19.9757  -14.7450    0.0000 C   0  0  0  0  0  0  0  0  0  0  0  0
   19.2501  -15.1545    0.0000 C   0  0  0  0  0  0  0  0  0  0  0  0
   19.8383  -17.1818    0.0000 O   0  0  0  0  0  0  0  0  0  0  0  0
   18.7711  -18.1642    0.0000 C   0  0  0  0  0  0  0  0  0  0  0  0
   19.2883  -12.5495    0.0000 Br  0  0  0  0  0  0  0  0  0  0  0  0
   18.5373  -13.9081    0.0000 C   0  0  0  0  0  0  0  0  0  0  0  0
   19.2439  -15.9866    0.0000 C   0  0  0  0  0  0  0  0  0  0  0  0
   19.2629  -13.4922    0.0000 C   0  0  0  0  0  0  0  0  0  0  0  0
   19.0222  -17.3029    0.0000 C   0  0  0  0  0  0  0  0  0  0  0  0
   19.9753  -16.3682    0.0000 N   0  0  0  0  0  0  0  0  0  0  0  0
   18.5351  -14.7380    0.0000 C   0  0  0  0  0  0  0  0  0  0  0  0
   19.9814  -13.9138    0.0000 C   0  0  0  0  0  0  0  0  0  0  0  0
 10 24  1  0
 14 33  1  0
 36 11  1  0
 34 13  1  0
  8 52  1  0
 29  9  1  0
 33 10  1  0
  5 51  1  0
 27 48  1  0
 38 51  1  0
 36 19  1  0
  9 34  1  0
 44 18  1  0
 24  6  1  0
 51 47  2  0
 38 45  1  0
  3 36  2  0
 17 25  1  0
 49 16  2  0
  6 30  1  0
 46 31  1  0
 46 49  1  0
  1 50  1  0
 44 46  2  0
 48  1  1  0
  9 37  2  0
 12 31  1  0
 35 32  1  0
 23  5  2  0
 52 44  1  0
 15 21  1  0
 21  2  1  0
 49 43  1  0
  7 15  2  0
  8 22  1  0
  3 27  1  0
 27 26  2  0
 30 20  1  0
 40 11  1  0
 32  7  1  0
 42 35  1  0
 12  8  2  0
 40 28  1  0
 14 23  1  0
 43 17  1  0
 40 34  2  0
 45 41  1  0
 41 12  1  0
 13  3  1  0
 20 42  1  0
  2 29  1  0
 21 39  2  0
 14 47  1  0
 41  4  2  0
 32 39  1  0
 13 53  1  0
 65 59  2  0
 56 63  2  0
 53 57  2  0
 61 57  1  0
 61 65  1  0
 55 62  2  0
 64 55  1  0
 63 60  1  0
 59 55  1  0
 63 54  1  0
 59 53  1  0
 62 56  1  0
 57 58  1  0
 60 64  2  0
 31 66  1  0
 68 67  2  0
 76 73  2  0
 78 74  2  0
 73 68  1  0
 69 76  1  0
 73 66  1  0
 77 68  1  0
 74 71  1  0
 67 78  1  0
 72 77  2  0
 66 75  2  0
 75 69  1  0
 74 72  1  0
 75 70  1  0
M  END
>  <Classification>  (513) 
1

>  <pchembl>  (513) 
5.84

>  <InChI_steorem>  (513) 
InChI=1S/C54H58Br2N10O12/c1-9-73-51(67)41-29(3)57-31(5)43(47(41)45-33(7)77-61-49(45)35-11-15-37(55)16-12-35)53(69)75-27-39-25-65(63-59-39)19-21-71-23-24-72-22-20-66-26-40(60-64-66)28-76-54(70)44-32(6)58-30(4)42(52(68)74-10-2)48(44)46-34(8)78-62-50(46)36-13-17-38(56)18-14-36/h11-18,25-26,47-48,57-58H,9-10,19-24,27-28H2,1-8H3

>  <source>  (513) 
ChEMBL25

>  <source_id>  (513) 
25

>  <optional_reference>  (513) 
10.1016/j.bmc.2017.04.008

>  <optional_origin>  (513) 
None

>  <target>  (513) 
MDR1

$$$$

     RDKit          2D

 25 27  0  0  0  0  0  0  0  0999 V2000
    1.4289   -2.4750    0.0000 O   0  0  0  0  0  0  0  0  0  0  0  0
    1.4289   -1.6500    0.0000 C   0  0  0  0  0  0  0  0  0  0  0  0
    0.7145   -1.2375    0.0000 C   0  0  0  0  0  0  0  0  0  0  0  0
    0.7145   -0.4125    0.0000 C   0  0  0  0  0  0  0  0  0  0  0  0
    1.4289    0.0000    0.0000 O   0  0  0  0  0  0  0  0  0  0  0  0
    2.1434   -0.4125    0.0000 C   0  0  0  0  0  0  0  0  0  0  0  0
    2.8579    0.0000    0.0000 C   0  0  0  0  0  0  0  0  0  0  0  0
    3.5724   -0.4125    0.0000 C   0  0  0  0  0  0  0  0  0  0  0  0
    3.5724   -1.2375    0.0000 C   0  0  0  0  0  0  0  0  0  0  0  0
    2.8579   -1.6500    0.0000 C   0  0  0  0  0  0  0  0  0  0  0  0
    2.1434   -1.2375    0.0000 C   0  0  0  0  0  0  0  0  0  0  0  0
    0.0000    0.0000    0.0000 C   0  0  0  0  0  0  0  0  0  0  0  0
   -0.7145   -0.4125    0.0000 C   0  0  0  0  0  0  0  0  0  0  0  0
   -1.4289    0.0000    0.0000 C   0  0  0  0  0  0  0  0  0  0  0  0
   -1.4289    0.8250    0.0000 C   0  0  0  0  0  0  0  0  0  0  0  0
   -0.7145    1.2375    0.0000 C   0  0  0  0  0  0  0  0  0  0  0  0
    0.0000    0.8250    0.0000 C   0  0  0  0  0  0  0  0  0  0  0  0
    0.0000   -1.6500    0.0000 O   0  0  0  0  0  0  0  0  0  0  0  0
   -0.7145   -1.2375    0.0000 C   0  0  0  0  0  0  0  0  0  0  0  0
    4.2868   -1.6500    0.0000 O   0  0  0  0  0  0  0  0  0  0  0  0
    4.2868   -2.4750    0.0000 C   0  0  0  0  0  0  0  0  0  0  0  0
   -2.1434   -0.4125    0.0000 O   0  0  0  0  0  0  0  0  0  0  0  0
   -2.8579    0.0000    0.0000 C   0  0  0  0  0  0  0  0  0  0  0  0
   -2.1434    1.2375    0.0000 O   0  0  0  0  0  0  0  0  0  0  0  0
   -2.8579    0.8250    0.0000 C   0  0  0  0  0  0  0  0  0  0  0  0
  1  2  2  0
  2  3  1  0
  3  4  2  0
  4  5  1  0
  5  6  1  0
  6  7  2  0
  7  8  1  0
  8  9  2  0
  9 10  1  0
 10 11  2  0
  2 11  1  0
  6 11  1  0
  4 12  1  0
 12 13  2  0
 13 14  1  0
 14 15  2  0
 15 16  1  0
 16 17  2  0
 12 17  1  0
 18 19  1  0
  3 18  1  0
 20 21  1  0
  9 20  1  0
 22 23  1  0
 14 22  1  0
 24 25  1  0
 15 24  1  0
M  END
>  <Classification>  (514) 
1

>  <pchembl>  (514) 
5.72

>  <InChI_steorem>  (514) 
InChI=1S/C19H18O6/c1-21-12-6-8-14-13(10-12)17(20)19(24-4)18(25-14)11-5-7-15(22-2)16(9-11)23-3/h5-10H,1-4H3

>  <source>  (514) 
ChEMBL25

>  <source_id>  (514) 
25

>  <optional_reference>  (514) 
10.1016/j.bbrc.2004.06.020

>  <optional_origin>  (514) 
None

>  <target>  (514) 
MDR1

$$$$

     RDKit          2D

 26 28  0  0  0  0  0  0  0  0999 V2000
   -0.0589  -20.3893    0.0000 C   0  0  0  0  0  0  0  0  0  0  0  0
   -0.7734  -20.8018    0.0000 C   0  0  0  0  0  0  0  0  0  0  0  0
   -0.7734  -21.6268    0.0000 C   0  0  0  0  0  0  0  0  0  0  0  0
   -0.0589  -22.0393    0.0000 C   0  0  0  0  0  0  0  0  0  0  0  0
    0.6556  -21.6268    0.0000 C   0  0  0  0  0  0  0  0  0  0  0  0
    0.6556  -20.8018    0.0000 C   0  0  0  0  0  0  0  0  0  0  0  0
    1.3700  -20.3893    0.0000 C   0  0  0  0  0  0  0  0  0  0  0  0
    2.0845  -20.8018    0.0000 C   0  0  0  0  0  0  0  0  0  0  0  0
    2.0845  -21.6268    0.0000 C   0  0  0  0  0  0  0  0  0  0  0  0
    2.7990  -22.0393    0.0000 C   0  0  0  0  0  0  0  0  0  0  0  0
    3.5135  -21.6268    0.0000 N   0  0  0  0  0  0  0  0  0  0  0  0
    3.5135  -20.8018    0.0000 C   0  0  0  0  0  0  0  0  0  0  0  0
    2.7990  -20.3893    0.0000 C   0  0  0  0  0  0  0  0  0  0  0  0
    4.2280  -22.0393    0.0000 C   0  0  0  0  0  0  0  0  0  0  0  0
    4.9424  -21.6268    0.0000 C   0  0  0  0  0  0  0  0  0  0  0  0
    5.6569  -22.0393    0.0000 C   0  0  0  0  0  0  0  0  0  0  0  0
    6.3714  -21.6268    0.0000 C   0  0  0  0  0  0  0  0  0  0  0  0
    7.0859  -22.0393    0.0000 C   0  0  0  0  0  0  0  0  0  0  0  0
    7.8003  -21.6268    0.0000 C   0  0  0  0  0  0  0  0  0  0  0  0
    7.8003  -20.8018    0.0000 C   0  0  0  0  0  0  0  0  0  0  0  0
    7.0858  -20.3893    0.0000 C   0  0  0  0  0  0  0  0  0  0  0  0
    6.3714  -20.8018    0.0000 C   0  0  0  0  0  0  0  0  0  0  0  0
    7.0858  -19.5643    0.0000 O   0  0  0  0  0  0  0  0  0  0  0  0
    7.8003  -19.1518    0.0000 C   0  0  0  0  0  0  0  0  0  0  0  0
    8.5148  -20.3893    0.0000 O   0  0  0  0  0  0  0  0  0  0  0  0
    9.2293  -20.8018    0.0000 C   0  0  0  0  0  0  0  0  0  0  0  0
  1  2  2  0
  1  6  1  0
  2  3  1  0
  3  4  2  0
  4  5  1  0
  5  6  2  0
  6  7  1  0
  7  8  1  0
  8  9  1  0
 13  8  1  0
  9 10  1  0
 10 11  1  0
 11 12  1  0
 12 13  1  0
 11 14  1  0
 14 15  1  0
 15 16  1  0
 16 17  1  0
 17 18  2  0
 17 22  1  0
 18 19  1  0
 19 20  2  0
 20 21  1  0
 21 22  2  0
 21 23  1  0
 23 24  1  0
 20 25  1  0
 25 26  1  0
M  END
>  <Classification>  (515) 
1

>  <pchembl>  (515) 
5.64

>  <InChI_steorem>  (515) 
InChI=1S/C23H31NO2/c1-25-22-11-10-20(18-23(22)26-2)9-6-14-24-15-12-21(13-16-24)17-19-7-4-3-5-8-19/h3-5,7-8,10-11,18,21H,6,9,12-17H2,1-2H3

>  <source>  (515) 
ChEMBL25

>  <source_id>  (515) 
25

>  <optional_reference>  (515) 
10.1124/mol.61.5.964

>  <optional_origin>  (515) 
None

>  <target>  (515) 
MDR1

$$$$

     RDKit          2D

 26 29  0  0  0  0  0  0  0  0999 V2000
    4.2868   -4.1250    0.0000 Cl  0  0  0  0  0  0  0  0  0  0  0  0
    3.5724   -3.7125    0.0000 C   0  0  0  0  0  0  0  0  0  0  0  0
    2.8579   -4.1250    0.0000 C   0  0  0  0  0  0  0  0  0  0  0  0
    2.1434   -3.7125    0.0000 C   0  0  0  0  0  0  0  0  0  0  0  0
    2.1434   -2.8875    0.0000 C   0  0  0  0  0  0  0  0  0  0  0  0
    1.4289   -2.4750    0.0000 C   0  0  0  0  0  0  0  0  0  0  0  0
    1.4289   -1.6500    0.0000 C   0  0  0  0  0  0  0  0  0  0  0  0
    0.7145   -1.2375    0.0000 N   0  0  0  0  0  0  0  0  0  0  0  0
    0.7145   -0.4125    0.0000 N   0  0  0  0  0  0  0  0  0  0  0  0
    0.0000    0.0000    0.0000 C   0  0  0  0  0  0  0  0  0  0  0  0
   -0.6816   -0.4647    0.0000 C   0  0  0  0  0  0  0  0  0  0  0  0
   -1.4700   -0.2216    0.0000 C   0  0  0  0  0  0  0  0  0  0  0  0
   -1.7714    0.5464    0.0000 C   0  0  0  0  0  0  0  0  0  0  0  0
   -1.3589    1.2609    0.0000 N   0  0  0  0  0  0  0  0  0  0  0  0
   -0.5431    1.3838    0.0000 C   0  0  0  0  0  0  0  0  0  0  0  0
    0.0617    0.8227    0.0000 C   0  0  0  0  0  0  0  0  0  0  0  0
    1.4289    0.0000    0.0000 C   0  0  0  0  0  0  0  0  0  0  0  0
    1.4289    0.8250    0.0000 O   0  0  0  0  0  0  0  0  0  0  0  0
    2.1434   -0.4125    0.0000 C   0  0  0  0  0  0  0  0  0  0  0  0
    2.8579    0.0000    0.0000 C   0  0  0  0  0  0  0  0  0  0  0  0
    3.5724   -0.4125    0.0000 C   0  0  0  0  0  0  0  0  0  0  0  0
    3.5724   -1.2375    0.0000 C   0  0  0  0  0  0  0  0  0  0  0  0
    2.8579   -1.6500    0.0000 C   0  0  0  0  0  0  0  0  0  0  0  0
    2.1434   -1.2375    0.0000 C   0  0  0  0  0  0  0  0  0  0  0  0
    2.8579   -2.4750    0.0000 C   0  0  0  0  0  0  0  0  0  0  0  0
    3.5724   -2.8875    0.0000 C   0  0  0  0  0  0  0  0  0  0  0  0
  1  2  1  0
  2  3  2  0
  3  4  1  0
  4  5  2  0
  5  6  1  0
  6  7  1  0
  7  8  2  0
  8  9  1  0
  9 10  1  0
 10 11  1  0
 11 12  1  0
 12 13  1  0
 13 14  1  0
 14 15  1  0
 15 16  1  0
 10 16  1  0
  9 17  1  0
 17 18  2  0
 17 19  1  0
 19 20  2  0
 20 21  1  0
 21 22  2  0
 22 23  1  0
 23 24  2  0
  7 24  1  0
 19 24  1  0
  5 25  1  0
 25 26  2  0
  2 26  1  0
M  END
>  <Classification>  (516) 
0

>  <pchembl>  (516) 
4.38

>  <InChI_steorem>  (516) 
InChI=1S/C21H22ClN3O/c22-16-9-7-15(8-10-16)14-20-18-5-1-2-6-19(18)21(26)25(24-20)17-4-3-12-23-13-11-17/h1-2,5-10,17,23H,3-4,11-14H2

>  <source>  (516) 
ChEMBL25

>  <source_id>  (516) 
25

>  <optional_reference>  (516) 
10.1016/s0928-0987(00)00215-3

>  <optional_origin>  (516) 
None

>  <target>  (516) 
MDR1

$$$$

     RDKit          2D

 27 29  0  0  0  0  0  0  0  0999 V2000
    1.4289   -2.4750    0.0000 O   0  0  0  0  0  0  0  0  0  0  0  0
    1.4289   -1.6500    0.0000 C   0  0  0  0  0  0  0  0  0  0  0  0
    0.7145   -1.2375    0.0000 C   0  0  0  0  0  0  0  0  0  0  0  0
    0.7145   -0.4125    0.0000 C   0  0  0  0  0  0  0  0  0  0  0  0
    1.4289    0.0000    0.0000 O   0  0  0  0  0  0  0  0  0  0  0  0
    2.1434   -0.4125    0.0000 C   0  0  0  0  0  0  0  0  0  0  0  0
    2.8579    0.0000    0.0000 C   0  0  0  0  0  0  0  0  0  0  0  0
    3.5724   -0.4125    0.0000 C   0  0  0  0  0  0  0  0  0  0  0  0
    3.5724   -1.2375    0.0000 C   0  0  0  0  0  0  0  0  0  0  0  0
    2.8579   -1.6500    0.0000 C   0  0  0  0  0  0  0  0  0  0  0  0
    2.1434   -1.2375    0.0000 C   0  0  0  0  0  0  0  0  0  0  0  0
    0.0000    0.0000    0.0000 C   0  0  0  0  0  0  0  0  0  0  0  0
   -0.7145   -0.4125    0.0000 C   0  0  0  0  0  0  0  0  0  0  0  0
   -1.4289    0.0000    0.0000 C   0  0  0  0  0  0  0  0  0  0  0  0
   -1.4289    0.8250    0.0000 C   0  0  0  0  0  0  0  0  0  0  0  0
   -0.7145    1.2375    0.0000 C   0  0  0  0  0  0  0  0  0  0  0  0
    0.0000    0.8250    0.0000 C   0  0  0  0  0  0  0  0  0  0  0  0
    2.8579   -2.4750    0.0000 O   0  0  0  0  0  0  0  0  0  0  0  0
    3.5724   -2.8875    0.0000 C   0  0  0  0  0  0  0  0  0  0  0  0
    4.2868    0.0000    0.0000 O   0  0  0  0  0  0  0  0  0  0  0  0
    5.0013   -0.4125    0.0000 C   0  0  0  0  0  0  0  0  0  0  0  0
   -2.1434   -0.4125    0.0000 O   0  0  0  0  0  0  0  0  0  0  0  0
   -2.8579    0.0000    0.0000 C   0  0  0  0  0  0  0  0  0  0  0  0
   -2.1434    1.2375    0.0000 O   0  0  0  0  0  0  0  0  0  0  0  0
   -2.8579    0.8250    0.0000 C   0  0  0  0  0  0  0  0  0  0  0  0
   -0.7145    2.0625    0.0000 O   0  0  0  0  0  0  0  0  0  0  0  0
    0.0000    2.4750    0.0000 C   0  0  0  0  0  0  0  0  0  0  0  0
  1  2  2  0
  2  3  1  0
  3  4  2  0
  4  5  1  0
  5  6  1  0
  6  7  2  0
  7  8  1  0
  8  9  2  0
  9 10  1  0
 10 11  2  0
  2 11  1  0
  6 11  1  0
  4 12  1  0
 12 13  2  0
 13 14  1  0
 14 15  2  0
 15 16  1  0
 16 17  2  0
 12 17  1  0
 18 19  1  0
 10 18  1  0
 20 21  1  0
  8 20  1  0
 22 23  1  0
 14 22  1  0
 24 25  1  0
 15 24  1  0
 26 27  1  0
 16 26  1  0
M  END
>  <Classification>  (517) 
1

>  <pchembl>  (517) 
6.4

>  <InChI_steorem>  (517) 
InChI=1S/C20H20O7/c1-22-12-8-15(23-2)19-13(21)10-14(27-16(19)9-12)11-6-17(24-3)20(26-5)18(7-11)25-4/h6-10H,1-5H3

>  <source>  (517) 
ChEMBL25

>  <source_id>  (517) 
25

>  <optional_reference>  (517) 
10.1016/j.bbrc.2004.06.020

>  <optional_origin>  (517) 
None

>  <target>  (517) 
MDR1

$$$$

     RDKit          2D

 32 33  0  0  0  0  0  0  0  0999 V2000
    2.9538   -0.0408    0.0000 O   0  0  0  0  0  0  0  0  0  0  0  0
    2.9538    1.6092    0.0000 O   0  0  0  0  0  0  0  0  0  0  0  0
    6.6366    1.3881    0.0000 N   0  0  0  0  0  0  0  0  0  0  0  0
    8.6695   -0.0408    0.0000 N   0  0  0  0  0  0  0  0  0  0  0  0
    5.8116   -0.0408    0.0000 C   0  0  0  0  0  0  0  0  0  0  0  0
    5.0972    0.3717    0.0000 C   0  0  0  0  0  0  0  0  0  0  0  0
    5.3991   -0.7553    0.0000 C   0  0  0  0  0  0  0  0  0  0  0  0
    4.3827   -0.0408    0.0000 C   0  0  0  0  0  0  0  0  0  0  0  0
    6.5261   -0.4533    0.0000 C   0  0  0  0  0  0  0  0  0  0  0  0
    3.6682    0.3717    0.0000 C   0  0  0  0  0  0  0  0  0  0  0  0
    5.0972    1.1967    0.0000 C   0  0  0  0  0  0  0  0  0  0  0  0
    6.2241    0.6736    0.0000 C   0  0  0  0  0  0  0  0  0  0  0  0
    3.6682    1.1967    0.0000 C   0  0  0  0  0  0  0  0  0  0  0  0
    4.3827    1.6092    0.0000 C   0  0  0  0  0  0  0  0  0  0  0  0
    7.2406   -0.0408    0.0000 C   0  0  0  0  0  0  0  0  0  0  0  0
    5.8116   -1.4698    0.0000 C   0  0  0  0  0  0  0  0  0  0  0  0
    4.5741   -0.7553    0.0000 C   0  0  0  0  0  0  0  0  0  0  0  0
    7.9551   -0.4533    0.0000 C   0  0  0  0  0  0  0  0  0  0  0  0
    2.9538    2.4342    0.0000 C   0  0  0  0  0  0  0  0  0  0  0  0
    9.3840   -0.4533    0.0000 C   0  0  0  0  0  0  0  0  0  0  0  0
   10.0984   -0.0407    0.0000 C   0  0  0  0  0  0  0  0  0  0  0  0
    8.6695    0.7842    0.0000 C   0  0  0  0  0  0  0  0  0  0  0  0
   10.8129   -0.4532    0.0000 C   0  0  0  0  0  0  0  0  0  0  0  0
   10.8130   -1.2782    0.0000 C   0  0  0  0  0  0  0  0  0  0  0  0
   11.5274   -1.6907    0.0000 C   0  0  0  0  0  0  0  0  0  0  0  0
   12.2419   -1.2781    0.0000 C   0  0  0  0  0  0  0  0  0  0  0  0
   12.2419   -0.4531    0.0000 C   0  0  0  0  0  0  0  0  0  0  0  0
   11.5274   -0.0407    0.0000 C   0  0  0  0  0  0  0  0  0  0  0  0
   12.9563   -0.0406    0.0000 O   0  0  0  0  0  0  0  0  0  0  0  0
   12.9563    0.7844    0.0000 C   0  0  0  0  0  0  0  0  0  0  0  0
   12.9564   -1.6906    0.0000 O   0  0  0  0  0  0  0  0  0  0  0  0
   13.6708   -1.2781    0.0000 C   0  0  0  0  0  0  0  0  0  0  0  0
  1 10  1  0
  2 13  1  0
  2 19  1  0
  3 12  3  0
  4 18  1  0
  5  6  1  0
  5  7  1  0
  5  9  1  0
  5 12  1  0
  6  8  2  0
  6 11  1  0
  7 16  1  0
  7 17  1  0
  8 10  1  0
  9 15  1  0
 10 13  2  0
 11 14  2  0
 13 14  1  0
 15 18  1  0
  4 20  1  0
 20 21  1  0
  4 22  1  0
 21 23  1  0
 23 24  2  0
 23 28  1  0
 24 25  1  0
 25 26  2  0
 26 27  1  0
 27 28  2  0
 27 29  1  0
 29 30  1  0
 26 31  1  0
 31 32  1  0
M  END
>  <Classification>  (518) 
1

>  <pchembl>  (518) 
5.8

>  <InChI_steorem>  (518) 
InChI=1S/C26H36N2O4/c1-19(2)26(18-27,21-9-11-23(30-4)22(29)17-21)13-7-14-28(3)15-12-20-8-10-24(31-5)25(16-20)32-6/h8-11,16-17,19,29H,7,12-15H2,1-6H3

>  <source>  (518) 
ChEMBL25

>  <source_id>  (518) 
25

>  <optional_reference>  (518) 
None

>  <optional_origin>  (518) 
None

>  <target>  (518) 
MDR1

$$$$

     RDKit          2D

 32 34  0  0  0  0  0  0  0  0999 V2000
    9.9957  -14.2312    0.0000 C   0  0  0  0  0  0  0  0  0  0  0  0
    9.2813  -13.8187    0.0000 C   0  0  0  0  0  0  0  0  0  0  0  0
    8.5668  -14.2313    0.0000 C   0  0  0  0  0  0  0  0  0  0  0  0
    8.5668  -15.0563    0.0000 C   0  0  0  0  0  0  0  0  0  0  0  0
    9.2812  -15.4687    0.0000 C   0  0  0  0  0  0  0  0  0  0  0  0
    9.9957  -15.0562    0.0000 C   0  0  0  0  0  0  0  0  0  0  0  0
   10.7803  -15.3112    0.0000 C   0  0  0  0  0  0  0  0  0  0  0  0
   11.2652  -14.6438    0.0000 C   0  0  0  0  0  0  0  0  0  0  0  0
   10.7804  -13.9763    0.0000 C   0  0  0  0  0  0  0  0  0  0  0  0
   10.3679  -13.2619    0.0000 C   0  0  0  0  0  0  0  0  0  0  0  0
    9.9554  -12.5474    0.0000 N   0  0  0  0  0  0  0  0  0  0  0  0
   11.4948  -13.5638    0.0000 C   0  0  0  0  0  0  0  0  0  0  0  0
   12.2093  -13.9763    0.0000 C   0  0  0  0  0  0  0  0  0  0  0  0
   12.9238  -13.5638    0.0000 C   0  0  0  0  0  0  0  0  0  0  0  0
   13.6383  -13.9763    0.0000 N   0  0  0  0  0  0  0  0  0  0  0  0
   14.3527  -13.5638    0.0000 C   0  0  0  0  0  0  0  0  0  0  0  0
   13.6383  -14.8013    0.0000 C   0  0  0  0  0  0  0  0  0  0  0  0
   15.0672  -13.9763    0.0000 C   0  0  0  0  0  0  0  0  0  0  0  0
   15.7817  -13.5638    0.0000 C   0  0  0  0  0  0  0  0  0  0  0  0
   16.4962  -13.9764    0.0000 C   0  0  0  0  0  0  0  0  0  0  0  0
   17.2106  -13.5639    0.0000 C   0  0  0  0  0  0  0  0  0  0  0  0
   17.2106  -12.7388    0.0000 C   0  0  0  0  0  0  0  0  0  0  0  0
   16.4961  -12.3263    0.0000 C   0  0  0  0  0  0  0  0  0  0  0  0
   15.7817  -12.7388    0.0000 C   0  0  0  0  0  0  0  0  0  0  0  0
   16.4961  -11.5013    0.0000 O   0  0  0  0  0  0  0  0  0  0  0  0
   15.7817  -11.0888    0.0000 C   0  0  0  0  0  0  0  0  0  0  0  0
   17.9251  -12.3263    0.0000 O   0  0  0  0  0  0  0  0  0  0  0  0
   17.9251  -11.5013    0.0000 C   0  0  0  0  0  0  0  0  0  0  0  0
    9.2812  -16.2937    0.0000 O   0  0  0  0  0  0  0  0  0  0  0  0
    9.9957  -16.7062    0.0000 C   0  0  0  0  0  0  0  0  0  0  0  0
    7.8523  -15.4688    0.0000 O   0  0  0  0  0  0  0  0  0  0  0  0
    7.8523  -16.2938    0.0000 C   0  0  0  0  0  0  0  0  0  0  0  0
  1  2  2  0
  2  3  1  0
  3  4  2  0
  4  5  1  0
  5  6  2  0
  6  7  1  0
  1  6  1  0
  1  9  1  0
  7  8  1  0
  8  9  1  0
  9 10  1  0
 10 11  3  0
  9 12  1  0
 12 13  1  0
 13 14  1  0
 14 15  1  0
 15 16  1  0
 15 17  1  0
 16 18  1  0
 18 19  1  0
 19 20  2  0
 19 24  1  0
 20 21  1  0
 21 22  2  0
 22 23  1  0
 23 24  2  0
 23 25  1  0
 25 26  1  0
 22 27  1  0
 27 28  1  0
  5 29  1  0
 29 30  1  0
  4 31  1  0
 31 32  1  0
M  END
>  <Classification>  (519) 
1

>  <pchembl>  (519) 
5.18

>  <InChI_steorem>  (519) 
InChI=1S/C26H34N2O4/c1-28(16-12-19-7-9-22(29-2)24(17-19)31-4)15-6-13-26(18-27)14-11-20-21(26)8-10-23(30-3)25(20)32-5/h7-10,17H,6,11-16H2,1-5H3

>  <source>  (519) 
ChEMBL25

>  <source_id>  (519) 
25

>  <optional_reference>  (519) 
10.1097/00001813-200302000-00012

>  <optional_origin>  (519) 
None

>  <target>  (519) 
MDR1

$$$$

     RDKit          2D

 34 35  0  0  0  0  0  0  0  0999 V2000
    5.8045   -5.4804    0.0000 C   0  0  0  0  0  0  0  0  0  0  0  0
    5.3920   -4.7659    0.0000 C   0  0  0  0  0  0  0  0  0  0  0  0
    4.5670   -4.7659    0.0000 C   0  0  0  0  0  0  0  0  0  0  0  0
    4.1544   -5.4804    0.0000 C   0  0  0  0  0  0  0  0  0  0  0  0
    4.5670   -6.1948    0.0000 C   0  0  0  0  0  0  0  0  0  0  0  0
    5.3920   -6.1948    0.0000 C   0  0  0  0  0  0  0  0  0  0  0  0
    5.8045   -4.0514    0.0000 O   0  0  0  0  0  0  0  0  0  0  0  0
    4.1545   -4.0514    0.0000 O   0  0  0  0  0  0  0  0  0  0  0  0
    3.3295   -4.0514    0.0000 C   0  0  0  0  0  0  0  0  0  0  0  0
    5.3920   -3.3369    0.0000 C   0  0  0  0  0  0  0  0  0  0  0  0
    5.8045   -6.9093    0.0000 C   0  0  0  0  0  0  0  0  0  0  0  0
    6.6295   -6.9093    0.0000 C   0  0  0  0  0  0  0  0  0  0  0  0
    7.0420   -7.6238    0.0000 N   0  0  0  0  0  0  0  0  0  0  0  0
    6.6295   -8.3382    0.0000 C   0  0  0  0  0  0  0  0  0  0  0  0
    5.8045   -8.3382    0.0000 C   0  0  0  0  0  0  0  0  0  0  0  0
    5.3920   -9.0527    0.0000 C   0  0  0  0  0  0  0  0  0  0  0  0
    4.5670   -9.0527    0.0000 C   0  0  0  0  0  0  0  0  0  0  0  0
    3.7420   -9.0527    0.0000 C   0  0  0  0  0  0  0  0  0  0  0  0
    4.5670   -8.2277    0.0000 C   0  0  0  0  0  0  0  0  0  0  0  0
    4.5670   -7.4027    0.0000 N   0  0  0  0  0  0  0  0  0  0  0  0
    4.5670   -9.8777    0.0000 C   0  0  0  0  0  0  0  0  0  0  0  0
    3.3295   -9.7672    0.0000 C   0  0  0  0  0  0  0  0  0  0  0  0
    3.3295   -8.3382    0.0000 C   0  0  0  0  0  0  0  0  0  0  0  0
    3.8525  -10.2902    0.0000 C   0  0  0  0  0  0  0  0  0  0  0  0
    3.8525  -11.1152    0.0000 C   0  0  0  0  0  0  0  0  0  0  0  0
    4.5670  -11.5277    0.0000 C   0  0  0  0  0  0  0  0  0  0  0  0
    5.2815  -11.1152    0.0000 C   0  0  0  0  0  0  0  0  0  0  0  0
    5.2815  -10.2902    0.0000 C   0  0  0  0  0  0  0  0  0  0  0  0
    3.1380  -11.5277    0.0000 O   0  0  0  0  0  0  0  0  0  0  0  0
    4.5670  -12.3527    0.0000 O   0  0  0  0  0  0  0  0  0  0  0  0
    5.9959  -11.5277    0.0000 O   0  0  0  0  0  0  0  0  0  0  0  0
    6.7104  -11.1152    0.0000 C   0  0  0  0  0  0  0  0  0  0  0  0
    5.2814  -12.7652    0.0000 C   0  0  0  0  0  0  0  0  0  0  0  0
    3.1380  -12.3527    0.0000 C   0  0  0  0  0  0  0  0  0  0  0  0
  1  2  2  0
  2  3  1  0
  3  4  2  0
  4  5  1  0
  5  6  2  0
  6  1  1  0
  2  7  1  0
  3  8  1  0
  8  9  1  0
  7 10  1  0
  6 11  1  0
 11 12  1  0
 12 13  1  0
 13 14  1  0
 14 15  1  0
 15 16  1  0
 16 17  1  0
 17 18  1  0
 17 19  1  0
 19 20  3  0
 17 21  1  0
 18 22  1  0
 18 23  1  0
 21 24  2  0
 21 28  1  0
 24 25  1  0
 25 26  2  0
 26 27  1  0
 27 28  2  0
 25 29  1  0
 26 30  1  0
 27 31  1  0
 31 32  1  0
 30 33  1  0
 29 34  1  0
M  END
>  <Classification>  (520) 
1

>  <pchembl>  (520) 
5.07

>  <InChI_steorem>  (520) 
InChI=1S/C27H38N2O5/c1-19(2)27(18-28,21-16-24(32-5)26(34-7)25(17-21)33-6)12-8-13-29-14-11-20-9-10-22(30-3)23(15-20)31-4/h9-10,15-17,19,29H,8,11-14H2,1-7H3

>  <source>  (520) 
ChEMBL25

>  <source_id>  (520) 
25

>  <optional_reference>  (520) 
10.1006/bbrc.2001.6000

>  <optional_origin>  (520) 
None

>  <target>  (520) 
MDR1

$$$$

     RDKit          2D

 40 45  0  0  0  0  0  0  0  0999 V2000
   -3.0643   -4.4196    0.0000 C   0  0  0  0  0  0  0  0  0  0  0  0
   -3.4768   -3.7052    0.0000 C   0  0  0  0  0  0  0  0  0  0  0  0
   -4.3018   -3.7052    0.0000 C   0  0  0  0  0  0  0  0  0  0  0  0
   -4.7143   -4.4196    0.0000 C   0  0  0  0  0  0  0  0  0  0  0  0
   -4.3018   -5.1341    0.0000 C   0  0  0  0  0  0  0  0  0  0  0  0
   -3.4768   -5.1341    0.0000 C   0  0  0  0  0  0  0  0  0  0  0  0
   -2.9248   -5.7472    0.0000 N   0  0  0  0  0  0  0  0  0  0  0  0
   -2.1711   -5.4117    0.0000 C   0  0  0  0  0  0  0  0  0  0  0  0
   -2.2573   -4.5912    0.0000 C   0  0  0  0  0  0  0  0  0  0  0  0
   -1.5898   -4.1063    0.0000 C   0  0  0  0  0  0  0  0  0  0  0  0
   -0.8362   -4.4418    0.0000 C   0  0  0  0  0  0  0  0  0  0  0  0
   -0.7500   -5.2623    0.0000 N   0  0  0  0  0  0  0  0  0  0  0  0
   -1.4174   -5.7472    0.0000 C   0  0  0  0  0  0  0  0  0  0  0  0
    0.0037   -5.5979    0.0000 C   0  0  0  0  0  0  0  0  0  0  0  0
    0.0900   -6.4184    0.0000 C   0  0  0  0  0  0  0  0  0  0  0  0
   -0.5775   -6.9033    0.0000 C   0  0  0  0  0  0  0  0  0  0  0  0
   -1.3312   -6.5677    0.0000 C   0  0  0  0  0  0  0  0  0  0  0  0
    0.8436   -6.7539    0.0000 C   0  0  0  0  0  0  0  0  0  0  0  0
    0.9299   -7.5744    0.0000 C   0  0  0  0  0  0  0  0  0  0  0  0
    0.2624   -8.0593    0.0000 C   0  0  0  0  0  0  0  0  0  0  0  0
   -0.4913   -7.7237    0.0000 C   0  0  0  0  0  0  0  0  0  0  0  0
   -1.1587   -8.2087    0.0000 C   0  0  0  0  0  0  0  0  0  0  0  0
   -1.9556   -7.9951    0.0000 O   0  0  0  0  0  0  0  0  0  0  0  0
   -2.5389   -8.5785    0.0000 C   0  0  0  0  0  0  0  0  0  0  0  0
   -1.0084   -9.0198    0.0000 O   0  0  0  0  0  0  0  0  0  0  0  0
    0.3487   -8.8798    0.0000 O   0  0  0  0  0  0  0  0  0  0  0  0
    1.1455   -9.0933    0.0000 C   0  0  0  0  0  0  0  0  0  0  0  0
    1.3591   -9.8902    0.0000 C   0  0  0  0  0  0  0  0  0  0  0  0
    1.7289   -8.5100    0.0000 O   0  0  0  0  0  0  0  0  0  0  0  0
    0.7757  -10.4736    0.0000 C   0  0  0  0  0  0  0  0  0  0  0  0
    0.9892  -11.2705    0.0000 C   0  0  0  0  0  0  0  0  0  0  0  0
    1.7861  -11.4840    0.0000 C   0  0  0  0  0  0  0  0  0  0  0  0
    2.3695  -10.9006    0.0000 C   0  0  0  0  0  0  0  0  0  0  0  0
    2.1560  -10.1037    0.0000 C   0  0  0  0  0  0  0  0  0  0  0  0
    3.1664  -11.1142    0.0000 O   0  0  0  0  0  0  0  0  0  0  0  0
    1.9996  -12.2809    0.0000 O   0  0  0  0  0  0  0  0  0  0  0  0
    0.4058  -11.8538    0.0000 O   0  0  0  0  0  0  0  0  0  0  0  0
    0.6194  -12.6507    0.0000 C   0  0  0  0  0  0  0  0  0  0  0  0
    2.7965  -12.4944    0.0000 C   0  0  0  0  0  0  0  0  0  0  0  0
    3.7498  -10.5308    0.0000 C   0  0  0  0  0  0  0  0  0  0  0  0
  1  2  2  0
  2  3  1  0
  3  4  2  0
  4  5  1  0
  5  6  2  0
  6  7  1  0
  1  6  1  0
  1  9  1  0
  7  8  1  0
 13  8  1  0
  8  9  2  0
  9 10  1  0
 10 11  1  0
 11 12  1  0
 12 14  1  0
 13 12  1  0
 17 13  1  0
 14 15  1  0
 16 17  1  0
 21 16  1  0
 16 15  1  0
 15 18  1  0
 18 19  1  0
 19 20  1  0
 20 21  1  0
 21 22  1  0
 22 23  1  0
 23 24  1  0
 22 25  2  0
 20 26  1  0
 26 27  1  0
 27 28  1  0
 27 29  2  0
 28 30  2  0
 28 34  1  0
 30 31  1  0
 31 32  2  0
 32 33  1  0
 33 34  2  0
 33 35  1  0
 32 36  1  0
 31 37  1  0
 37 38  1  0
 36 39  1  0
 35 40  1  0
M  END
>  <Classification>  (521) 
1

>  <pchembl>  (521) 
5.68

>  <InChI_steorem>  (521) 
InChI=1S/C31H36N2O7/c1-36-25-13-18(14-26(37-2)29(25)38-3)30(34)40-24-10-9-17-16-33-12-11-20-19-7-5-6-8-22(19)32-28(20)23(33)15-21(17)27(24)31(35)39-4/h5-8,13-14,17,21,23-24,27,32H,9-12,15-16H2,1-4H3

>  <source>  (521) 
ChEMBL25

>  <source_id>  (521) 
25

>  <optional_reference>  (521) 
10.1016/s0006-2952(98)00212-3

>  <optional_origin>  (521) 
None

>  <target>  (521) 
MDR1

$$$$

     RDKit          2D

 42 47  0  0  0  0  0  0  0  0999 V2000
   -3.8893    3.8304    0.0000 C   0  0  0  0  0  0  0  0  0  0  0  0
   -4.6038    3.4179    0.0000 C   0  0  0  0  0  0  0  0  0  0  0  0
   -4.6038    2.5929    0.0000 C   0  0  0  0  0  0  0  0  0  0  0  0
   -3.8893    2.1804    0.0000 C   0  0  0  0  0  0  0  0  0  0  0  0
   -3.1748    2.5929    0.0000 C   0  0  0  0  0  0  0  0  0  0  0  0
   -3.1748    3.4179    0.0000 C   0  0  0  0  0  0  0  0  0  0  0  0
   -2.4603    3.8304    0.0000 N   0  0  0  0  0  0  0  0  0  0  0  0
   -1.7458    3.4179    0.0000 C   0  0  0  0  0  0  0  0  0  0  0  0
   -1.0314    3.8304    0.0000 O   0  0  0  0  0  0  0  0  0  0  0  0
   -1.7458    2.5929    0.0000 C   0  0  0  0  0  0  0  0  0  0  0  0
   -2.4603    2.1804    0.0000 C   0  0  0  0  0  0  0  0  0  0  0  0
   -2.4603    1.3553    0.0000 C   0  0  0  0  0  0  0  0  0  0  0  0
   -1.7458    0.9428    0.0000 C   0  0  0  0  0  0  0  0  0  0  0  0
   -1.0314    1.3553    0.0000 C   0  0  0  0  0  0  0  0  0  0  0  0
   -1.0314    2.1804    0.0000 C   0  0  0  0  0  0  0  0  0  0  0  0
   -0.3169    2.5929    0.0000 N   0  0  0  0  0  0  0  0  0  0  0  0
    0.3976    2.1804    0.0000 C   0  0  0  0  0  0  0  0  0  0  0  0
    0.3976    1.3554    0.0000 C   0  0  0  0  0  0  0  0  0  0  0  0
   -0.3169    0.9429    0.0000 C   0  0  0  0  0  0  0  0  0  0  0  0
    1.1121    2.5929    0.0000 C   0  0  0  0  0  0  0  0  0  0  0  0
    1.8266    2.1804    0.0000 C   0  0  0  0  0  0  0  0  0  0  0  0
    1.8266    1.3554    0.0000 C   0  0  0  0  0  0  0  0  0  0  0  0
    1.1121    0.9429    0.0000 C   0  0  0  0  0  0  0  0  0  0  0  0
   -0.3169    0.1179    0.0000 O   0  0  0  0  0  0  0  0  0  0  0  0
    1.1121    3.4179    0.0000 O   0  0  0  0  0  0  0  0  0  0  0  0
    1.8265    3.8304    0.0000 C   0  0  0  0  0  0  0  0  0  0  0  0
   -5.3183    2.1804    0.0000 C   0  0  0  0  0  0  0  0  0  0  0  0
   -5.3183    1.3554    0.0000 C   0  0  0  0  0  0  0  0  0  0  0  0
   -6.0327    0.9429    0.0000 N   0  0  0  0  0  0  0  0  0  0  0  0
   -6.7472    1.3553    0.0000 C   0  0  0  0  0  0  0  0  0  0  0  0
   -7.4617    0.9428    0.0000 C   0  0  0  0  0  0  0  0  0  0  0  0
   -7.4617    0.1178    0.0000 C   0  0  0  0  0  0  0  0  0  0  0  0
   -6.7472   -0.2947    0.0000 C   0  0  0  0  0  0  0  0  0  0  0  0
   -6.0327    0.1179    0.0000 C   0  0  0  0  0  0  0  0  0  0  0  0
   -8.1762    1.3554    0.0000 C   0  0  0  0  0  0  0  0  0  0  0  0
   -8.8906    0.9429    0.0000 C   0  0  0  0  0  0  0  0  0  0  0  0
   -8.8907    0.1179    0.0000 C   0  0  0  0  0  0  0  0  0  0  0  0
   -8.1762   -0.2946    0.0000 C   0  0  0  0  0  0  0  0  0  0  0  0
   -9.6051    1.3554    0.0000 O   0  0  0  0  0  0  0  0  0  0  0  0
   -9.6051    2.1804    0.0000 C   0  0  0  0  0  0  0  0  0  0  0  0
   -9.6051   -0.2946    0.0000 O   0  0  0  0  0  0  0  0  0  0  0  0
   -9.6051   -1.1196    0.0000 C   0  0  0  0  0  0  0  0  0  0  0  0
  1  2  2  0
  1  6  1  0
  2  3  1  0
  3  4  2  0
  4  5  1  0
  5  6  2  0
  6  7  1  0
  7  8  1  0
  8  9  2  0
  8 10  1  0
 10 11  2  0
 15 10  1  0
 11 12  1  0
 12 13  2  0
 13 14  1  0
 19 14  1  0
 14 15  2  0
 15 16  1  0
 16 17  1  0
 18 19  1  0
 17 20  2  0
 18 17  1  0
 23 18  2  0
 20 21  1  0
 21 22  2  0
 22 23  1  0
 19 24  2  0
 20 25  1  0
 25 26  1  0
  3 27  1  0
 27 28  1  0
 28 29  1  0
 29 30  1  0
 34 29  1  0
 30 31  1  0
 32 33  1  0
 33 34  1  0
 38 32  1  0
 32 31  2  0
 31 35  1  0
 35 36  2  0
 36 37  1  0
 37 38  2  0
 36 39  1  0
 39 40  1  0
 37 41  1  0
 41 42  1  0
M  END
>  <Classification>  (522) 
1

>  <pchembl>  (522) 
6.36

>  <InChI_steorem>  (522) 
InChI=1S/C34H33N3O5/c1-40-28-9-5-7-26-32(28)36-31-25(33(26)38)6-4-8-27(31)34(39)35-24-12-10-21(11-13-24)14-16-37-17-15-22-18-29(41-2)30(42-3)19-23(22)20-37/h4-13,18-19H,14-17,20H2,1-3H3,(H,35,39)(H,36,38)

>  <source>  (522) 
ChEMBL25

>  <source_id>  (522) 
25

>  <optional_reference>  (522) 
10.1023/a:1016140429238

>  <optional_origin>  (522) 
None

>  <target>  (522) 
MDR1

$$$$

     RDKit          2D

 45 49  0  0  0  0  0  0  0  0999 V2000
    2.1434   -0.4125    0.0000 C   0  0  0  0  0  0  0  0  0  0  0  0
    1.4289   -0.8250    0.0000 C   0  0  0  0  0  0  0  0  0  0  0  0
    1.4289   -1.6500    0.0000 C   0  0  0  0  0  0  0  0  0  0  0  0
    0.7145   -2.0625    0.0000 C   0  0  0  0  0  0  0  0  0  0  0  0
    0.7145   -2.8875    0.0000 C   0  0  0  0  0  0  0  0  0  0  0  0
    0.0000   -3.3000    0.0000 C   0  0  0  0  0  0  0  0  0  0  0  0
    0.0000   -4.1250    0.0000 C   0  0  0  0  0  0  0  0  0  0  0  0
    0.7145   -4.5375    0.0000 C   0  0  0  0  0  0  0  0  0  0  0  0
    1.4289   -4.1250    0.0000 C   0  0  0  0  0  0  0  0  0  0  0  0
    1.4289   -3.3000    0.0000 C   0  0  0  0  0  0  0  0  0  0  0  0
    2.1434   -4.5375    0.0000 N   0  0  0  0  0  0  0  0  0  0  0  0
    2.8579   -4.1250    0.0000 O   0  0  0  0  0  0  0  0  0  0  0  0
    2.1434   -5.3625    0.0000 O   0  0  0  0  0  0  0  0  0  0  0  0
    0.0000   -1.6500    0.0000 C   0  0  0  0  0  0  0  0  0  0  0  0
    0.0000   -0.8250    0.0000 C   0  0  0  0  0  0  0  0  0  0  0  0
   -0.7145   -0.4125    0.0000 C   0  0  0  0  0  0  0  0  0  0  0  0
    0.7145   -0.4125    0.0000 N   0  0  0  0  0  0  0  0  0  0  0  0
   -0.7145   -2.0625    0.0000 P   0  0  0  0  0  0  0  0  0  0  0  0
   -0.9966   -1.2873    0.0000 O   0  0  0  0  0  0  0  0  0  0  0  0
   -0.1842   -2.6945    0.0000 O   0  0  0  0  0  0  0  0  0  0  0  0
   -0.4663   -3.4697    0.0000 C   0  0  0  0  0  0  0  0  0  0  0  0
   -1.2788   -3.6130    0.0000 C   0  0  0  0  0  0  0  0  0  0  0  0
   -0.9966   -4.3882    0.0000 C   0  0  0  0  0  0  0  0  0  0  0  0
   -1.9933   -4.0255    0.0000 C   0  0  0  0  0  0  0  0  0  0  0  0
   -1.8091   -2.9810    0.0000 C   0  0  0  0  0  0  0  0  0  0  0  0
   -1.5269   -2.2058    0.0000 O   0  0  0  0  0  0  0  0  0  0  0  0
    2.1434   -2.0625    0.0000 C   0  0  0  0  0  0  0  0  0  0  0  0
    2.1434   -2.8875    0.0000 O   0  0  0  0  0  0  0  0  0  0  0  0
    2.8579   -1.6500    0.0000 O   0  0  0  0  0  0  0  0  0  0  0  0
    3.5724   -2.0625    0.0000 C   0  0  0  0  0  0  0  0  0  0  0  0
    4.2868   -1.6500    0.0000 C   0  0  0  0  0  0  0  0  0  0  0  0
    5.0013   -2.0625    0.0000 N   0  0  0  0  0  0  0  0  0  0  0  0
    5.7158   -1.6500    0.0000 C   0  0  0  0  0  0  0  0  0  0  0  0
    6.4302   -2.0625    0.0000 C   0  0  0  0  0  0  0  0  0  0  0  0
    7.1447   -1.6500    0.0000 C   0  0  0  0  0  0  0  0  0  0  0  0
    7.8592   -2.0625    0.0000 C   0  0  0  0  0  0  0  0  0  0  0  0
    7.8592   -2.8875    0.0000 C   0  0  0  0  0  0  0  0  0  0  0  0
    7.1447   -3.3000    0.0000 C   0  0  0  0  0  0  0  0  0  0  0  0
    6.4302   -2.8875    0.0000 C   0  0  0  0  0  0  0  0  0  0  0  0
    5.0013   -2.8875    0.0000 C   0  0  0  0  0  0  0  0  0  0  0  0
    5.7158   -3.3000    0.0000 C   0  0  0  0  0  0  0  0  0  0  0  0
    5.7158   -4.1250    0.0000 C   0  0  0  0  0  0  0  0  0  0  0  0
    5.0013   -4.5375    0.0000 C   0  0  0  0  0  0  0  0  0  0  0  0
    4.2868   -4.1250    0.0000 C   0  0  0  0  0  0  0  0  0  0  0  0
    4.2868   -3.3000    0.0000 C   0  0  0  0  0  0  0  0  0  0  0  0
  1  2  1  0
  2  3  2  0
  3  4  1  0
  4  5  1  0
  5  6  2  0
  6  7  1  0
  7  8  2  0
  8  9  1  0
  9 10  2  0
  5 10  1  0
  9 11  1  0
 11 12  1  0
 11 13  2  0
  4 14  1  0
 14 15  2  0
 15 16  1  0
 15 17  1  0
  2 17  1  0
 14 18  1  0
 18 19  2  0
 18 20  1  0
 20 21  1  0
 21 22  1  0
 22 23  1  0
 22 24  1  0
 22 25  1  0
 25 26  1  0
 18 26  1  0
  3 27  1  0
 27 28  2  0
 27 29  1  0
 29 30  1  0
 30 31  1  0
 31 32  1  0
 32 33  1  0
 33 34  1  0
 34 35  2  0
 35 36  1  0
 36 37  2  0
 37 38  1  0
 38 39  2  0
 34 39  1  0
 32 40  1  0
 40 41  2  0
 41 42  1  0
 42 43  2  0
 43 44  1  0
 44 45  2  0
 40 45  1  0
M  CHG  2  11   1  12  -1
M  END
>  <Classification>  (523) 
0

>  <pchembl>  (523) 
4.76

>  <InChI_steorem>  (523) 
InChI=1S/C34H38N3O7P/c1-24-30(33(38)42-19-18-36(28-15-9-6-10-16-28)21-26-12-7-5-8-13-26)31(27-14-11-17-29(20-27)37(39)40)32(25(2)35-24)45(41)43-22-34(3,4)23-44-45/h5-17,20,31,35H,18-19,21-23H2,1-4H3

>  <source>  (523) 
ChEMBL25

>  <source_id>  (523) 
25

>  <optional_reference>  (523) 
10.1023/a:1007568811691

>  <optional_origin>  (523) 
None

>  <target>  (523) 
MDR1

$$$$

     RDKit          2D

 50 55  0  0  0  0  0  0  0  0999 V2000
    3.1821    0.0295    0.0000 N   0  0  0  0  0  0  0  0  0  0  0  0
    2.4676   -0.3830    0.0000 C   0  0  0  0  0  0  0  0  0  0  0  0
    2.4676   -1.2080    0.0000 C   0  0  0  0  0  0  0  0  0  0  0  0
    3.1821   -1.6205    0.0000 C   0  0  0  0  0  0  0  0  0  0  0  0
    3.8966   -1.2080    0.0000 C   0  0  0  0  0  0  0  0  0  0  0  0
    3.8966   -0.3830    0.0000 C   0  0  0  0  0  0  0  0  0  0  0  0
    3.1821   -2.4455    0.0000 C   0  0  0  0  0  0  0  0  0  0  0  0
    2.4676   -2.8580    0.0000 C   0  0  0  0  0  0  0  0  0  0  0  0
    2.4676   -3.6830    0.0000 C   0  0  0  0  0  0  0  0  0  0  0  0
    3.1821   -4.0955    0.0000 C   0  0  0  0  0  0  0  0  0  0  0  0
    3.8966   -3.6830    0.0000 C   0  0  0  0  0  0  0  0  0  0  0  0
    3.8966   -2.8580    0.0000 C   0  0  0  0  0  0  0  0  0  0  0  0
    1.7532   -1.6205    0.0000 P   0  0  0  0  0  0  0  0  0  0  0  0
    1.0387   -1.2081    0.0000 O   0  0  0  0  0  0  0  0  0  0  0  0
    0.3242   -1.6206    0.0000 C   0  0  0  0  0  0  0  0  0  0  0  0
    0.3242   -2.4456    0.0000 C   0  0  0  0  0  0  0  0  0  0  0  0
    1.0387   -2.8581    0.0000 C   0  0  0  0  0  0  0  0  0  0  0  0
    1.7532   -2.4455    0.0000 O   0  0  0  0  0  0  0  0  0  0  0  0
    4.6111   -1.6205    0.0000 C   0  0  0  0  0  0  0  0  0  0  0  0
    5.3256   -1.2080    0.0000 O   0  0  0  0  0  0  0  0  0  0  0  0
    6.0401   -1.6205    0.0000 C   0  0  0  0  0  0  0  0  0  0  0  0
    4.6111   -2.4455    0.0000 O   0  0  0  0  0  0  0  0  0  0  0  0
    6.7545   -1.2080    0.0000 C   0  0  0  0  0  0  0  0  0  0  0  0
    7.4690   -1.6205    0.0000 N   0  0  0  0  0  0  0  0  0  0  0  0
    7.4690   -2.4455    0.0000 C   0  0  0  0  0  0  0  0  0  0  0  0
    8.1835   -2.8581    0.0000 C   0  0  0  0  0  0  0  0  0  0  0  0
    8.8980   -2.4456    0.0000 N   0  0  0  0  0  0  0  0  0  0  0  0
    8.8980   -1.6206    0.0000 C   0  0  0  0  0  0  0  0  0  0  0  0
    8.1835   -1.2081    0.0000 C   0  0  0  0  0  0  0  0  0  0  0  0
    9.6124   -2.8581    0.0000 C   0  0  0  0  0  0  0  0  0  0  0  0
   10.3269   -2.4456    0.0000 C   0  0  0  0  0  0  0  0  0  0  0  0
    9.6124   -3.6831    0.0000 C   0  0  0  0  0  0  0  0  0  0  0  0
    8.8979   -4.0956    0.0000 C   0  0  0  0  0  0  0  0  0  0  0  0
    8.8979   -4.9206    0.0000 C   0  0  0  0  0  0  0  0  0  0  0  0
    9.6124   -5.3331    0.0000 C   0  0  0  0  0  0  0  0  0  0  0  0
   10.3269   -4.9206    0.0000 C   0  0  0  0  0  0  0  0  0  0  0  0
   10.3269   -4.0956    0.0000 C   0  0  0  0  0  0  0  0  0  0  0  0
   11.0414   -2.8581    0.0000 C   0  0  0  0  0  0  0  0  0  0  0  0
   11.7559   -2.4456    0.0000 C   0  0  0  0  0  0  0  0  0  0  0  0
   11.7559   -1.6206    0.0000 C   0  0  0  0  0  0  0  0  0  0  0  0
   11.0414   -1.2080    0.0000 C   0  0  0  0  0  0  0  0  0  0  0  0
   10.3269   -1.6205    0.0000 C   0  0  0  0  0  0  0  0  0  0  0  0
    1.7532   -0.7955    0.0000 O   0  0  0  0  0  0  0  0  0  0  0  0
    1.0387   -3.6831    0.0000 C   0  0  0  0  0  0  0  0  0  0  0  0
   -0.3903   -1.2081    0.0000 C   0  0  0  0  0  0  0  0  0  0  0  0
    4.6111   -4.0955    0.0000 N   0  0  0  0  0  0  0  0  0  0  0  0
    5.3256   -3.6830    0.0000 O   0  0  0  0  0  0  0  0  0  0  0  0
    4.6111   -4.9205    0.0000 O   0  0  0  0  0  0  0  0  0  0  0  0
    1.7532    0.0295    0.0000 C   0  0  0  0  0  0  0  0  0  0  0  0
    4.6111    0.0295    0.0000 C   0  0  0  0  0  0  0  0  0  0  0  0
  1  2  2  0
  1  6  1  0
  2  3  1  0
  3  4  2  0
  4  5  1  0
  5  6  2  0
  4  7  1  0
  7  8  2  0
  7 12  1  0
  8  9  1  0
  9 10  2  0
 10 11  1  0
 11 12  2  0
  3 13  1  0
 13 14  1  0
 18 13  1  0
 14 15  1  0
 15 16  1  0
 16 17  1  0
 17 18  1  0
  5 19  1  0
 19 20  1  0
 20 21  1  0
 19 22  2  0
 21 23  1  0
 23 24  1  0
 24 25  1  0
 29 24  1  0
 25 26  1  0
 26 27  1  0
 27 28  1  0
 28 29  1  0
 27 30  1  0
 30 31  1  0
 30 32  1  0
 32 33  2  0
 32 37  1  0
 33 34  1  0
 34 35  2  0
 35 36  1  0
 36 37  2  0
 31 38  2  0
 31 42  1  0
 38 39  1  0
 39 40  2  0
 40 41  1  0
 41 42  2  0
 13 43  2  0
 17 44  1  0
 15 45  1  0
 11 46  1  0
 46 47  1  0
 46 48  2  0
  2 49  1  0
  6 50  1  0
M  CHG  2  46   1  47  -1
M  END
>  <Classification>  (524) 
1

>  <pchembl>  (524) 
6.68

>  <InChI_steorem>  (524) 
InChI=1S/C38H43N4O7P/c1-26-24-27(2)49-50(46,48-26)37-29(4)39-28(3)34(35(37)32-16-11-17-33(25-32)42(44)45)38(43)47-23-22-40-18-20-41(21-19-40)36(30-12-7-5-8-13-30)31-14-9-6-10-15-31/h5-17,25-27,36H,18-24H2,1-4H3

>  <source>  (524) 
ChEMBL25

>  <source_id>  (524) 
25

>  <optional_reference>  (524) 
10.1016/s0014-2999(00)00047-9

>  <optional_origin>  (524) 
None

>  <target>  (524) 
MDR1

$$$$

     RDKit          2D

 30 33  0  0  0  0  0  0  0  0999 V2000
   -6.4915    5.2571    0.0000 C   0  0  0  0  0  0  0  0  0  0  0  0
    1.2990   -0.7500    0.0000 C   0  0  0  0  0  0  0  0  0  0  0  0
    1.2990    0.7500    0.0000 C   0  0  0  0  0  0  0  0  0  0  0  0
    0.0000    1.5000    0.0000 C   0  0  0  0  0  0  0  0  0  0  0  0
   -1.2990    0.7500    0.0000 C   0  0  0  0  0  0  0  0  0  0  0  0
   -1.2990   -0.7500    0.0000 C   0  0  0  0  0  0  0  0  0  0  0  0
    0.0000   -1.5000    0.0000 C   0  0  0  0  0  0  0  0  0  0  0  0
   -2.5987   -1.5004    0.0000 C   0  0  0  0  0  0  0  0  0  0  0  0
   -3.9511   -0.8815    0.0000 N   0  0  0  0  0  0  0  0  0  0  0  0
   -4.9530   -1.9978    0.0000 N   0  0  0  0  0  0  0  0  0  0  0  0
   -4.2010   -3.2957    0.0000 N   0  0  0  0  0  0  0  0  0  0  0  0
   -2.7343   -2.9815    0.0000 N   0  0  0  0  0  0  0  0  0  0  0  0
   -6.4458   -1.8433    0.0000 C   0  0  0  0  0  0  0  0  0  0  0  0
   -7.2285   -3.1250    0.0000 C   0  0  0  0  0  0  0  0  0  0  0  0
   -8.7279   -3.0832    0.0000 C   0  0  0  0  0  0  0  0  0  0  0  0
   -9.4415   -1.7638    0.0000 C   0  0  0  0  0  0  0  0  0  0  0  0
   -8.6557   -0.4862    0.0000 C   0  0  0  0  0  0  0  0  0  0  0  0
   -7.1563   -0.5279    0.0000 C   0  0  0  0  0  0  0  0  0  0  0  0
   -2.5973    1.5031    0.0000 N   0  0  0  0  0  0  0  0  0  0  0  0
   -2.5951    3.0039    0.0000 C   0  0  0  0  0  0  0  0  0  0  0  0
   -3.8933    3.7570    0.0000 C   0  0  0  0  0  0  0  0  0  0  0  0
   -1.5549    3.6021    0.0000 O   0  0  0  0  0  0  0  0  0  0  0  0
   -3.8934    5.2570    0.0000 C   0  0  0  0  0  0  0  0  0  0  0  0
   -5.1924    6.0070    0.0000 C   0  0  0  0  0  0  0  0  0  0  0  0
   -6.4915    3.7571    0.0000 C   0  0  0  0  0  0  0  0  0  0  0  0
   -5.1925    3.0070    0.0000 C   0  0  0  0  0  0  0  0  0  0  0  0
   -7.7928    6.0048    0.0000 O   0  0  0  0  0  0  0  0  0  0  0  0
   -8.8312    5.4034    0.0000 C   0  0  0  0  0  0  0  0  0  0  0  0
   -6.3711    0.7512    0.0000 O   0  0  0  0  0  0  0  0  0  0  0  0
   -6.9422    1.8066    0.0000 C   0  0  0  0  0  0  0  0  0  0  0  0
  2  3  2  0
  3  4  1  0
  4  5  2  0
  5  6  1  0
  6  7  2  0
  7  2  1  0
  8  9  2  0
  9 10  1  0
 10 11  1  0
 11 12  2  0
 12  8  1  0
  6  8  1  0
 13 14  2  0
 14 15  1  0
 15 16  2  0
 16 17  1  0
 17 18  2  0
 18 13  1  0
 10 13  1  0
  5 19  1  0
 19 20  1  0
 20 21  1  0
 20 22  2  0
 21 23  2  0
 23 24  1  0
 24  1  2  0
  1 25  1  0
 25 26  2  0
 26 21  1  0
  1 27  1  0
 27 28  1  0
 18 29  1  0
 29 30  1  0
M  END
>  <Classification>  (525) 
1

>  <pchembl>  (525) 
5.11

>  <InChI_steorem>  (525) 
InChI=1S/C22H19N5O3/c1-29-16-13-11-15(12-14-16)22(28)23-18-8-4-3-7-17(18)21-24-26-27(25-21)19-9-5-6-10-20(19)30-2/h3-14H,1-2H3,(H,23,28)

>  <source>  (525) 
ChEMBL25

>  <source_id>  (525) 
25

>  <optional_reference>  (525) 
10.1021/acs.jmedchem.5b00188

>  <optional_origin>  (525) 
None

>  <target>  (525) 
MDR1

$$$$

     RDKit          2D

 32 35  0  0  0  0  0  0  0  0999 V2000
   -6.4915    5.2571    0.0000 C   0  0  0  0  0  0  0  0  0  0  0  0
    1.2990   -0.7500    0.0000 C   0  0  0  0  0  0  0  0  0  0  0  0
    1.2990    0.7500    0.0000 C   0  0  0  0  0  0  0  0  0  0  0  0
    0.0000    1.5000    0.0000 C   0  0  0  0  0  0  0  0  0  0  0  0
   -1.2990    0.7500    0.0000 C   0  0  0  0  0  0  0  0  0  0  0  0
   -1.2990   -0.7500    0.0000 C   0  0  0  0  0  0  0  0  0  0  0  0
    0.0000   -1.5000    0.0000 C   0  0  0  0  0  0  0  0  0  0  0  0
   -2.5987   -1.5004    0.0000 C   0  0  0  0  0  0  0  0  0  0  0  0
   -3.9511   -0.8815    0.0000 N   0  0  0  0  0  0  0  0  0  0  0  0
   -4.9530   -1.9978    0.0000 N   0  0  0  0  0  0  0  0  0  0  0  0
   -4.2010   -3.2957    0.0000 N   0  0  0  0  0  0  0  0  0  0  0  0
   -2.7343   -2.9815    0.0000 N   0  0  0  0  0  0  0  0  0  0  0  0
   -6.4458   -1.8433    0.0000 C   0  0  0  0  0  0  0  0  0  0  0  0
   -7.1563   -0.5279    0.0000 C   0  0  0  0  0  0  0  0  0  0  0  0
   -8.6557   -0.4862    0.0000 C   0  0  0  0  0  0  0  0  0  0  0  0
   -9.4415   -1.7638    0.0000 C   0  0  0  0  0  0  0  0  0  0  0  0
   -8.7279   -3.0832    0.0000 C   0  0  0  0  0  0  0  0  0  0  0  0
   -7.2285   -3.1250    0.0000 C   0  0  0  0  0  0  0  0  0  0  0  0
   -2.5973    1.5031    0.0000 N   0  0  0  0  0  0  0  0  0  0  0  0
   -2.5951    3.0039    0.0000 C   0  0  0  0  0  0  0  0  0  0  0  0
   -3.8933    3.7570    0.0000 C   0  0  0  0  0  0  0  0  0  0  0  0
   -1.5549    3.6021    0.0000 O   0  0  0  0  0  0  0  0  0  0  0  0
   -3.8934    5.2570    0.0000 C   0  0  0  0  0  0  0  0  0  0  0  0
   -5.1924    6.0070    0.0000 C   0  0  0  0  0  0  0  0  0  0  0  0
   -6.4915    3.7571    0.0000 C   0  0  0  0  0  0  0  0  0  0  0  0
   -5.1925    3.0070    0.0000 C   0  0  0  0  0  0  0  0  0  0  0  0
  -10.9419   -1.7252    0.0000 O   0  0  0  0  0  0  0  0  0  0  0  0
  -11.5691   -2.7482    0.0000 C   0  0  0  0  0  0  0  0  0  0  0  0
   -7.7897    3.0040    0.0000 O   0  0  0  0  0  0  0  0  0  0  0  0
   -7.7881    1.8040    0.0000 C   0  0  0  0  0  0  0  0  0  0  0  0
   -7.7897    6.0102    0.0000 O   0  0  0  0  0  0  0  0  0  0  0  0
   -7.7879    7.2102    0.0000 C   0  0  0  0  0  0  0  0  0  0  0  0
  2  3  2  0
  3  4  1  0
  4  5  2  0
  5  6  1  0
  6  7  2  0
  7  2  1  0
  8  9  2  0
  9 10  1  0
 10 11  1  0
 11 12  2  0
 12  8  1  0
  6  8  1  0
 13 14  2  0
 14 15  1  0
 15 16  2  0
 16 17  1  0
 17 18  2  0
 18 13  1  0
 10 13  1  0
  5 19  1  0
 19 20  1  0
 20 21  1  0
 20 22  2  0
 21 23  2  0
 23 24  1  0
 24  1  2  0
  1 25  1  0
 25 26  2  0
 26 21  1  0
 16 27  1  0
 27 28  1  0
 25 29  1  0
 29 30  1  0
  1 31  1  0
 31 32  1  0
M  END
>  <Classification>  (526) 
0

>  <pchembl>  (526) 
4.43

>  <InChI_steorem>  (526) 
InChI=1S/C23H21N5O4/c1-30-17-11-9-16(10-12-17)28-26-22(25-27-28)18-6-4-5-7-19(18)24-23(29)15-8-13-20(31-2)21(14-15)32-3/h4-14H,1-3H3,(H,24,29)

>  <source>  (526) 
ChEMBL25

>  <source_id>  (526) 
25

>  <optional_reference>  (526) 
10.1021/acs.jmedchem.5b00188

>  <optional_origin>  (526) 
None

>  <target>  (526) 
MDR1

$$$$

     RDKit          2D

 32 35  0  0  0  0  0  0  0  0999 V2000
   -6.4915    5.2571    0.0000 C   0  0  0  0  0  0  0  0  0  0  0  0
   -7.7912    6.0075    0.0000 C   0  0  0  0  0  0  0  0  0  0  0  0
   -7.7920    7.2075    0.0000 F   0  0  0  0  0  0  0  0  0  0  0  0
   -8.8303    5.4072    0.0000 F   0  0  0  0  0  0  0  0  0  0  0  0
   -8.8307    6.6070    0.0000 F   0  0  0  0  0  0  0  0  0  0  0  0
    1.2990   -0.7500    0.0000 C   0  0  0  0  0  0  0  0  0  0  0  0
    1.2990    0.7500    0.0000 C   0  0  0  0  0  0  0  0  0  0  0  0
    0.0000    1.5000    0.0000 C   0  0  0  0  0  0  0  0  0  0  0  0
   -1.2990    0.7500    0.0000 C   0  0  0  0  0  0  0  0  0  0  0  0
   -1.2990   -0.7500    0.0000 C   0  0  0  0  0  0  0  0  0  0  0  0
    0.0000   -1.5000    0.0000 C   0  0  0  0  0  0  0  0  0  0  0  0
   -2.5987   -1.5004    0.0000 C   0  0  0  0  0  0  0  0  0  0  0  0
   -3.9511   -0.8815    0.0000 N   0  0  0  0  0  0  0  0  0  0  0  0
   -4.9530   -1.9978    0.0000 N   0  0  0  0  0  0  0  0  0  0  0  0
   -4.2010   -3.2957    0.0000 N   0  0  0  0  0  0  0  0  0  0  0  0
   -2.7343   -2.9815    0.0000 N   0  0  0  0  0  0  0  0  0  0  0  0
   -6.4458   -1.8433    0.0000 C   0  0  0  0  0  0  0  0  0  0  0  0
   -7.2285   -3.1250    0.0000 C   0  0  0  0  0  0  0  0  0  0  0  0
   -8.7279   -3.0832    0.0000 C   0  0  0  0  0  0  0  0  0  0  0  0
   -9.4415   -1.7638    0.0000 C   0  0  0  0  0  0  0  0  0  0  0  0
   -8.6557   -0.4862    0.0000 C   0  0  0  0  0  0  0  0  0  0  0  0
   -7.1563   -0.5279    0.0000 C   0  0  0  0  0  0  0  0  0  0  0  0
   -2.5973    1.5031    0.0000 N   0  0  0  0  0  0  0  0  0  0  0  0
   -2.5951    3.0039    0.0000 C   0  0  0  0  0  0  0  0  0  0  0  0
   -3.8933    3.7570    0.0000 C   0  0  0  0  0  0  0  0  0  0  0  0
   -1.5549    3.6021    0.0000 O   0  0  0  0  0  0  0  0  0  0  0  0
   -3.8934    5.2570    0.0000 C   0  0  0  0  0  0  0  0  0  0  0  0
   -5.1924    6.0070    0.0000 C   0  0  0  0  0  0  0  0  0  0  0  0
   -6.4915    3.7571    0.0000 C   0  0  0  0  0  0  0  0  0  0  0  0
   -5.1925    3.0070    0.0000 C   0  0  0  0  0  0  0  0  0  0  0  0
   -6.3711    0.7512    0.0000 O   0  0  0  0  0  0  0  0  0  0  0  0
   -6.9422    1.8066    0.0000 C   0  0  0  0  0  0  0  0  0  0  0  0
  1  2  1  0
  2  3  1  0
  2  4  1  0
  2  5  1  0
  6  7  2  0
  7  8  1  0
  8  9  2  0
  9 10  1  0
 10 11  2  0
 11  6  1  0
 12 13  2  0
 13 14  1  0
 14 15  1  0
 15 16  2  0
 16 12  1  0
 10 12  1  0
 17 18  2  0
 18 19  1  0
 19 20  2  0
 20 21  1  0
 21 22  2  0
 22 17  1  0
 14 17  1  0
  9 23  1  0
 23 24  1  0
 24 25  1  0
 24 26  2  0
 25 27  2  0
 27 28  1  0
 28  1  2  0
  1 29  1  0
 29 30  2  0
 30 25  1  0
 22 31  1  0
 31 32  1  0
M  END
>  <Classification>  (527) 
0

>  <pchembl>  (527) 
4.96

>  <InChI_steorem>  (527) 
InChI=1S/C22H16F3N5O2/c1-32-19-9-5-4-8-18(19)30-28-20(27-29-30)16-6-2-3-7-17(16)26-21(31)14-10-12-15(13-11-14)22(23,24)25/h2-13H,1H3,(H,26,31)

>  <source>  (527) 
ChEMBL25

>  <source_id>  (527) 
25

>  <optional_reference>  (527) 
10.1021/acs.jmedchem.5b00188

>  <optional_origin>  (527) 
None

>  <target>  (527) 
MDR1

$$$$

     RDKit          2D

 33 36  0  0  0  0  0  0  0  0999 V2000
   -6.4915    5.2571    0.0000 C   0  0  0  0  0  0  0  0  0  0  0  0
    1.2990   -0.7500    0.0000 C   0  0  0  0  0  0  0  0  0  0  0  0
    1.2990    0.7500    0.0000 C   0  0  0  0  0  0  0  0  0  0  0  0
    0.0000    1.5000    0.0000 C   0  0  0  0  0  0  0  0  0  0  0  0
   -1.2990    0.7500    0.0000 C   0  0  0  0  0  0  0  0  0  0  0  0
   -1.2990   -0.7500    0.0000 C   0  0  0  0  0  0  0  0  0  0  0  0
    0.0000   -1.5000    0.0000 C   0  0  0  0  0  0  0  0  0  0  0  0
   -2.5987   -1.5004    0.0000 C   0  0  0  0  0  0  0  0  0  0  0  0
   -3.9511   -0.8815    0.0000 N   0  0  0  0  0  0  0  0  0  0  0  0
   -4.9530   -1.9978    0.0000 N   0  0  0  0  0  0  0  0  0  0  0  0
   -4.2010   -3.2957    0.0000 N   0  0  0  0  0  0  0  0  0  0  0  0
   -2.7343   -2.9815    0.0000 N   0  0  0  0  0  0  0  0  0  0  0  0
   -6.4458   -1.8433    0.0000 C   0  0  0  0  0  0  0  0  0  0  0  0
   -7.1563   -0.5279    0.0000 C   0  0  0  0  0  0  0  0  0  0  0  0
   -8.6557   -0.4862    0.0000 C   0  0  0  0  0  0  0  0  0  0  0  0
   -9.4415   -1.7638    0.0000 C   0  0  0  0  0  0  0  0  0  0  0  0
   -8.7279   -3.0832    0.0000 C   0  0  0  0  0  0  0  0  0  0  0  0
   -7.2285   -3.1250    0.0000 C   0  0  0  0  0  0  0  0  0  0  0  0
   -2.5973    1.5031    0.0000 N   0  0  0  0  0  0  0  0  0  0  0  0
   -2.5951    3.0039    0.0000 C   0  0  0  0  0  0  0  0  0  0  0  0
   -3.8933    3.7570    0.0000 C   0  0  0  0  0  0  0  0  0  0  0  0
   -1.5549    3.6021    0.0000 O   0  0  0  0  0  0  0  0  0  0  0  0
   -3.8934    5.2570    0.0000 C   0  0  0  0  0  0  0  0  0  0  0  0
   -5.1924    6.0070    0.0000 C   0  0  0  0  0  0  0  0  0  0  0  0
   -6.4915    3.7571    0.0000 C   0  0  0  0  0  0  0  0  0  0  0  0
   -5.1925    3.0070    0.0000 C   0  0  0  0  0  0  0  0  0  0  0  0
  -10.9419   -1.7252    0.0000 O   0  0  0  0  0  0  0  0  0  0  0  0
  -11.7263   -3.0047    0.0000 C   0  0  0  0  0  0  0  0  0  0  0  0
  -12.9259   -2.9738    0.0000 C   0  0  0  0  0  0  0  0  0  0  0  0
   -7.7897    3.0040    0.0000 O   0  0  0  0  0  0  0  0  0  0  0  0
   -7.7881    1.8040    0.0000 C   0  0  0  0  0  0  0  0  0  0  0  0
   -7.7897    6.0102    0.0000 O   0  0  0  0  0  0  0  0  0  0  0  0
   -7.7879    7.2102    0.0000 C   0  0  0  0  0  0  0  0  0  0  0  0
  2  3  2  0
  3  4  1  0
  4  5  2  0
  5  6  1  0
  6  7  2  0
  7  2  1  0
  8  9  2  0
  9 10  1  0
 10 11  1  0
 11 12  2  0
 12  8  1  0
  6  8  1  0
 13 14  2  0
 14 15  1  0
 15 16  2  0
 16 17  1  0
 17 18  2  0
 18 13  1  0
 10 13  1  0
  5 19  1  0
 19 20  1  0
 20 21  1  0
 20 22  2  0
 21 23  2  0
 23 24  1  0
 24  1  2  0
  1 25  1  0
 25 26  2  0
 26 21  1  0
 16 27  1  0
 27 28  1  0
 28 29  1  0
 25 30  1  0
 30 31  1  0
  1 32  1  0
 32 33  1  0
M  END
>  <Classification>  (528) 
0

>  <pchembl>  (528) 
4.48

>  <InChI_steorem>  (528) 
InChI=1S/C24H23N5O4/c1-4-33-18-12-10-17(11-13-18)29-27-23(26-28-29)19-7-5-6-8-20(19)25-24(30)16-9-14-21(31-2)22(15-16)32-3/h5-15H,4H2,1-3H3,(H,25,30)

>  <source>  (528) 
ChEMBL25

>  <source_id>  (528) 
25

>  <optional_reference>  (528) 
10.1021/acs.jmedchem.5b00188

>  <optional_origin>  (528) 
None

>  <target>  (528) 
MDR1

$$$$

     RDKit          2D

 45 49  0  0  0  0  0  0  0  0999 V2000
    8.4304    0.5643    0.0000 C   0  0  0  0  0  0  0  0  0  0  0  0
    7.0194    0.5897    0.0000 C   0  0  0  0  0  0  0  0  0  0  0  0
    7.7101    0.1193    0.0000 C   0  0  0  0  0  0  0  0  0  0  0  0
    8.4304    1.3015    0.0000 C   0  0  0  0  0  0  0  0  0  0  0  0
    7.0109    1.3651    0.0000 C   0  0  0  0  0  0  0  0  0  0  0  0
    7.7482    1.7507    0.0000 N   0  0  0  0  0  0  0  0  0  0  0  0
    8.2185   -2.5629    0.0000 N   0  0  0  0  0  0  0  0  0  0  0  0
    7.4050   -0.6645    0.0000 C   0  0  0  0  0  0  0  0  0  0  0  0
   11.6762   -3.3594    0.0000 C   0  0  0  0  0  0  0  0  0  0  0  0
    6.4770    0.3736    0.0000 C   0  0  0  0  0  0  0  0  0  0  0  0
    9.1211    0.0939    0.0000 C   0  0  0  0  0  0  0  0  0  0  0  0
    7.6931   -1.9908    0.0000 C   0  0  0  0  0  0  0  0  0  0  0  0
    7.9346   -1.2408    0.0000 C   0  0  0  0  0  0  0  0  0  0  0  0
   11.5363   -1.7112    0.0000 N   0  0  0  0  0  0  0  0  0  0  0  0
   12.3372   -2.9272    0.0000 C   0  0  0  0  0  0  0  0  0  0  0  0
   10.8965   -3.0078    0.0000 C   0  0  0  0  0  0  0  0  0  0  0  0
    9.0067   -2.4188    0.0000 O   0  0  0  0  0  0  0  0  0  0  0  0
    7.9643   -3.3256    0.0000 O   0  0  0  0  0  0  0  0  0  0  0  0
   11.1169   -3.9739    0.0000 C   0  0  0  0  0  0  0  0  0  0  0  0
   12.4008   -3.7324    0.0000 C   0  0  0  0  0  0  0  0  0  0  0  0
    6.4389   -0.4654    0.0000 O   0  0  0  0  0  0  0  0  0  0  0  0
    9.1211   -0.6815    0.0000 O   0  0  0  0  0  0  0  0  0  0  0  0
   12.2736   -2.0798    0.0000 C   0  0  0  0  0  0  0  0  0  0  0  0
   10.8245   -2.1815    0.0000 C   0  0  0  0  0  0  0  0  0  0  0  0
    9.9219    0.4626    0.0000 O   0  0  0  0  0  0  0  0  0  0  0  0
    5.7652    0.7973    0.0000 O   0  0  0  0  0  0  0  0  0  0  0  0
    6.3626    1.7889    0.0000 C   0  0  0  0  0  0  0  0  0  0  0  0
    9.2058    1.6448    0.0000 C   0  0  0  0  0  0  0  0  0  0  0  0
    6.6677   -0.8341    0.0000 C   0  0  0  0  0  0  0  0  0  0  0  0
   11.4728   -0.9061    0.0000 C   0  0  0  0  0  0  0  0  0  0  0  0
   10.7736   -0.5163    0.0000 C   0  0  0  0  0  0  0  0  0  0  0  0
    6.9304   -2.1264    0.0000 C   0  0  0  0  0  0  0  0  0  0  0  0
    6.4262   -1.5713    0.0000 C   0  0  0  0  0  0  0  0  0  0  0  0
   10.7863    0.1236    0.0000 C   0  0  0  0  0  0  0  0  0  0  0  0
   13.0872   -3.2747    0.0000 C   0  0  0  0  0  0  0  0  0  0  0  0
   11.3795   -4.7747    0.0000 C   0  0  0  0  0  0  0  0  0  0  0  0
   10.2906   -3.8298    0.0000 C   0  0  0  0  0  0  0  0  0  0  0  0
   12.4855   -4.5713    0.0000 C   0  0  0  0  0  0  0  0  0  0  0  0
    5.0533    0.4541    0.0000 C   0  0  0  0  0  0  0  0  0  0  0  0
   13.1889   -4.9230    0.0000 C   0  0  0  0  0  0  0  0  0  0  0  0
   13.8372   -3.6264    0.0000 C   0  0  0  0  0  0  0  0  0  0  0  0
   10.8118   -5.3806    0.0000 C   0  0  0  0  0  0  0  0  0  0  0  0
    9.7440   -4.4315    0.0000 C   0  0  0  0  0  0  0  0  0  0  0  0
    9.9855   -5.2197    0.0000 C   0  0  0  0  0  0  0  0  0  0  0  0
   13.8880   -4.4527    0.0000 C   0  0  0  0  0  0  0  0  0  0  0  0
  2  3  1  0
  3  1  1  0
  4  1  2  0
  5  6  1  0
  6  4  1  0
  7 12  1  0
  3  8  1  0
  9 16  1  0
 10  2  1  0
 11  1  1  0
 12 13  2  0
 13  8  1  0
 14 30  1  0
 15 23  1  0
 16 24  1  0
 17  7  1  0
 18  7  2  0
 19  9  1  0
 20  9  1  0
 21 10  2  0
 22 11  2  0
 23 14  1  0
 24 14  1  0
 25 11  1  0
 26 10  1  0
 27  5  1  0
 28  4  1  0
 29  8  2  0
 30 31  1  0
 31 34  1  0
 32 33  2  0
 33 29  1  0
 34 25  1  0
 35 20  2  0
 36 19  2  0
 37 19  1  0
 38 20  1  0
 39 26  1  0
 40 38  2  0
 41 35  1  0
 42 36  1  0
 43 37  2  0
 44 43  1  0
 45 40  1  0
  2  5  2  0
 12 32  1  0
 15  9  1  0
 41 45  2  0
 42 44  2  0
M  CHG  2   7   1  17  -1
M  END
>  <Classification>  (529) 
1

>  <pchembl>  (529) 
5.64

>  <InChI_steorem>  (529) 
InChI=1S/C36H39N3O6/c1-25-31(34(40)44-3)33(27-12-10-17-30(24-27)39(42)43)32(26(2)37-25)35(41)45-23-11-20-38-21-18-36(19-22-38,28-13-6-4-7-14-28)29-15-8-5-9-16-29/h4-10,12-17,24,33,37H,11,18-23H2,1-3H3

>  <source>  (529) 
ChEMBL25

>  <source_id>  (529) 
25

>  <optional_reference>  (529) 
10.1006/bbrc.1999.0475

>  <optional_origin>  (529) 
None

>  <target>  (529) 
MDR1

$$$$

     RDKit          2D

 34 38  0  0  0  0  0  0  0  0999 V2000
    4.9354   -1.7689    0.0000 C   0  0  0  0  0  0  0  0  0  0  0  0
    5.4203   -2.4364    0.0000 N   0  0  0  0  0  0  0  0  0  0  0  0
    5.4203   -1.1015    0.0000 N   0  0  0  0  0  0  0  0  0  0  0  0
    6.2049   -2.1814    0.0000 C   0  0  0  0  0  0  0  0  0  0  0  0
    6.2049   -1.3564    0.0000 C   0  0  0  0  0  0  0  0  0  0  0  0
    5.1653   -3.2210    0.0000 C   0  0  0  0  0  0  0  0  0  0  0  0
    4.6555   -4.7903    0.0000 N   0  0  0  0  0  0  0  0  0  0  0  0
    4.1104   -1.7689    0.0000 O   0  0  0  0  0  0  0  0  0  0  0  0
    4.3584   -3.3925    0.0000 C   0  0  0  0  0  0  0  0  0  0  0  0
    5.7174   -3.8341    0.0000 C   0  0  0  0  0  0  0  0  0  0  0  0
    5.2497   -7.5857    0.0000 C   0  0  0  0  0  0  0  0  0  0  0  0
    4.9947   -8.3703    0.0000 C   0  0  0  0  0  0  0  0  0  0  0  0
    6.0566   -7.4142    0.0000 C   0  0  0  0  0  0  0  0  0  0  0  0
    4.1034   -4.1772    0.0000 C   0  0  0  0  0  0  0  0  0  0  0  0
    5.4624   -4.6187    0.0000 C   0  0  0  0  0  0  0  0  0  0  0  0
    6.6087   -8.0273    0.0000 C   0  0  0  0  0  0  0  0  0  0  0  0
    4.1877   -8.5418    0.0000 C   0  0  0  0  0  0  0  0  0  0  0  0
    5.5467   -8.9834    0.0000 C   0  0  0  0  0  0  0  0  0  0  0  0
    6.3116   -6.6295    0.0000 C   0  0  0  0  0  0  0  0  0  0  0  0
    7.6706   -7.0711    0.0000 C   0  0  0  0  0  0  0  0  0  0  0  0
    4.4848   -9.9395    0.0000 C   0  0  0  0  0  0  0  0  0  0  0  0
    7.1185   -6.4580    0.0000 C   0  0  0  0  0  0  0  0  0  0  0  0
    5.2918   -9.7680    0.0000 C   0  0  0  0  0  0  0  0  0  0  0  0
    7.4156   -7.8557    0.0000 C   0  0  0  0  0  0  0  0  0  0  0  0
    3.9328   -9.3265    0.0000 C   0  0  0  0  0  0  0  0  0  0  0  0
    4.2299  -10.7242    0.0000 F   0  0  0  0  0  0  0  0  0  0  0  0
    8.4775   -6.8996    0.0000 F   0  0  0  0  0  0  0  0  0  0  0  0
    4.4005   -5.5749    0.0000 C   0  0  0  0  0  0  0  0  0  0  0  0
    6.9194   -2.5939    0.0000 C   0  0  0  0  0  0  0  0  0  0  0  0
    6.9194   -0.9439    0.0000 C   0  0  0  0  0  0  0  0  0  0  0  0
    4.9526   -6.1880    0.0000 C   0  0  0  0  0  0  0  0  0  0  0  0
    4.6976   -6.9726    0.0000 C   0  0  0  0  0  0  0  0  0  0  0  0
    7.6338   -2.1814    0.0000 C   0  0  0  0  0  0  0  0  0  0  0  0
    7.6338   -1.3564    0.0000 C   0  0  0  0  0  0  0  0  0  0  0  0
  2  1  1  0
  3  1  1  0
  4  2  1  0
  5  3  1  0
  6  2  1  0
  7 15  1  0
  8  1  2  0
  9  6  1  0
 10  6  1  0
 11 32  1  0
 12 11  1  0
 13 11  1  0
 14  9  1  0
 15 10  1  0
 16 13  2  0
 17 12  2  0
 18 12  1  0
 19 13  1  0
 20 22  1  0
 21 23  1  0
 22 19  2  0
 23 18  2  0
 24 16  1  0
 25 17  1  0
 26 21  1  0
 27 20  1  0
 28  7  1  0
 29  4  2  0
 30  5  2  0
 31 28  1  0
 32 31  1  0
 33 29  1  0
 34 30  1  0
  4  5  1  0
 33 34  2  0
 14  7  1  0
 24 20  2  0
 25 21  2  0
M  END
>  <Classification>  (530) 
1

>  <pchembl>  (530) 
5.54

>  <InChI_steorem>  (530) 
InChI=1S/C28H29F2N3O/c29-22-11-7-20(8-12-22)25(21-9-13-23(30)14-10-21)4-3-17-32-18-15-24(16-19-32)33-27-6-2-1-5-26(27)31-28(33)34/h1-2,5-14,24-25H,3-4,15-19H2,(H,31,34)

>  <source>  (530) 
ChEMBL25

>  <source_id>  (530) 
25

>  <optional_reference>  (530) 
10.1021/jm021012t

>  <optional_origin>  (530) 
None

>  <target>  (530) 
MDR1

$$$$

     RDKit          2D

 24 25  0  0  0  0  0  0  0  0999 V2000
   18.9736  -10.2833    0.0000 C   0  0  0  0  0  0  0  0  0  0  0  0
   19.6872  -11.5235    0.0000 C   0  0  0  0  0  0  0  0  0  0  0  0
   20.4037  -11.1102    0.0000 C   0  0  0  0  0  0  0  0  0  0  0  0
   20.4008  -10.2797    0.0000 C   0  0  0  0  0  0  0  0  0  0  0  0
   19.6854   -9.8705    0.0000 C   0  0  0  0  0  0  0  0  0  0  0  0
   21.1137   -9.8645    0.0000 C   0  0  0  0  0  0  0  0  0  0  0  0
   21.8297  -10.2743    0.0000 C   0  0  0  0  0  0  0  0  0  0  0  0
   21.1106   -9.0395    0.0000 O   0  0  0  0  0  0  0  0  0  0  0  0
   21.8295  -11.0969    0.0000 C   0  0  0  0  0  0  0  0  0  0  0  0
   22.5447  -11.5067    0.0000 C   0  0  0  0  0  0  0  0  0  0  0  0
   23.2586  -11.0914    0.0000 C   0  0  0  0  0  0  0  0  0  0  0  0
   23.2528  -10.2622    0.0000 C   0  0  0  0  0  0  0  0  0  0  0  0
   22.5370   -9.8562    0.0000 C   0  0  0  0  0  0  0  0  0  0  0  0
   22.5297   -9.0312    0.0000 O   0  0  0  0  0  0  0  0  0  0  0  0
   23.2404   -8.6123    0.0000 C   0  0  0  0  0  0  0  0  0  0  0  0
   23.9585   -9.0184    0.0000 C   0  0  0  0  0  0  0  0  0  0  0  0
   24.6693   -8.5995    0.0000 C   0  0  0  0  0  0  0  0  0  0  0  0
   23.9659   -9.8434    0.0000 O   0  0  0  0  0  0  0  0  0  0  0  0
   25.3874   -9.0056    0.0000 N   0  0  0  0  0  0  0  0  0  0  0  0
   26.8102   -8.9993    0.0000 C   0  0  0  0  0  0  0  0  0  0  0  0
   26.0916   -8.5887    0.0000 C   0  0  0  0  0  0  0  0  0  0  0  0
   27.5228   -8.5835    0.0000 C   0  0  0  0  0  0  0  0  0  0  0  0
   18.9724  -11.1107    0.0000 C   0  0  0  0  0  0  0  0  0  0  0  0
   18.2579  -11.5232    0.0000 C   0  0  0  0  0  0  0  0  0  0  0  0
  4  5  1  0
 10 11  2  0
  5  1  2  0
 11 12  1  0
  1 23  1  0
 12 13  2  0
 13  7  1  0
  4  6  1  0
 13 14  1  0
  2  3  1  0
 14 15  1  0
  6  7  1  0
 15 16  1  0
 16 17  1  0
  6  8  2  0
 16 18  1  0
  3  4  2  0
 17 19  1  0
  7  9  2  0
 23  2  2  0
 19 21  1  0
 20 21  1  0
  9 10  1  0
 20 22  1  0
 23 24  1  0
M  END
>  <Classification>  (531) 
1

>  <pchembl>  (531) 
5.92

>  <InChI_steorem>  (531) 
InChI=1S/C20H25NO3/c1-3-12-21-13-17(22)14-24-19-7-5-4-6-18(19)20(23)16-10-8-15(2)9-11-16/h4-11,17,21-22H,3,12-14H2,1-2H3

>  <source>  (531) 
ChEMBL25

>  <source_id>  (531) 
25

>  <optional_reference>  (531) 
10.1021/jm201705f

>  <optional_origin>  (531) 
None

>  <target>  (531) 
MDR1

$$$$

     RDKit          2D

 25 27  0  0  0  0  0  0  0  0999 V2000
   -1.7856    0.4146    0.0000 C   0  0  0  0  0  0  0  0  0  0  0  0
   -1.0723    0.8291    0.0000 O   0  0  0  0  0  0  0  0  0  0  0  0
   -2.5012    0.8250    0.0000 C   0  0  0  0  0  0  0  0  0  0  0  0
   -3.2145    0.4104    0.0000 C   0  0  0  0  0  0  0  0  0  0  0  0
   -3.9302    0.8209    0.0000 C   0  0  0  0  0  0  0  0  0  0  0  0
   -3.9325    1.6459    0.0000 C   0  0  0  0  0  0  0  0  0  0  0  0
   -3.2193    2.0604    0.0000 C   0  0  0  0  0  0  0  0  0  0  0  0
   -2.5036    1.6500    0.0000 C   0  0  0  0  0  0  0  0  0  0  0  0
   -1.7832   -0.4104    0.0000 C   0  0  0  0  0  0  0  0  0  0  0  0
   -1.0675   -0.8209    0.0000 C   0  0  0  0  0  0  0  0  0  0  0  0
   -1.0652   -1.6459    0.0000 C   0  0  0  0  0  0  0  0  0  0  0  0
   -1.7784   -2.0604    0.0000 C   0  0  0  0  0  0  0  0  0  0  0  0
   -2.4941   -1.6500    0.0000 C   0  0  0  0  0  0  0  0  0  0  0  0
   -2.4965   -0.8250    0.0000 C   0  0  0  0  0  0  0  0  0  0  0  0
   -0.3543   -0.4063    0.0000 O   0  0  0  0  0  0  0  0  0  0  0  0
    0.3614   -0.8168    0.0000 C   0  0  0  0  0  0  0  0  0  0  0  0
    1.0747   -0.4022    0.0000 C   0  0  0  0  0  0  0  0  0  0  0  0
    1.7903   -0.8126    0.0000 C   0  0  0  0  0  0  0  0  0  0  0  0
    2.5036   -0.3981    0.0000 N   0  0  0  0  0  0  0  0  0  0  0  0
    3.2193   -0.8085    0.0000 C   0  0  0  0  0  0  0  0  0  0  0  0
    3.9325   -0.3940    0.0000 C   0  0  0  0  0  0  0  0  0  0  0  0
    3.9302    0.4310    0.0000 O   0  0  0  0  0  0  0  0  0  0  0  0
    3.2145    0.8415    0.0000 C   0  0  0  0  0  0  0  0  0  0  0  0
    2.5012    0.4269    0.0000 C   0  0  0  0  0  0  0  0  0  0  0  0
    1.0723    0.4228    0.0000 O   0  0  0  0  0  0  0  0  0  0  0  0
  1  2  2  0
  3  4  2  0
  4  5  1  0
  5  6  2  0
  6  7  1  0
  7  8  2  0
  3  8  1  0
  1  3  1  0
  9 10  1  0
 10 11  2  0
 11 12  1  0
 12 13  2  0
 13 14  1  0
  9 14  2  0
 16 17  1  0
 17 18  1  0
 15 16  1  0
 19 20  1  0
 20 21  1  0
 21 22  1  0
 22 23  1  0
 23 24  1  0
 19 24  1  0
 18 19  1  0
 17 25  1  0
 10 15  1  0
  1  9  1  0
M  END
>  <Classification>  (532) 
0

>  <pchembl>  (532) 
4.87

>  <InChI_steorem>  (532) 
InChI=1S/C20H23NO4/c22-17(14-21-10-12-24-13-11-21)15-25-19-9-5-4-8-18(19)20(23)16-6-2-1-3-7-16/h1-9,17,22H,10-15H2

>  <source>  (532) 
ChEMBL25

>  <source_id>  (532) 
25

>  <optional_reference>  (532) 
10.1021/jm201705f

>  <optional_origin>  (532) 
None

>  <target>  (532) 
MDR1

$$$$

     RDKit          2D

 25 27  0  0  0  0  0  0  0  0999 V2000
   -2.5003    0.2130    0.0000 C   0  0  0  0  0  0  0  0  0  0  0  0
   -2.4989    1.0380    0.0000 O   0  0  0  0  0  0  0  0  0  0  0  0
   -3.2155   -0.1982    0.0000 C   0  0  0  0  0  0  0  0  0  0  0  0
   -3.2169   -1.0232    0.0000 C   0  0  0  0  0  0  0  0  0  0  0  0
   -3.9321   -1.4345    0.0000 C   0  0  0  0  0  0  0  0  0  0  0  0
   -4.6458   -1.0207    0.0000 C   0  0  0  0  0  0  0  0  0  0  0  0
   -4.6444   -0.1957    0.0000 C   0  0  0  0  0  0  0  0  0  0  0  0
   -3.9292    0.2155    0.0000 C   0  0  0  0  0  0  0  0  0  0  0  0
   -1.7865   -0.2007    0.0000 C   0  0  0  0  0  0  0  0  0  0  0  0
   -1.0713    0.2106    0.0000 C   0  0  0  0  0  0  0  0  0  0  0  0
   -0.3576   -0.2032    0.0000 C   0  0  0  0  0  0  0  0  0  0  0  0
   -0.3590   -1.0282    0.0000 C   0  0  0  0  0  0  0  0  0  0  0  0
   -1.0742   -1.4394    0.0000 C   0  0  0  0  0  0  0  0  0  0  0  0
   -1.7880   -1.0257    0.0000 C   0  0  0  0  0  0  0  0  0  0  0  0
    0.3576    0.2081    0.0000 O   0  0  0  0  0  0  0  0  0  0  0  0
    1.0713   -0.2056    0.0000 C   0  0  0  0  0  0  0  0  0  0  0  0
    1.7865    0.2056    0.0000 C   0  0  0  0  0  0  0  0  0  0  0  0
    2.5003   -0.2081    0.0000 C   0  0  0  0  0  0  0  0  0  0  0  0
    3.2155    0.2032    0.0000 N   0  0  0  0  0  0  0  0  0  0  0  0
    3.9292   -0.2106    0.0000 C   0  0  0  0  0  0  0  0  0  0  0  0
    4.6444    0.2007    0.0000 C   0  0  0  0  0  0  0  0  0  0  0  0
    4.6458    1.0257    0.0000 C   0  0  0  0  0  0  0  0  0  0  0  0
    3.9321    1.4394    0.0000 C   0  0  0  0  0  0  0  0  0  0  0  0
    3.2169    1.0282    0.0000 C   0  0  0  0  0  0  0  0  0  0  0  0
    1.7880    1.0306    0.0000 O   0  0  0  0  0  0  0  0  0  0  0  0
  1  2  2  0
  3  4  2  0
  4  5  1  0
  5  6  2  0
  6  7  1  0
  7  8  2  0
  3  8  1  0
  1  3  1  0
  9 10  2  0
 10 11  1  0
 11 12  2  0
 12 13  1  0
 13 14  2  0
  9 14  1  0
 16 17  1  0
 17 18  1  0
 15 16  1  0
 19 20  1  0
 20 21  1  0
 21 22  1  0
 22 23  1  0
 23 24  1  0
 19 24  1  0
 18 19  1  0
 17 25  1  0
 11 15  1  0
  1  9  1  0
M  END
>  <Classification>  (533) 
1

>  <pchembl>  (533) 
5.45

>  <InChI_steorem>  (533) 
InChI=1S/C21H25NO3/c23-19(15-22-12-5-2-6-13-22)16-25-20-11-7-10-18(14-20)21(24)17-8-3-1-4-9-17/h1,3-4,7-11,14,19,23H,2,5-6,12-13,15-16H2

>  <source>  (533) 
ChEMBL25

>  <source_id>  (533) 
25

>  <optional_reference>  (533) 
10.1021/jm201705f

>  <optional_origin>  (533) 
None

>  <target>  (533) 
MDR1

$$$$

     RDKit          2D

 25 27  0  0  0  0  0  0  0  0999 V2000
   -2.9973  -10.8083    0.0000 C   0  0  0  0  0  0  0  0  0  0  0  0
   -2.9984  -11.6357    0.0000 C   0  0  0  0  0  0  0  0  0  0  0  0
   -2.2836  -12.0485    0.0000 C   0  0  0  0  0  0  0  0  0  0  0  0
   -1.5672  -11.6352    0.0000 C   0  0  0  0  0  0  0  0  0  0  0  0
   -1.5700  -10.8047    0.0000 C   0  0  0  0  0  0  0  0  0  0  0  0
   -2.2854  -10.3955    0.0000 C   0  0  0  0  0  0  0  0  0  0  0  0
   -0.8571  -10.3895    0.0000 C   0  0  0  0  0  0  0  0  0  0  0  0
   -0.1411  -10.7993    0.0000 C   0  0  0  0  0  0  0  0  0  0  0  0
   -0.8602   -9.5645    0.0000 O   0  0  0  0  0  0  0  0  0  0  0  0
   -0.1413  -11.6219    0.0000 C   0  0  0  0  0  0  0  0  0  0  0  0
    0.5738  -12.0317    0.0000 C   0  0  0  0  0  0  0  0  0  0  0  0
    1.2877  -11.6164    0.0000 C   0  0  0  0  0  0  0  0  0  0  0  0
    1.2820  -10.7872    0.0000 C   0  0  0  0  0  0  0  0  0  0  0  0
    0.5662  -10.3812    0.0000 C   0  0  0  0  0  0  0  0  0  0  0  0
    0.5588   -9.5562    0.0000 O   0  0  0  0  0  0  0  0  0  0  0  0
    1.2696   -9.1373    0.0000 C   0  0  0  0  0  0  0  0  0  0  0  0
    1.9877   -9.5434    0.0000 C   0  0  0  0  0  0  0  0  0  0  0  0
    2.6985   -9.1245    0.0000 C   0  0  0  0  0  0  0  0  0  0  0  0
    1.9951  -10.3684    0.0000 O   0  0  0  0  0  0  0  0  0  0  0  0
    3.4166   -9.5306    0.0000 N   0  0  0  0  0  0  0  0  0  0  0  0
    3.4175  -10.3596    0.0000 C   0  0  0  0  0  0  0  0  0  0  0  0
    4.1316  -10.7656    0.0000 C   0  0  0  0  0  0  0  0  0  0  0  0
    4.8448  -10.3502    0.0000 C   0  0  0  0  0  0  0  0  0  0  0  0
    4.8394   -9.5243    0.0000 C   0  0  0  0  0  0  0  0  0  0  0  0
    4.1207   -9.1137    0.0000 C   0  0  0  0  0  0  0  0  0  0  0  0
  6  1  2  0
 12 13  1  0
  1  2  1  0
 13 14  2  0
 14  8  1  0
  5  7  1  0
 14 15  1  0
  3  4  1  0
 15 16  1  0
  7  8  1  0
 16 17  1  0
 17 18  1  0
  7  9  2  0
 17 19  1  0
  4  5  2  0
 18 20  1  0
 20 21  1  0
  8 10  2  0
  2  3  2  0
 10 11  1  0
  5  6  1  0
 11 12  2  0
 20 25  1  0
 21 22  1  0
 22 23  1  0
 23 24  1  0
 24 25  1  0
M  END
>  <Classification>  (534) 
1

>  <pchembl>  (534) 
5.92

>  <InChI_steorem>  (534) 
InChI=1S/C21H25NO3/c23-18(15-22-13-7-2-8-14-22)16-25-20-12-6-5-11-19(20)21(24)17-9-3-1-4-10-17/h1,3-6,9-12,18,23H,2,7-8,13-16H2

>  <source>  (534) 
ChEMBL25

>  <source_id>  (534) 
25

>  <optional_reference>  (534) 
10.1021/jm201705f

>  <optional_origin>  (534) 
None

>  <target>  (534) 
MDR1

$$$$

     RDKit          2D

 32 35  0  0  0  0  0  0  0  0999 V2000
   14.4588   -4.7480    0.0000 O   0  0  0  0  0  0  0  0  0  0  0  0
   15.1696   -5.1669    0.0000 C   0  0  0  0  0  0  0  0  0  0  0  0
   15.8877   -4.7608    0.0000 C   0  0  0  0  0  0  0  0  0  0  0  0
   16.5985   -5.1797    0.0000 C   0  0  0  0  0  0  0  0  0  0  0  0
   15.8951   -3.9358    0.0000 O   0  0  0  0  0  0  0  0  0  0  0  0
   17.3166   -4.7736    0.0000 N   0  0  0  0  0  0  0  0  0  0  0  0
   17.3175   -3.9446    0.0000 C   0  0  0  0  0  0  0  0  0  0  0  0
   18.0316   -3.5386    0.0000 C   0  0  0  0  0  0  0  0  0  0  0  0
   18.7448   -3.9540    0.0000 N   0  0  0  0  0  0  0  0  0  0  0  0
   18.7394   -4.7799    0.0000 C   0  0  0  0  0  0  0  0  0  0  0  0
   18.0207   -5.1905    0.0000 C   0  0  0  0  0  0  0  0  0  0  0  0
   19.4611   -3.5459    0.0000 C   0  0  0  0  0  0  0  0  0  0  0  0
   19.4640   -2.7198    0.0000 C   0  0  0  0  0  0  0  0  0  0  0  0
   20.1797   -2.3110    0.0000 C   0  0  0  0  0  0  0  0  0  0  0  0
   20.8931   -2.7273    0.0000 C   0  0  0  0  0  0  0  0  0  0  0  0
   20.8861   -3.5565    0.0000 C   0  0  0  0  0  0  0  0  0  0  0  0
   20.1698   -3.9615    0.0000 C   0  0  0  0  0  0  0  0  0  0  0  0
    9.4694   -5.1833    0.0000 C   0  0  0  0  0  0  0  0  0  0  0  0
    9.4682   -6.0107    0.0000 C   0  0  0  0  0  0  0  0  0  0  0  0
   10.1831   -6.4235    0.0000 C   0  0  0  0  0  0  0  0  0  0  0  0
   10.8995   -6.0102    0.0000 C   0  0  0  0  0  0  0  0  0  0  0  0
   10.8966   -5.1797    0.0000 C   0  0  0  0  0  0  0  0  0  0  0  0
   10.1813   -4.7705    0.0000 C   0  0  0  0  0  0  0  0  0  0  0  0
   11.6096   -4.7645    0.0000 C   0  0  0  0  0  0  0  0  0  0  0  0
   12.3256   -5.1743    0.0000 C   0  0  0  0  0  0  0  0  0  0  0  0
   11.6064   -3.9395    0.0000 O   0  0  0  0  0  0  0  0  0  0  0  0
   12.3253   -5.9969    0.0000 C   0  0  0  0  0  0  0  0  0  0  0  0
   13.0405   -6.4067    0.0000 C   0  0  0  0  0  0  0  0  0  0  0  0
   13.7544   -5.9914    0.0000 C   0  0  0  0  0  0  0  0  0  0  0  0
   13.7486   -5.1622    0.0000 C   0  0  0  0  0  0  0  0  0  0  0  0
   13.0329   -4.7562    0.0000 C   0  0  0  0  0  0  0  0  0  0  0  0
   21.6102   -2.3194    0.0000 F   0  0  0  0  0  0  0  0  0  0  0  0
  3  5  1  0
 16 17  2  0
 17 12  1  0
  9 12  1  0
  2  3  1  0
  6 11  1  0
 18 19  2  0
  7  8  1  0
 19 20  1  0
  8  9  1  0
 20 21  2  0
  9 10  1  0
 21 22  1  0
 10 11  1  0
 22 23  2  0
 23 18  1  0
  4  6  1  0
 22 24  1  0
  6  7  1  0
 24 25  1  0
 12 13  2  0
 24 26  2  0
  1  2  1  0
 25 27  2  0
 13 14  1  0
 27 28  1  0
  3  4  1  0
 28 29  2  0
 14 15  2  0
 29 30  1  0
 30 31  2  0
 31 25  1  0
 30  1  1  0
 15 16  1  0
 15 32  1  0
M  END
>  <Classification>  (535) 
1

>  <pchembl>  (535) 
6.24

>  <InChI_steorem>  (535) 
InChI=1S/C26H27FN2O3/c27-22-9-11-23(12-10-22)29-15-13-28(14-16-29)18-24(30)19-32-25-8-4-7-21(17-25)26(31)20-5-2-1-3-6-20/h1-12,17,24,30H,13-16,18-19H2

>  <source>  (535) 
ChEMBL25

>  <source_id>  (535) 
25

>  <optional_reference>  (535) 
10.1021/jm201705f

>  <optional_origin>  (535) 
None

>  <target>  (535) 
MDR1

$$$$

     RDKit          2D

 32 35  0  0  0  0  0  0  0  0999 V2000
   27.8174   -4.8684    0.0000 O   0  0  0  0  0  0  0  0  0  0  0  0
   28.5281   -4.4495    0.0000 C   0  0  0  0  0  0  0  0  0  0  0  0
   29.2463   -4.8556    0.0000 C   0  0  0  0  0  0  0  0  0  0  0  0
   29.9570   -4.4367    0.0000 C   0  0  0  0  0  0  0  0  0  0  0  0
   29.2537   -5.6806    0.0000 O   0  0  0  0  0  0  0  0  0  0  0  0
   30.6752   -4.8428    0.0000 N   0  0  0  0  0  0  0  0  0  0  0  0
   30.6761   -5.6718    0.0000 C   0  0  0  0  0  0  0  0  0  0  0  0
   31.3901   -6.0778    0.0000 C   0  0  0  0  0  0  0  0  0  0  0  0
   32.1033   -5.6624    0.0000 N   0  0  0  0  0  0  0  0  0  0  0  0
   32.0979   -4.8365    0.0000 C   0  0  0  0  0  0  0  0  0  0  0  0
   31.3793   -4.4259    0.0000 C   0  0  0  0  0  0  0  0  0  0  0  0
   32.8196   -6.0705    0.0000 C   0  0  0  0  0  0  0  0  0  0  0  0
   32.8226   -6.8966    0.0000 C   0  0  0  0  0  0  0  0  0  0  0  0
   33.5383   -7.3054    0.0000 C   0  0  0  0  0  0  0  0  0  0  0  0
   34.2516   -6.8891    0.0000 C   0  0  0  0  0  0  0  0  0  0  0  0
   34.2447   -6.0599    0.0000 C   0  0  0  0  0  0  0  0  0  0  0  0
   33.5284   -5.6549    0.0000 C   0  0  0  0  0  0  0  0  0  0  0  0
   27.1127   -4.4581    0.0000 C   0  0  0  0  0  0  0  0  0  0  0  0
   22.8277   -3.6500    0.0000 C   0  0  0  0  0  0  0  0  0  0  0  0
   22.8266   -4.4773    0.0000 C   0  0  0  0  0  0  0  0  0  0  0  0
   23.5414   -4.8902    0.0000 C   0  0  0  0  0  0  0  0  0  0  0  0
   24.2578   -4.4769    0.0000 C   0  0  0  0  0  0  0  0  0  0  0  0
   24.2550   -3.6463    0.0000 C   0  0  0  0  0  0  0  0  0  0  0  0
   23.5396   -3.2372    0.0000 C   0  0  0  0  0  0  0  0  0  0  0  0
   24.9679   -3.2311    0.0000 C   0  0  0  0  0  0  0  0  0  0  0  0
   25.6839   -3.6409    0.0000 C   0  0  0  0  0  0  0  0  0  0  0  0
   24.9648   -2.4061    0.0000 O   0  0  0  0  0  0  0  0  0  0  0  0
   25.6837   -4.4636    0.0000 C   0  0  0  0  0  0  0  0  0  0  0  0
   26.3988   -4.8733    0.0000 C   0  0  0  0  0  0  0  0  0  0  0  0
   27.1070   -3.6288    0.0000 C   0  0  0  0  0  0  0  0  0  0  0  0
   26.3912   -3.2228    0.0000 C   0  0  0  0  0  0  0  0  0  0  0  0
   34.9688   -7.2970    0.0000 F   0  0  0  0  0  0  0  0  0  0  0  0
  3  5  1  0
 16 17  2  0
 17 12  1  0
  9 12  1  0
 18  1  1  0
  2  3  1  0
  6 11  1  0
  7  8  1  0
 19 20  2  0
  8  9  1  0
 20 21  1  0
  9 10  1  0
 21 22  2  0
 10 11  1  0
 22 23  1  0
  4  6  1  0
 23 24  2  0
 24 19  1  0
  6  7  1  0
 23 25  1  0
 12 13  2  0
 25 26  1  0
  1  2  1  0
 25 27  2  0
 13 14  1  0
 26 28  2  0
  3  4  1  0
 28 29  1  0
 29 18  2  0
 14 15  2  0
 18 30  1  0
 30 31  2  0
 31 26  1  0
 15 16  1  0
 15 32  1  0
M  END
>  <Classification>  (536) 
1

>  <pchembl>  (536) 
6.01

>  <InChI_steorem>  (536) 
InChI=1S/C26H27FN2O3/c27-22-8-10-23(11-9-22)29-16-14-28(15-17-29)18-24(30)19-32-25-12-6-21(7-13-25)26(31)20-4-2-1-3-5-20/h1-13,24,30H,14-19H2

>  <source>  (536) 
ChEMBL25

>  <source_id>  (536) 
25

>  <optional_reference>  (536) 
10.1021/jm201705f

>  <optional_origin>  (536) 
None

>  <target>  (536) 
MDR1

$$$$

     RDKit          2D

 32 35  0  0  0  0  0  0  0  0999 V2000
   -2.8540    1.6544    0.0000 C   0  0  0  0  0  0  0  0  0  0  0  0
   -2.1370    2.0625    0.0000 O   0  0  0  0  0  0  0  0  0  0  0  0
   -3.5659    2.0713    0.0000 C   0  0  0  0  0  0  0  0  0  0  0  0
   -4.2829    1.6633    0.0000 C   0  0  0  0  0  0  0  0  0  0  0  0
   -4.9949    2.0802    0.0000 C   0  0  0  0  0  0  0  0  0  0  0  0
   -4.9897    2.9052    0.0000 C   0  0  0  0  0  0  0  0  0  0  0  0
   -4.2727    3.3132    0.0000 C   0  0  0  0  0  0  0  0  0  0  0  0
   -3.5608    2.8963    0.0000 C   0  0  0  0  0  0  0  0  0  0  0  0
   -2.8591    0.8294    0.0000 C   0  0  0  0  0  0  0  0  0  0  0  0
   -2.1472    0.4125    0.0000 C   0  0  0  0  0  0  0  0  0  0  0  0
   -2.1523   -0.4125    0.0000 C   0  0  0  0  0  0  0  0  0  0  0  0
   -2.8694   -0.8205    0.0000 C   0  0  0  0  0  0  0  0  0  0  0  0
   -3.5813   -0.4036    0.0000 C   0  0  0  0  0  0  0  0  0  0  0  0
   -3.5762    0.4214    0.0000 C   0  0  0  0  0  0  0  0  0  0  0  0
   -1.4404   -0.8294    0.0000 O   0  0  0  0  0  0  0  0  0  0  0  0
   -0.7209   -0.4257    0.0000 C   0  0  0  0  0  0  0  0  0  0  0  0
   -0.0064   -0.8382    0.0000 C   0  0  0  0  0  0  0  0  0  0  0  0
    0.7080   -0.4257    0.0000 C   0  0  0  0  0  0  0  0  0  0  0  0
    1.4225   -0.8382    0.0000 N   0  0  0  0  0  0  0  0  0  0  0  0
    2.1370   -0.4257    0.0000 C   0  0  0  0  0  0  0  0  0  0  0  0
    2.8514   -0.8382    0.0000 C   0  0  0  0  0  0  0  0  0  0  0  0
    2.8514   -1.6632    0.0000 N   0  0  0  0  0  0  0  0  0  0  0  0
    2.1370   -2.0757    0.0000 C   0  0  0  0  0  0  0  0  0  0  0  0
    1.4225   -1.6632    0.0000 C   0  0  0  0  0  0  0  0  0  0  0  0
    3.5659   -2.0757    0.0000 C   0  0  0  0  0  0  0  0  0  0  0  0
    4.2804   -1.6632    0.0000 C   0  0  0  0  0  0  0  0  0  0  0  0
    4.9949   -2.9007    0.0000 C   0  0  0  0  0  0  0  0  0  0  0  0
    3.5659   -2.9007    0.0000 C   0  0  0  0  0  0  0  0  0  0  0  0
    4.9949   -2.0757    0.0000 C   0  0  0  0  0  0  0  0  0  0  0  0
    4.2804   -3.3132    0.0000 C   0  0  0  0  0  0  0  0  0  0  0  0
    4.2804   -0.8382    0.0000 C   0  0  0  0  0  0  0  0  0  0  0  0
   -0.0064   -1.6632    0.0000 O   0  0  0  0  0  0  0  0  0  0  0  0
  1  2  2  0
  3  4  2  0
  4  5  1  0
  5  6  2  0
  6  7  1  0
  7  8  2  0
  3  8  1  0
  1  3  1  0
  9 10  2  0
 10 11  1  0
 11 12  2  0
 12 13  1  0
 13 14  2  0
  9 14  1  0
 16 17  1  0
 17 18  1  0
 15 16  1  0
 19 20  1  0
 20 21  1  0
 21 22  1  0
 22 23  1  0
 23 24  1  0
 19 24  1  0
 25 26  2  0
 25 28  1  0
 26 29  1  0
 27 29  2  0
 27 30  1  0
 28 30  2  0
 26 31  1  0
 22 25  1  0
 18 19  1  0
 17 32  1  0
 11 15  1  0
  1  9  1  0
M  END
>  <Classification>  (537) 
1

>  <pchembl>  (537) 
6.7

>  <InChI_steorem>  (537) 
InChI=1S/C27H30N2O3/c1-21-8-5-6-13-26(21)29-16-14-28(15-17-29)19-24(30)20-32-25-12-7-11-23(18-25)27(31)22-9-3-2-4-10-22/h2-13,18,24,30H,14-17,19-20H2,1H3

>  <source>  (537) 
ChEMBL25

>  <source_id>  (537) 
25

>  <optional_reference>  (537) 
10.1021/jm201705f

>  <optional_origin>  (537) 
None

>  <target>  (537) 
MDR1

$$$$

     RDKit          2D

 32 35  0  0  0  0  0  0  0  0999 V2000
   -3.5724    1.6500    0.0000 C   0  0  0  0  0  0  0  0  0  0  0  0
   -3.5724    2.4750    0.0000 O   0  0  0  0  0  0  0  0  0  0  0  0
   -4.2868    1.2375    0.0000 C   0  0  0  0  0  0  0  0  0  0  0  0
   -4.2868    0.4125    0.0000 C   0  0  0  0  0  0  0  0  0  0  0  0
   -5.0013    0.0000    0.0000 C   0  0  0  0  0  0  0  0  0  0  0  0
   -5.7158    0.4125    0.0000 C   0  0  0  0  0  0  0  0  0  0  0  0
   -5.7158    1.2375    0.0000 C   0  0  0  0  0  0  0  0  0  0  0  0
   -5.0013    1.6500    0.0000 C   0  0  0  0  0  0  0  0  0  0  0  0
   -2.8579    1.2375    0.0000 C   0  0  0  0  0  0  0  0  0  0  0  0
   -2.1434    1.6500    0.0000 C   0  0  0  0  0  0  0  0  0  0  0  0
   -1.4289    1.2375    0.0000 C   0  0  0  0  0  0  0  0  0  0  0  0
   -1.4289    0.4125    0.0000 C   0  0  0  0  0  0  0  0  0  0  0  0
   -2.1434    0.0000    0.0000 C   0  0  0  0  0  0  0  0  0  0  0  0
   -2.8579    0.4125    0.0000 C   0  0  0  0  0  0  0  0  0  0  0  0
   -0.7145    0.0000    0.0000 O   0  0  0  0  0  0  0  0  0  0  0  0
    0.0000    0.4125    0.0000 C   0  0  0  0  0  0  0  0  0  0  0  0
    0.7145    0.0000    0.0000 C   0  0  0  0  0  0  0  0  0  0  0  0
    1.4289    0.4125    0.0000 C   0  0  0  0  0  0  0  0  0  0  0  0
    2.1434    0.0000    0.0000 N   0  0  0  0  0  0  0  0  0  0  0  0
    2.8579    0.4125    0.0000 C   0  0  0  0  0  0  0  0  0  0  0  0
    3.5724    0.0000    0.0000 C   0  0  0  0  0  0  0  0  0  0  0  0
    3.5724   -0.8250    0.0000 N   0  0  0  0  0  0  0  0  0  0  0  0
    2.8579   -1.2375    0.0000 C   0  0  0  0  0  0  0  0  0  0  0  0
    2.1434   -0.8250    0.0000 C   0  0  0  0  0  0  0  0  0  0  0  0
    4.2868   -1.2375    0.0000 C   0  0  0  0  0  0  0  0  0  0  0  0
    5.0013   -0.8250    0.0000 C   0  0  0  0  0  0  0  0  0  0  0  0
    5.7158   -2.0625    0.0000 C   0  0  0  0  0  0  0  0  0  0  0  0
    4.2868   -2.0625    0.0000 C   0  0  0  0  0  0  0  0  0  0  0  0
    5.7158   -1.2375    0.0000 C   0  0  0  0  0  0  0  0  0  0  0  0
    5.0013   -2.4750    0.0000 C   0  0  0  0  0  0  0  0  0  0  0  0
    5.0013    0.0000    0.0000 C   0  0  0  0  0  0  0  0  0  0  0  0
    0.7145   -0.8250    0.0000 O   0  0  0  0  0  0  0  0  0  0  0  0
  1  2  2  0
  3  4  2  0
  4  5  1  0
  5  6  2  0
  6  7  1  0
  7  8  2  0
  3  8  1  0
  1  3  1  0
  9 10  2  0
 10 11  1  0
 11 12  2  0
 12 13  1  0
 13 14  2  0
  9 14  1  0
 16 17  1  0
 17 18  1  0
 15 16  1  0
 19 20  1  0
 20 21  1  0
 21 22  1  0
 22 23  1  0
 23 24  1  0
 19 24  1  0
 25 26  2  0
 25 28  1  0
 26 29  1  0
 27 29  2  0
 27 30  1  0
 28 30  2  0
 26 31  1  0
 22 25  1  0
 18 19  1  0
 17 32  1  0
 12 15  1  0
  1  9  1  0
M  END
>  <Classification>  (538) 
1

>  <pchembl>  (538) 
6.3

>  <InChI_steorem>  (538) 
InChI=1S/C27H30N2O3/c1-21-7-5-6-10-26(21)29-17-15-28(16-18-29)19-24(30)20-32-25-13-11-23(12-14-25)27(31)22-8-3-2-4-9-22/h2-14,24,30H,15-20H2,1H3

>  <source>  (538) 
ChEMBL25

>  <source_id>  (538) 
25

>  <optional_reference>  (538) 
10.1021/jm201705f

>  <optional_origin>  (538) 
None

>  <target>  (538) 
MDR1

$$$$

     RDKit          2D

 33 36  0  0  0  0  0  0  0  0999 V2000
   14.3630    0.9687    0.0000 O   0  0  0  0  0  0  0  0  0  0  0  0
   15.0737    0.5498    0.0000 C   0  0  0  0  0  0  0  0  0  0  0  0
   15.7919    0.9559    0.0000 C   0  0  0  0  0  0  0  0  0  0  0  0
   16.5026    0.5370    0.0000 C   0  0  0  0  0  0  0  0  0  0  0  0
   15.7993    1.7809    0.0000 O   0  0  0  0  0  0  0  0  0  0  0  0
   17.2208    0.9431    0.0000 N   0  0  0  0  0  0  0  0  0  0  0  0
   17.2217    1.7721    0.0000 C   0  0  0  0  0  0  0  0  0  0  0  0
   17.9357    2.1781    0.0000 C   0  0  0  0  0  0  0  0  0  0  0  0
   18.6489    1.7627    0.0000 N   0  0  0  0  0  0  0  0  0  0  0  0
   18.6435    0.9368    0.0000 C   0  0  0  0  0  0  0  0  0  0  0  0
   17.9249    0.5262    0.0000 C   0  0  0  0  0  0  0  0  0  0  0  0
   19.3652    2.1708    0.0000 C   0  0  0  0  0  0  0  0  0  0  0  0
   19.3682    2.9969    0.0000 C   0  0  0  0  0  0  0  0  0  0  0  0
   20.0839    3.4056    0.0000 C   0  0  0  0  0  0  0  0  0  0  0  0
   20.7972    2.9894    0.0000 C   0  0  0  0  0  0  0  0  0  0  0  0
   20.7903    2.1601    0.0000 C   0  0  0  0  0  0  0  0  0  0  0  0
   20.0740    1.7552    0.0000 C   0  0  0  0  0  0  0  0  0  0  0  0
   20.0674    0.9302    0.0000 C   0  0  0  0  0  0  0  0  0  0  0  0
   21.5011    1.7414    0.0000 C   0  0  0  0  0  0  0  0  0  0  0  0
    9.3736    0.5334    0.0000 C   0  0  0  0  0  0  0  0  0  0  0  0
    9.3724   -0.2940    0.0000 C   0  0  0  0  0  0  0  0  0  0  0  0
   10.0872   -0.7069    0.0000 C   0  0  0  0  0  0  0  0  0  0  0  0
   10.8037   -0.2935    0.0000 C   0  0  0  0  0  0  0  0  0  0  0  0
   10.8008    0.5370    0.0000 C   0  0  0  0  0  0  0  0  0  0  0  0
   10.0854    0.9461    0.0000 C   0  0  0  0  0  0  0  0  0  0  0  0
   11.5137    0.9522    0.0000 C   0  0  0  0  0  0  0  0  0  0  0  0
   12.2297    0.5424    0.0000 C   0  0  0  0  0  0  0  0  0  0  0  0
   11.5106    1.7772    0.0000 O   0  0  0  0  0  0  0  0  0  0  0  0
   12.2295   -0.2803    0.0000 C   0  0  0  0  0  0  0  0  0  0  0  0
   12.9447   -0.6900    0.0000 C   0  0  0  0  0  0  0  0  0  0  0  0
   13.6586   -0.2747    0.0000 C   0  0  0  0  0  0  0  0  0  0  0  0
   13.6528    0.5545    0.0000 C   0  0  0  0  0  0  0  0  0  0  0  0
   12.9370    0.9605    0.0000 C   0  0  0  0  0  0  0  0  0  0  0  0
 16 17  2  0
 17 12  1  0
  9 12  1  0
  2  3  1  0
 17 18  1  0
  6 11  1  0
 16 19  1  0
  7  8  1  0
  8  9  1  0
 20 21  2  0
  9 10  1  0
 21 22  1  0
 10 11  1  0
 22 23  2  0
  4  6  1  0
 23 24  1  0
  6  7  1  0
 24 25  2  0
 25 20  1  0
 12 13  2  0
 24 26  1  0
  1  2  1  0
 26 27  1  0
 13 14  1  0
 26 28  2  0
  3  4  1  0
 27 29  2  0
 14 15  2  0
 29 30  1  0
 30 31  2  0
 15 16  1  0
 31 32  1  0
  3  5  1  0
 32 33  2  0
 33 27  1  0
 32  1  1  0
M  END
>  <Classification>  (539) 
1

>  <pchembl>  (539) 
6.77

>  <InChI_steorem>  (539) 
InChI=1S/C28H32N2O3/c1-21-8-6-13-27(22(21)2)30-16-14-29(15-17-30)19-25(31)20-33-26-12-7-11-24(18-26)28(32)23-9-4-3-5-10-23/h3-13,18,25,31H,14-17,19-20H2,1-2H3

>  <source>  (539) 
ChEMBL25

>  <source_id>  (539) 
25

>  <optional_reference>  (539) 
10.1021/jm201705f

>  <optional_origin>  (539) 
None

>  <target>  (539) 
MDR1

$$$$

     RDKit          2D

 33 36  0  0  0  0  0  0  0  0999 V2000
   -3.3098    0.8417    0.0000 C   0  0  0  0  0  0  0  0  0  0  0  0
   -3.3109    0.0143    0.0000 C   0  0  0  0  0  0  0  0  0  0  0  0
   -2.5961   -0.3985    0.0000 C   0  0  0  0  0  0  0  0  0  0  0  0
   -1.8797    0.0148    0.0000 C   0  0  0  0  0  0  0  0  0  0  0  0
   -1.8825    0.8453    0.0000 C   0  0  0  0  0  0  0  0  0  0  0  0
   -2.5979    1.2545    0.0000 C   0  0  0  0  0  0  0  0  0  0  0  0
   -1.1696    1.2605    0.0000 C   0  0  0  0  0  0  0  0  0  0  0  0
   -0.4536    0.8507    0.0000 C   0  0  0  0  0  0  0  0  0  0  0  0
   -1.1727    2.0855    0.0000 O   0  0  0  0  0  0  0  0  0  0  0  0
   -0.4538    0.0281    0.0000 C   0  0  0  0  0  0  0  0  0  0  0  0
    0.2613   -0.3817    0.0000 C   0  0  0  0  0  0  0  0  0  0  0  0
    0.9752    0.0336    0.0000 C   0  0  0  0  0  0  0  0  0  0  0  0
    0.9695    0.8628    0.0000 C   0  0  0  0  0  0  0  0  0  0  0  0
    0.2537    1.2688    0.0000 C   0  0  0  0  0  0  0  0  0  0  0  0
    0.2463    2.0938    0.0000 O   0  0  0  0  0  0  0  0  0  0  0  0
    0.9571    2.5127    0.0000 C   0  0  0  0  0  0  0  0  0  0  0  0
    1.6752    2.1066    0.0000 C   0  0  0  0  0  0  0  0  0  0  0  0
    2.3860    2.5255    0.0000 C   0  0  0  0  0  0  0  0  0  0  0  0
    1.6826    1.2816    0.0000 O   0  0  0  0  0  0  0  0  0  0  0  0
    3.1041    2.1194    0.0000 N   0  0  0  0  0  0  0  0  0  0  0  0
    3.1050    1.2904    0.0000 C   0  0  0  0  0  0  0  0  0  0  0  0
    3.8191    0.8844    0.0000 C   0  0  0  0  0  0  0  0  0  0  0  0
    4.5323    1.2998    0.0000 N   0  0  0  0  0  0  0  0  0  0  0  0
    4.5269    2.1257    0.0000 C   0  0  0  0  0  0  0  0  0  0  0  0
    3.8082    2.5363    0.0000 C   0  0  0  0  0  0  0  0  0  0  0  0
    5.2486    0.8917    0.0000 C   0  0  0  0  0  0  0  0  0  0  0  0
    5.2515    0.0656    0.0000 C   0  0  0  0  0  0  0  0  0  0  0  0
    5.9672   -0.3431    0.0000 C   0  0  0  0  0  0  0  0  0  0  0  0
    6.6806    0.0731    0.0000 C   0  0  0  0  0  0  0  0  0  0  0  0
    6.6736    0.9024    0.0000 C   0  0  0  0  0  0  0  0  0  0  0  0
    5.9573    1.3073    0.0000 C   0  0  0  0  0  0  0  0  0  0  0  0
    5.9508    2.1323    0.0000 C   0  0  0  0  0  0  0  0  0  0  0  0
    7.3845    1.3211    0.0000 C   0  0  0  0  0  0  0  0  0  0  0  0
 15 16  1  0
  7  8  1  0
 16 17  1  0
 17 18  1  0
  7  9  2  0
 17 19  1  0
  4  5  2  0
 18 20  1  0
 20 21  1  0
  8 10  2  0
  2  3  2  0
 10 11  1  0
  5  6  1  0
 11 12  2  0
 20 25  1  0
 21 22  1  0
 22 23  1  0
 23 24  1  0
 24 25  1  0
  6  1  2  0
 12 13  1  0
 26 27  2  0
  1  2  1  0
 27 28  1  0
 13 14  2  0
 28 29  2  0
 14  8  1  0
 29 30  1  0
  5  7  1  0
 30 31  2  0
 31 26  1  0
 23 26  1  0
 14 15  1  0
 31 32  1  0
  3  4  1  0
 30 33  1  0
M  END
>  <Classification>  (540) 
1

>  <pchembl>  (540) 
7.1

>  <InChI_steorem>  (540) 
InChI=1S/C28H32N2O3/c1-21-9-8-13-26(22(21)2)30-17-15-29(16-18-30)19-24(31)20-33-27-14-7-6-12-25(27)28(32)23-10-4-3-5-11-23/h3-14,24,31H,15-20H2,1-2H3

>  <source>  (540) 
ChEMBL25

>  <source_id>  (540) 
25

>  <optional_reference>  (540) 
10.1021/jm201705f

>  <optional_origin>  (540) 
None

>  <target>  (540) 
MDR1

$$$$

     RDKit          2D

 33 36  0  0  0  0  0  0  0  0999 V2000
   -3.9296    1.6500    0.0000 C   0  0  0  0  0  0  0  0  0  0  0  0
   -3.9296    2.4750    0.0000 O   0  0  0  0  0  0  0  0  0  0  0  0
   -4.6441    1.2375    0.0000 C   0  0  0  0  0  0  0  0  0  0  0  0
   -4.6441    0.4125    0.0000 C   0  0  0  0  0  0  0  0  0  0  0  0
   -5.3585    0.0000    0.0000 C   0  0  0  0  0  0  0  0  0  0  0  0
   -6.0730    0.4125    0.0000 C   0  0  0  0  0  0  0  0  0  0  0  0
   -6.0730    1.2375    0.0000 C   0  0  0  0  0  0  0  0  0  0  0  0
   -5.3585    1.6500    0.0000 C   0  0  0  0  0  0  0  0  0  0  0  0
   -3.2151    1.2375    0.0000 C   0  0  0  0  0  0  0  0  0  0  0  0
   -2.5006    1.6500    0.0000 C   0  0  0  0  0  0  0  0  0  0  0  0
   -1.7862    1.2375    0.0000 C   0  0  0  0  0  0  0  0  0  0  0  0
   -1.7862    0.4125    0.0000 C   0  0  0  0  0  0  0  0  0  0  0  0
   -2.5006    0.0000    0.0000 C   0  0  0  0  0  0  0  0  0  0  0  0
   -3.2151    0.4125    0.0000 C   0  0  0  0  0  0  0  0  0  0  0  0
   -1.0717    0.0000    0.0000 O   0  0  0  0  0  0  0  0  0  0  0  0
   -0.3572    0.4125    0.0000 C   0  0  0  0  0  0  0  0  0  0  0  0
    0.3572    0.0000    0.0000 C   0  0  0  0  0  0  0  0  0  0  0  0
    1.0717    0.4125    0.0000 C   0  0  0  0  0  0  0  0  0  0  0  0
    0.3572   -0.8250    0.0000 O   0  0  0  0  0  0  0  0  0  0  0  0
    1.7862    0.0000    0.0000 N   0  0  0  0  0  0  0  0  0  0  0  0
    2.5006    0.4125    0.0000 C   0  0  0  0  0  0  0  0  0  0  0  0
    3.2151    0.0000    0.0000 C   0  0  0  0  0  0  0  0  0  0  0  0
    3.2151   -0.8250    0.0000 N   0  0  0  0  0  0  0  0  0  0  0  0
    2.5006   -1.2375    0.0000 C   0  0  0  0  0  0  0  0  0  0  0  0
    1.7862   -0.8250    0.0000 C   0  0  0  0  0  0  0  0  0  0  0  0
    3.9296   -1.2375    0.0000 C   0  0  0  0  0  0  0  0  0  0  0  0
    4.6441   -0.8250    0.0000 C   0  0  0  0  0  0  0  0  0  0  0  0
    5.3585   -1.2375    0.0000 C   0  0  0  0  0  0  0  0  0  0  0  0
    5.3585   -2.0625    0.0000 C   0  0  0  0  0  0  0  0  0  0  0  0
    4.6441   -2.4750    0.0000 C   0  0  0  0  0  0  0  0  0  0  0  0
    3.9296   -2.0625    0.0000 C   0  0  0  0  0  0  0  0  0  0  0  0
    4.6441    0.0000    0.0000 C   0  0  0  0  0  0  0  0  0  0  0  0
    6.0730   -0.8250    0.0000 C   0  0  0  0  0  0  0  0  0  0  0  0
  1  2  2  0
  3  4  2  0
  4  5  1  0
  5  6  2  0
  6  7  1  0
  7  8  2  0
  3  8  1  0
  1  3  1  0
  9 10  2  0
 10 11  1  0
 11 12  2  0
 12 13  1  0
 13 14  2  0
  9 14  1  0
 16 17  1  0
 17 18  1  0
 15 16  1  0
 17 19  1  0
 20 21  1  0
 21 22  1  0
 22 23  1  0
 23 24  1  0
 24 25  1  0
 20 25  1  0
 26 27  2  0
 27 28  1  0
 28 29  2  0
 29 30  1  0
 30 31  2  0
 26 31  1  0
 27 32  1  0
 28 33  1  0
 23 26  1  0
 18 20  1  0
 12 15  1  0
  1  9  1  0
M  END
>  <Classification>  (541) 
1

>  <pchembl>  (541) 
6.19

>  <InChI_steorem>  (541) 
InChI=1S/C28H32N2O3/c1-21-7-6-10-27(22(21)2)30-17-15-29(16-18-30)19-25(31)20-33-26-13-11-24(12-14-26)28(32)23-8-4-3-5-9-23/h3-14,25,31H,15-20H2,1-2H3

>  <source>  (541) 
ChEMBL25

>  <source_id>  (541) 
25

>  <optional_reference>  (541) 
10.1021/jm201705f

>  <optional_origin>  (541) 
None

>  <target>  (541) 
MDR1

$$$$

     RDKit          2D

 35 38  0  0  0  0  0  0  0  0999 V2000
   -0.7116   -1.4413    0.0000 N   0  0  0  0  0  0  0  0  0  0  0  0
    0.0057   -1.8488    0.0000 C   0  0  0  0  0  0  0  0  0  0  0  0
    0.7173   -1.4314    0.0000 C   0  0  0  0  0  0  0  0  0  0  0  0
    0.7116   -0.6064    0.0000 N   0  0  0  0  0  0  0  0  0  0  0  0
   -0.0057   -0.1989    0.0000 C   0  0  0  0  0  0  0  0  0  0  0  0
   -0.7173   -0.6163    0.0000 C   0  0  0  0  0  0  0  0  0  0  0  0
   -1.4232   -1.8587    0.0000 C   0  0  0  0  0  0  0  0  0  0  0  0
   -1.4175   -2.6837    0.0000 O   0  0  0  0  0  0  0  0  0  0  0  0
   -2.1405   -1.4511    0.0000 N   0  0  0  0  0  0  0  0  0  0  0  0
   -2.8521   -1.8685    0.0000 C   0  0  0  0  0  0  0  0  0  0  0  0
   -3.5694   -1.4610    0.0000 C   0  0  0  0  0  0  0  0  0  0  0  0
   -4.2753   -2.7034    0.0000 C   0  0  0  0  0  0  0  0  0  0  0  0
   -2.8464   -2.6935    0.0000 C   0  0  0  0  0  0  0  0  0  0  0  0
   -4.2810   -1.8784    0.0000 C   0  0  0  0  0  0  0  0  0  0  0  0
   -3.5580   -3.1109    0.0000 C   0  0  0  0  0  0  0  0  0  0  0  0
   -4.9870   -3.1208    0.0000 C   0  0  0  0  0  0  0  0  0  0  0  0
    1.4232   -0.1890    0.0000 C   0  0  0  0  0  0  0  0  0  0  0  0
    2.1405   -0.5966    0.0000 C   0  0  0  0  0  0  0  0  0  0  0  0
    2.8521   -0.1791    0.0000 C   0  0  0  0  0  0  0  0  0  0  0  0
    2.1149   -1.4215    0.0000 O   0  0  0  0  0  0  0  0  0  0  0  0
    2.8464    0.6458    0.0000 O   0  0  0  0  0  0  0  0  0  0  0  0
    3.5580    1.0633    0.0000 C   0  0  0  0  0  0  0  0  0  0  0  0
    3.5524    1.8882    0.0000 C   0  0  0  0  0  0  0  0  0  0  0  0
    4.2640    2.3056    0.0000 C   0  0  0  0  0  0  0  0  0  0  0  0
    4.9813    1.8981    0.0000 C   0  0  0  0  0  0  0  0  0  0  0  0
    4.9870    1.0731    0.0000 C   0  0  0  0  0  0  0  0  0  0  0  0
    4.2753    0.6557    0.0000 C   0  0  0  0  0  0  0  0  0  0  0  0
    2.8351    2.2958    0.0000 C   0  0  0  0  0  0  0  0  0  0  0  0
    2.1234    1.8784    0.0000 C   0  0  0  0  0  0  0  0  0  0  0  0
    2.1291    1.0534    0.0000 C   0  0  0  0  0  0  0  0  0  0  0  0
    1.4175    0.6360    0.0000 C   0  0  0  0  0  0  0  0  0  0  0  0
    0.7002    1.0435    0.0000 C   0  0  0  0  0  0  0  0  0  0  0  0
    0.6945    1.8685    0.0000 C   0  0  0  0  0  0  0  0  0  0  0  0
    1.4062    2.2859    0.0000 C   0  0  0  0  0  0  0  0  0  0  0  0
    2.8294    3.1208    0.0000 O   0  0  0  0  0  0  0  0  0  0  0  0
  1  2  1  0
  2  3  1  0
  3  4  1  0
  4  5  1  0
  5  6  1  0
  1  6  1  0
  7  8  2  0
 10 11  2  0
 10 13  1  0
 11 14  1  0
 12 14  2  0
 12 15  1  0
 13 15  2  0
 12 16  1  0
  9 10  1  0
  7  9  1  0
  1  7  1  0
 17 18  1  0
 18 19  1  0
 18 20  1  0
 22 23  1  0
 23 24  2  0
 24 25  1  0
 25 26  2  0
 26 27  1  0
 22 27  2  0
 21 22  1  0
 28 29  1  0
 29 30  2  0
 30 31  1  0
 31 32  2  0
 32 33  1  0
 33 34  2  0
 29 34  1  0
 28 35  2  0
 23 28  1  0
 19 21  1  0
  4 17  1  0
M  END
>  <Classification>  (542) 
1

>  <pchembl>  (542) 
6.32

>  <InChI_steorem>  (542) 
InChI=1S/C28H31N3O4/c1-21-11-13-23(14-12-21)29-28(34)31-17-15-30(16-18-31)19-24(32)20-35-26-10-6-5-9-25(26)27(33)22-7-3-2-4-8-22/h2-14,24,32H,15-20H2,1H3,(H,29,34)

>  <source>  (542) 
ChEMBL25

>  <source_id>  (542) 
25

>  <optional_reference>  (542) 
10.1021/jm201705f

>  <optional_origin>  (542) 
None

>  <target>  (542) 
MDR1

$$$$

     RDKit          2D

 35 38  0  0  0  0  0  0  0  0999 V2000
   -0.7127   -1.4422    0.0000 N   0  0  0  0  0  0  0  0  0  0  0  0
    0.0035   -1.8516    0.0000 C   0  0  0  0  0  0  0  0  0  0  0  0
    0.7162   -1.4361    0.0000 C   0  0  0  0  0  0  0  0  0  0  0  0
    0.7127   -0.6111    0.0000 N   0  0  0  0  0  0  0  0  0  0  0  0
   -0.0035   -0.2017    0.0000 C   0  0  0  0  0  0  0  0  0  0  0  0
   -0.7162   -0.6172    0.0000 C   0  0  0  0  0  0  0  0  0  0  0  0
   -1.4254   -1.8578    0.0000 C   0  0  0  0  0  0  0  0  0  0  0  0
   -2.1416   -1.4483    0.0000 N   0  0  0  0  0  0  0  0  0  0  0  0
   -2.8543   -1.8639    0.0000 C   0  0  0  0  0  0  0  0  0  0  0  0
   -3.5706   -1.4544    0.0000 C   0  0  0  0  0  0  0  0  0  0  0  0
   -4.2797   -2.6950    0.0000 C   0  0  0  0  0  0  0  0  0  0  0  0
   -2.8508   -2.6889    0.0000 C   0  0  0  0  0  0  0  0  0  0  0  0
   -4.2833   -1.8700    0.0000 C   0  0  0  0  0  0  0  0  0  0  0  0
   -3.5635   -3.1044    0.0000 C   0  0  0  0  0  0  0  0  0  0  0  0
   -4.9924   -3.1105    0.0000 C   0  0  0  0  0  0  0  0  0  0  0  0
   -1.4219   -2.6828    0.0000 S   0  0  0  0  0  0  0  0  0  0  0  0
    1.4254   -0.1955    0.0000 C   0  0  0  0  0  0  0  0  0  0  0  0
    2.1416   -0.6050    0.0000 C   0  0  0  0  0  0  0  0  0  0  0  0
    2.8543   -0.1894    0.0000 C   0  0  0  0  0  0  0  0  0  0  0  0
    2.1452   -1.4300    0.0000 O   0  0  0  0  0  0  0  0  0  0  0  0
    2.8508    0.6356    0.0000 O   0  0  0  0  0  0  0  0  0  0  0  0
    3.5635    1.0511    0.0000 C   0  0  0  0  0  0  0  0  0  0  0  0
    3.5600    1.8761    0.0000 C   0  0  0  0  0  0  0  0  0  0  0  0
    4.2727    2.2917    0.0000 C   0  0  0  0  0  0  0  0  0  0  0  0
    4.9889    1.8822    0.0000 C   0  0  0  0  0  0  0  0  0  0  0  0
    4.9924    1.0572    0.0000 C   0  0  0  0  0  0  0  0  0  0  0  0
    4.2797    0.6417    0.0000 C   0  0  0  0  0  0  0  0  0  0  0  0
    2.8437    2.2855    0.0000 C   0  0  0  0  0  0  0  0  0  0  0  0
    2.1310    1.8700    0.0000 C   0  0  0  0  0  0  0  0  0  0  0  0
    2.1346    1.0450    0.0000 C   0  0  0  0  0  0  0  0  0  0  0  0
    1.4219    0.6294    0.0000 C   0  0  0  0  0  0  0  0  0  0  0  0
    0.7056    1.0389    0.0000 C   0  0  0  0  0  0  0  0  0  0  0  0
    0.7021    1.8639    0.0000 C   0  0  0  0  0  0  0  0  0  0  0  0
    1.4148    2.2794    0.0000 C   0  0  0  0  0  0  0  0  0  0  0  0
    2.8402    3.1105    0.0000 O   0  0  0  0  0  0  0  0  0  0  0  0
  1  2  1  0
  2  3  1  0
  3  4  1  0
  4  5  1  0
  5  6  1  0
  1  6  1  0
  9 10  2  0
  9 12  1  0
 10 13  1  0
 11 13  2  0
 11 14  1  0
 12 14  2  0
 11 15  1  0
  8  9  1  0
  7  8  1  0
  7 16  2  0
  1  7  1  0
 17 18  1  0
 18 19  1  0
 18 20  1  0
 22 23  1  0
 23 24  2  0
 24 25  1  0
 25 26  2  0
 26 27  1  0
 22 27  2  0
 21 22  1  0
 28 29  1  0
 29 30  2  0
 30 31  1  0
 31 32  2  0
 32 33  1  0
 33 34  2  0
 29 34  1  0
 28 35  2  0
 23 28  1  0
 19 21  1  0
  4 17  1  0
M  END
>  <Classification>  (543) 
1

>  <pchembl>  (543) 
6.42

>  <InChI_steorem>  (543) 
InChI=1S/C28H31N3O3S/c1-21-11-13-23(14-12-21)29-28(35)31-17-15-30(16-18-31)19-24(32)20-34-26-10-6-5-9-25(26)27(33)22-7-3-2-4-8-22/h2-14,24,32H,15-20H2,1H3,(H,29,35)

>  <source>  (543) 
ChEMBL25

>  <source_id>  (543) 
25

>  <optional_reference>  (543) 
10.1021/jm201705f

>  <optional_origin>  (543) 
None

>  <target>  (543) 
MDR1

$$$$

     RDKit          2D

 40 43  0  0  0  0  0  0  0  0999 V2000
    4.6410   -0.4578    0.0000 C   0  0  0  0  0  0  0  0  0  0  0  0
    5.3534   -0.8738    0.0000 C   0  0  0  0  0  0  0  0  0  0  0  0
    4.6450    0.3671    0.0000 C   0  0  0  0  0  0  0  0  0  0  0  0
    3.9326    0.7831    0.0000 C   0  0  0  0  0  0  0  0  0  0  0  0
    3.9366    1.6081    0.0000 C   0  0  0  0  0  0  0  0  0  0  0  0
    4.6531    2.0171    0.0000 C   0  0  0  0  0  0  0  0  0  0  0  0
    5.3655    1.6011    0.0000 C   0  0  0  0  0  0  0  0  0  0  0  0
    5.3615    0.7761    0.0000 C   0  0  0  0  0  0  0  0  0  0  0  0
    6.0820    2.0101    0.0000 C   0  0  0  0  0  0  0  0  0  0  0  0
    3.2161    0.3741    0.0000 O   0  0  0  0  0  0  0  0  0  0  0  0
    2.5036    0.7901    0.0000 C   0  0  0  0  0  0  0  0  0  0  0  0
    1.7872    0.3811    0.0000 C   0  0  0  0  0  0  0  0  0  0  0  0
    1.0747    0.7971    0.0000 C   0  0  0  0  0  0  0  0  0  0  0  0
    1.7831   -0.4439    0.0000 O   0  0  0  0  0  0  0  0  0  0  0  0
    0.3582    0.3881    0.0000 N   0  0  0  0  0  0  0  0  0  0  0  0
    0.3542   -0.4369    0.0000 C   0  0  0  0  0  0  0  0  0  0  0  0
   -0.3623   -0.8459    0.0000 C   0  0  0  0  0  0  0  0  0  0  0  0
   -1.0747   -0.4299    0.0000 N   0  0  0  0  0  0  0  0  0  0  0  0
   -1.0707    0.3951    0.0000 C   0  0  0  0  0  0  0  0  0  0  0  0
   -0.3542    0.8041    0.0000 C   0  0  0  0  0  0  0  0  0  0  0  0
   -1.7912   -0.8389    0.0000 C   0  0  0  0  0  0  0  0  0  0  0  0
   -2.5036   -0.4230    0.0000 C   0  0  0  0  0  0  0  0  0  0  0  0
   -3.2201   -0.8320    0.0000 C   0  0  0  0  0  0  0  0  0  0  0  0
   -2.4996    0.4020    0.0000 O   0  0  0  0  0  0  0  0  0  0  0  0
   -3.9326   -0.4160    0.0000 O   0  0  0  0  0  0  0  0  0  0  0  0
   -3.9285    0.4090    0.0000 C   0  0  0  0  0  0  0  0  0  0  0  0
   -4.6410    0.8250    0.0000 C   0  0  0  0  0  0  0  0  0  0  0  0
   -4.6370    1.6500    0.0000 C   0  0  0  0  0  0  0  0  0  0  0  0
   -3.9205    2.0590    0.0000 C   0  0  0  0  0  0  0  0  0  0  0  0
   -3.2080    1.6430    0.0000 C   0  0  0  0  0  0  0  0  0  0  0  0
   -3.2121    0.8180    0.0000 C   0  0  0  0  0  0  0  0  0  0  0  0
   -5.3575    0.4160    0.0000 C   0  0  0  0  0  0  0  0  0  0  0  0
   -5.3615   -0.4090    0.0000 C   0  0  0  0  0  0  0  0  0  0  0  0
   -4.6490   -0.8250    0.0000 C   0  0  0  0  0  0  0  0  0  0  0  0
   -4.6531   -1.6500    0.0000 C   0  0  0  0  0  0  0  0  0  0  0  0
   -5.3695   -2.0590    0.0000 C   0  0  0  0  0  0  0  0  0  0  0  0
   -6.0820   -1.6430    0.0000 C   0  0  0  0  0  0  0  0  0  0  0  0
   -6.0780   -0.8180    0.0000 C   0  0  0  0  0  0  0  0  0  0  0  0
   -6.0699    0.8320    0.0000 O   0  0  0  0  0  0  0  0  0  0  0  0
    3.9245   -0.8669    0.0000 O   0  0  0  0  0  0  0  0  0  0  0  0
  1  2  1  0
  3  4  2  0
  4  5  1  0
  5  6  2  0
  6  7  1  0
  7  8  2  0
  3  8  1  0
  7  9  1  0
 11 12  1  0
 12 13  1  0
 10 11  1  0
 12 14  1  0
 15 16  1  0
 16 17  1  0
 17 18  1  0
 18 19  1  0
 19 20  1  0
 15 20  1  0
 21 22  1  0
 22 23  1  0
 22 24  1  0
 26 27  1  0
 27 28  2  0
 28 29  1  0
 29 30  2  0
 30 31  1  0
 26 31  2  0
 25 26  1  0
 32 33  1  0
 33 34  2  0
 34 35  1  0
 35 36  2  0
 36 37  1  0
 37 38  2  0
 33 38  1  0
 32 39  2  0
 27 32  1  0
 23 25  1  0
 18 21  1  0
 13 15  1  0
  4 10  1  0
  1  3  1  0
  1 40  2  0
M  END
>  <Classification>  (544) 
1

>  <pchembl>  (544) 
5.02

>  <InChI_steorem>  (544) 
InChI=1S/C32H38N2O6/c1-23-12-13-31(29(18-23)24(2)35)40-22-27(37)20-34-16-14-33(15-17-34)19-26(36)21-39-30-11-7-6-10-28(30)32(38)25-8-4-3-5-9-25/h3-13,18,26-27,36-37H,14-17,19-22H2,1-2H3

>  <source>  (544) 
ChEMBL25

>  <source_id>  (544) 
25

>  <optional_reference>  (544) 
10.1021/jm201705f

>  <optional_origin>  (544) 
None

>  <target>  (544) 
MDR1

$$$$

     RDKit          2D

 44 48  0  0  0  0  0  0  0  0999 V2000
   -7.1238   -0.8648    0.0000 C   0  0  0  0  0  0  0  0  0  0  0  0
   -7.1250   -1.6921    0.0000 C   0  0  0  0  0  0  0  0  0  0  0  0
   -6.4102   -2.1050    0.0000 C   0  0  0  0  0  0  0  0  0  0  0  0
   -5.6937   -1.6917    0.0000 C   0  0  0  0  0  0  0  0  0  0  0  0
   -5.6966   -0.8611    0.0000 C   0  0  0  0  0  0  0  0  0  0  0  0
   -6.4120   -0.4520    0.0000 C   0  0  0  0  0  0  0  0  0  0  0  0
   -4.9837   -0.4459    0.0000 C   0  0  0  0  0  0  0  0  0  0  0  0
   -4.2677   -0.8557    0.0000 C   0  0  0  0  0  0  0  0  0  0  0  0
   -4.9868    0.3791    0.0000 O   0  0  0  0  0  0  0  0  0  0  0  0
   -4.2679   -1.6784    0.0000 C   0  0  0  0  0  0  0  0  0  0  0  0
   -3.5527   -2.0881    0.0000 C   0  0  0  0  0  0  0  0  0  0  0  0
   -2.8388   -1.6729    0.0000 C   0  0  0  0  0  0  0  0  0  0  0  0
   -2.8446   -0.8436    0.0000 C   0  0  0  0  0  0  0  0  0  0  0  0
   -3.5604   -0.4376    0.0000 C   0  0  0  0  0  0  0  0  0  0  0  0
   -3.5677    0.3873    0.0000 O   0  0  0  0  0  0  0  0  0  0  0  0
   -2.8570    0.8062    0.0000 C   0  0  0  0  0  0  0  0  0  0  0  0
   -2.1389    0.4001    0.0000 C   0  0  0  0  0  0  0  0  0  0  0  0
   -1.4281    0.8190    0.0000 C   0  0  0  0  0  0  0  0  0  0  0  0
   -0.7100    0.4129    0.0000 N   0  0  0  0  0  0  0  0  0  0  0  0
   -0.7090   -0.4160    0.0000 C   0  0  0  0  0  0  0  0  0  0  0  0
    0.0050   -0.8221    0.0000 C   0  0  0  0  0  0  0  0  0  0  0  0
    0.7182   -0.4067    0.0000 N   0  0  0  0  0  0  0  0  0  0  0  0
    0.7128    0.4193    0.0000 C   0  0  0  0  0  0  0  0  0  0  0  0
   -0.0058    0.8298    0.0000 C   0  0  0  0  0  0  0  0  0  0  0  0
    1.4348   -0.8155    0.0000 C   0  0  0  0  0  0  0  0  0  0  0  0
    2.1471   -0.3993    0.0000 C   0  0  0  0  0  0  0  0  0  0  0  0
    2.8637   -0.8081    0.0000 C   0  0  0  0  0  0  0  0  0  0  0  0
    3.5761   -0.3919    0.0000 O   0  0  0  0  0  0  0  0  0  0  0  0
    4.2927   -0.8007    0.0000 C   0  0  0  0  0  0  0  0  0  0  0  0
    4.2916   -1.6242    0.0000 C   0  0  0  0  0  0  0  0  0  0  0  0
    5.0073   -2.0330    0.0000 C   0  0  0  0  0  0  0  0  0  0  0  0
    5.7207   -1.6167    0.0000 C   0  0  0  0  0  0  0  0  0  0  0  0
    5.7137   -0.7875    0.0000 C   0  0  0  0  0  0  0  0  0  0  0  0
    4.9974   -0.3825    0.0000 C   0  0  0  0  0  0  0  0  0  0  0  0
    4.9888    0.4425    0.0000 C   0  0  0  0  0  0  0  0  0  0  0  0
    5.6989    0.8624    0.0000 C   0  0  0  0  0  0  0  0  0  0  0  0
    4.2700    0.8474    0.0000 O   0  0  0  0  0  0  0  0  0  0  0  0
    6.4153    0.4551    0.0000 C   0  0  0  0  0  0  0  0  0  0  0  0
    7.1250    0.8744    0.0000 C   0  0  0  0  0  0  0  0  0  0  0  0
    7.1167    1.7002    0.0000 C   0  0  0  0  0  0  0  0  0  0  0  0
    6.3930    2.1050    0.0000 C   0  0  0  0  0  0  0  0  0  0  0  0
    5.6863    1.6834    0.0000 C   0  0  0  0  0  0  0  0  0  0  0  0
   -2.1315   -0.4248    0.0000 O   0  0  0  0  0  0  0  0  0  0  0  0
    2.1429    0.4257    0.0000 O   0  0  0  0  0  0  0  0  0  0  0  0
  2  3  2  0
 10 11  2  0
  5  6  1  0
 11 12  1  0
 19 24  1  0
 20 21  1  0
 21 22  1  0
 22 23  1  0
 23 24  1  0
  6  1  2  0
 22 25  1  0
 12 13  2  0
 25 26  1  0
  1  2  1  0
 26 27  1  0
 13 14  1  0
 14  8  2  0
 27 28  1  0
  5  7  1  0
 28 29  1  0
 14 15  1  0
 29 30  2  0
  3  4  1  0
 30 31  1  0
 15 16  1  0
 31 32  2  0
  7  8  1  0
 32 33  1  0
 16 17  1  0
 33 34  2  0
 34 29  1  0
 17 18  1  0
  7  9  2  0
  4  5  2  0
 18 19  1  0
 19 20  1  0
  8 10  1  0
 34 35  1  0
 35 36  1  0
 35 37  2  0
 36 38  2  0
 38 39  1  0
 39 40  2  0
 40 41  1  0
 41 42  2  0
 42 36  1  0
 17 43  1  0
 26 44  1  0
M  END
>  <Classification>  (545) 
1

>  <pchembl>  (545) 
7.3

>  <InChI_steorem>  (545) 
InChI=1S/C36H38N2O6/c39-29(25-43-33-17-9-7-15-31(33)35(41)27-11-3-1-4-12-27)23-37-19-21-38(22-20-37)24-30(40)26-44-34-18-10-8-16-32(34)36(42)28-13-5-2-6-14-28/h1-18,29-30,39-40H,19-26H2

>  <source>  (545) 
ChEMBL25

>  <source_id>  (545) 
25

>  <optional_reference>  (545) 
10.1021/jm201705f

>  <optional_origin>  (545) 
None

>  <target>  (545) 
MDR1

$$$$

     RDKit          2D

 21 22  0  0  0  0  0  0  0  0999 V2000
    4.1460   -3.1312    0.0000 C   0  0  0  0  0  0  0  0  0  0  0  0
    4.8618   -3.5437    0.0000 C   0  0  0  0  0  0  0  0  0  0  0  0
    5.5735   -3.1312    0.0000 C   0  0  0  0  0  0  0  0  0  0  0  0
    4.1460   -2.3062    0.0000 O   0  0  0  0  0  0  0  0  0  0  0  0
    3.4301   -3.5437    0.0000 C   0  0  0  0  0  0  0  0  0  0  0  0
    3.4301   -4.3687    0.0000 C   0  0  0  0  0  0  0  0  0  0  0  0
    2.7184   -4.7812    0.0000 C   0  0  0  0  0  0  0  0  0  0  0  0
    2.0025   -4.3687    0.0000 C   0  0  0  0  0  0  0  0  0  0  0  0
    2.0025   -3.5437    0.0000 C   0  0  0  0  0  0  0  0  0  0  0  0
    2.7184   -3.1312    0.0000 C   0  0  0  0  0  0  0  0  0  0  0  0
    6.2894   -3.5437    0.0000 C   0  0  0  0  0  0  0  0  0  0  0  0
    6.2894   -4.3687    0.0000 C   0  0  0  0  0  0  0  0  0  0  0  0
    7.0052   -4.7812    0.0000 C   0  0  0  0  0  0  0  0  0  0  0  0
    7.7169   -4.3687    0.0000 C   0  0  0  0  0  0  0  0  0  0  0  0
    7.7169   -3.5437    0.0000 C   0  0  0  0  0  0  0  0  0  0  0  0
    7.0052   -3.1312    0.0000 C   0  0  0  0  0  0  0  0  0  0  0  0
    7.0052   -2.3062    0.0000 C   0  0  0  0  0  0  0  0  0  0  0  0
    8.4327   -4.7812    0.0000 C   0  0  0  0  0  0  0  0  0  0  0  0
    5.5735   -4.7812    0.0000 C   0  0  0  0  0  0  0  0  0  0  0  0
    2.7194   -2.3062    0.0000 O   0  0  0  0  0  0  0  0  0  0  0  0
    3.4344   -1.8946    0.0000 C   0  0  0  0  0  0  0  0  0  0  0  0
  1  2  1  0
  2  3  2  3
  1  4  2  0
  5  6  2  0
  6  7  1  0
  7  8  2  0
  8  9  1  0
  9 10  2  0
  5 10  1  0
  1  5  1  0
 11 12  2  0
 12 13  1  0
 13 14  2  0
 14 15  1  0
 15 16  2  0
 11 16  1  0
 16 17  1  0
 14 18  1  0
 12 19  1  0
  3 11  1  0
 10 20  1  0
 20 21  1  0
M  END
>  <Classification>  (546) 
1

>  <pchembl>  (546) 
5.07

>  <InChI_steorem>  (546) 
InChI=1S/C19H20O2/c1-13-11-14(2)16(15(3)12-13)9-10-18(20)17-7-5-6-8-19(17)21-4/h5-12H,1-4H3

>  <source>  (546) 
ChEMBL25

>  <source_id>  (546) 
25

>  <optional_reference>  (546) 
10.1016/j.bmc.2014.02.005

>  <optional_origin>  (546) 
None

>  <target>  (546) 
MDR1

$$$$

     RDKit          2D

 22 23  0  0  0  0  0  0  0  0999 V2000
    5.2667   -3.4270    0.0000 C   0  0  0  0  0  0  0  0  0  0  0  0
    5.9826   -3.8395    0.0000 C   0  0  0  0  0  0  0  0  0  0  0  0
    6.6942   -3.4270    0.0000 C   0  0  0  0  0  0  0  0  0  0  0  0
    4.5509   -3.8395    0.0000 C   0  0  0  0  0  0  0  0  0  0  0  0
    4.5509   -4.6644    0.0000 C   0  0  0  0  0  0  0  0  0  0  0  0
    3.8391   -5.0769    0.0000 C   0  0  0  0  0  0  0  0  0  0  0  0
    3.1233   -4.6644    0.0000 C   0  0  0  0  0  0  0  0  0  0  0  0
    3.1233   -3.8395    0.0000 C   0  0  0  0  0  0  0  0  0  0  0  0
    3.8391   -3.4270    0.0000 C   0  0  0  0  0  0  0  0  0  0  0  0
    7.4101   -3.8395    0.0000 C   0  0  0  0  0  0  0  0  0  0  0  0
    7.4060   -4.6646    0.0000 C   0  0  0  0  0  0  0  0  0  0  0  0
    8.1211   -5.0771    0.0000 C   0  0  0  0  0  0  0  0  0  0  0  0
    8.8372   -4.6633    0.0000 C   0  0  0  0  0  0  0  0  0  0  0  0
    8.8339   -3.8329    0.0000 C   0  0  0  0  0  0  0  0  0  0  0  0
    8.1182   -3.4242    0.0000 C   0  0  0  0  0  0  0  0  0  0  0  0
    9.5465   -3.4173    0.0000 C   0  0  0  0  0  0  0  0  0  0  0  0
   10.2628   -3.8266    0.0000 O   0  0  0  0  0  0  0  0  0  0  0  0
    3.8403   -2.6021    0.0000 O   0  0  0  0  0  0  0  0  0  0  0  0
    4.5552   -2.1905    0.0000 C   0  0  0  0  0  0  0  0  0  0  0  0
    8.1135   -2.5992    0.0000 O   0  0  0  0  0  0  0  0  0  0  0  0
    9.5429   -2.5923    0.0000 O   0  0  0  0  0  0  0  0  0  0  0  0
   10.9754   -3.4110    0.0000 C   0  0  0  0  0  0  0  0  0  0  0  0
  1  2  2  3
  2  3  1  0
  4  5  2  0
  5  6  1  0
  6  7  2  0
  7  8  1  0
  8  9  2  0
  4  9  1  0
  1  4  1  0
  3 10  2  3
 10 11  1  0
 11 12  1  0
 12 13  1  0
 13 14  1  0
 14 15  2  0
 15 10  1  0
 14 16  1  0
 16 17  1  0
  9 18  1  0
 18 19  1  0
 15 20  1  0
 16 21  2  0
 17 22  1  0
M  END
>  <Classification>  (547) 
0

>  <pchembl>  (547) 
4.69

>  <InChI_steorem>  (547) 
InChI=1S/C18H20O4/c1-21-16-12-4-3-7-13(16)8-5-9-14-10-6-11-15(17(14)19)18(20)22-2/h3-5,7-9,12,19H,6,10-11H2,1-2H3

>  <source>  (547) 
ChEMBL25

>  <source_id>  (547) 
25

>  <optional_reference>  (547) 
10.1016/j.bmc.2014.02.005

>  <optional_origin>  (547) 
None

>  <target>  (547) 
MDR1

$$$$

     RDKit          2D

 23 25  0  0  0  0  0  0  0  0999 V2000
    9.1836  -13.4048    0.0000 C   0  0  0  0  0  0  0  0  0  0  0  0
    9.6725  -14.0744    0.0000 C   0  0  0  0  0  0  0  0  0  0  0  0
    9.1836  -14.7399    0.0000 C   0  0  0  0  0  0  0  0  0  0  0  0
    8.4031  -14.4869    0.0000 C   0  0  0  0  0  0  0  0  0  0  0  0
    7.6874  -14.8994    0.0000 C   0  0  0  0  0  0  0  0  0  0  0  0
    6.9715  -14.4869    0.0000 C   0  0  0  0  0  0  0  0  0  0  0  0
    6.9715  -13.6620    0.0000 C   0  0  0  0  0  0  0  0  0  0  0  0
    7.6874  -13.2495    0.0000 C   0  0  0  0  0  0  0  0  0  0  0  0
    8.4032  -13.6620    0.0000 C   0  0  0  0  0  0  0  0  0  0  0  0
    9.4408  -12.6244    0.0000 O   0  0  0  0  0  0  0  0  0  0  0  0
   10.4975  -14.0744    0.0000 C   0  0  0  0  0  0  0  0  0  0  0  0
   10.9100  -14.7902    0.0000 C   0  0  0  0  0  0  0  0  0  0  0  0
   11.7350  -14.7902    0.0000 C   0  0  0  0  0  0  0  0  0  0  0  0
   12.1475  -15.5020    0.0000 C   0  0  0  0  0  0  0  0  0  0  0  0
   12.9725  -15.5020    0.0000 C   0  0  0  0  0  0  0  0  0  0  0  0
   13.3850  -16.2178    0.0000 C   0  0  0  0  0  0  0  0  0  0  0  0
   12.9725  -16.9296    0.0000 C   0  0  0  0  0  0  0  0  0  0  0  0
   12.1475  -16.9296    0.0000 C   0  0  0  0  0  0  0  0  0  0  0  0
   11.7350  -16.2178    0.0000 C   0  0  0  0  0  0  0  0  0  0  0  0
   13.3850  -14.7902    0.0000 O   0  0  0  0  0  0  0  0  0  0  0  0
   14.2100  -14.7902    0.0000 C   0  0  0  0  0  0  0  0  0  0  0  0
    6.2556  -14.8994    0.0000 O   0  0  0  0  0  0  0  0  0  0  0  0
    5.5439  -14.4869    0.0000 C   0  0  0  0  0  0  0  0  0  0  0  0
  1  2  1  0
  2  3  1  0
  3  4  1  0
  4  5  2  0
  5  6  1  0
  6  7  2  0
  7  8  1  0
  8  9  2  0
  1  9  1  0
  4  9  1  0
  1 10  2  0
 11 12  1  0
 12 13  2  3
 14 15  2  0
 15 16  1  0
 16 17  2  0
 17 18  1  0
 18 19  2  0
 14 19  1  0
 20 21  1  0
 15 20  1  0
 13 14  1  0
  2 11  2  3
 22 23  1  0
  6 22  1  0
M  END
>  <Classification>  (548) 
1

>  <pchembl>  (548) 
5.41

>  <InChI_steorem>  (548) 
InChI=1S/C20H18O3/c1-22-17-10-11-18-16(13-17)12-15(20(18)21)8-5-7-14-6-3-4-9-19(14)23-2/h3-11,13H,12H2,1-2H3

>  <source>  (548) 
ChEMBL25

>  <source_id>  (548) 
25

>  <optional_reference>  (548) 
10.1016/j.bmc.2014.02.005

>  <optional_origin>  (548) 
None

>  <target>  (548) 
MDR1

$$$$

     RDKit          2D

 24 25  0  0  0  0  0  0  0  0999 V2000
    9.1041  -11.2076    0.0000 C   0  0  0  0  0  0  0  0  0  0  0  0
    9.8199  -11.6201    0.0000 C   0  0  0  0  0  0  0  0  0  0  0  0
   10.5358  -11.2076    0.0000 C   0  0  0  0  0  0  0  0  0  0  0  0
    9.1041  -10.3826    0.0000 O   0  0  0  0  0  0  0  0  0  0  0  0
    8.3882  -11.6201    0.0000 C   0  0  0  0  0  0  0  0  0  0  0  0
    7.6765  -11.2076    0.0000 C   0  0  0  0  0  0  0  0  0  0  0  0
    6.9607  -11.6201    0.0000 C   0  0  0  0  0  0  0  0  0  0  0  0
    6.9607  -12.4451    0.0000 C   0  0  0  0  0  0  0  0  0  0  0  0
    7.6765  -12.8575    0.0000 C   0  0  0  0  0  0  0  0  0  0  0  0
    8.3882  -12.4451    0.0000 C   0  0  0  0  0  0  0  0  0  0  0  0
    7.6765  -13.6825    0.0000 O   0  0  0  0  0  0  0  0  0  0  0  0
    8.3882  -14.0950    0.0000 C   0  0  0  0  0  0  0  0  0  0  0  0
    6.2490  -12.8575    0.0000 O   0  0  0  0  0  0  0  0  0  0  0  0
    5.5331  -12.4451    0.0000 C   0  0  0  0  0  0  0  0  0  0  0  0
    6.2490  -11.2076    0.0000 O   0  0  0  0  0  0  0  0  0  0  0  0
    6.2490  -10.3826    0.0000 C   0  0  0  0  0  0  0  0  0  0  0  0
   11.2474  -11.6201    0.0000 C   0  0  0  0  0  0  0  0  0  0  0  0
   11.2474  -12.4451    0.0000 C   0  0  0  0  0  0  0  0  0  0  0  0
   11.9633  -12.8575    0.0000 C   0  0  0  0  0  0  0  0  0  0  0  0
   12.6750  -12.4451    0.0000 C   0  0  0  0  0  0  0  0  0  0  0  0
   12.6750  -11.6201    0.0000 C   0  0  0  0  0  0  0  0  0  0  0  0
   11.9633  -11.2076    0.0000 C   0  0  0  0  0  0  0  0  0  0  0  0
   10.5358  -12.8575    0.0000 S   0  0  0  0  0  0  0  0  0  0  0  0
   10.5358  -13.6825    0.0000 C   0  0  0  0  0  0  0  0  0  0  0  0
  1  2  1  0
  2  3  2  3
  1  4  2  0
  5  6  2  0
  6  7  1  0
  7  8  2  0
  8  9  1  0
  9 10  2  0
  5 10  1  0
 11 12  1  0
  9 11  1  0
 13 14  1  0
  8 13  1  0
 15 16  1  0
  7 15  1  0
  1  5  1  0
 17 18  2  0
 18 19  1  0
 19 20  2  0
 20 21  1  0
 21 22  2  0
 17 22  1  0
 23 24  1  0
 18 23  1  0
  3 17  1  0
M  END
>  <Classification>  (549) 
1

>  <pchembl>  (549) 
6.19

>  <InChI_steorem>  (549) 
InChI=1S/C19H20O4S/c1-21-16-11-14(12-17(22-2)19(16)23-3)15(20)10-9-13-7-5-6-8-18(13)24-4/h5-12H,1-4H3

>  <source>  (549) 
ChEMBL25

>  <source_id>  (549) 
25

>  <optional_reference>  (549) 
10.1016/j.bmc.2014.02.005

>  <optional_origin>  (549) 
None

>  <target>  (549) 
MDR1

$$$$

     RDKit          2D

 24 27  0  0  0  0  0  0  0  0999 V2000
    7.6691  -10.8504    0.0000 C   0  0  0  0  0  0  0  0  0  0  0  0
    8.3807  -11.2670    0.0000 C   0  0  0  0  0  0  0  0  0  0  0  0
    8.3807  -12.0920    0.0000 C   0  0  0  0  0  0  0  0  0  0  0  0
    7.6691  -12.5045    0.0000 C   0  0  0  0  0  0  0  0  0  0  0  0
    6.9532  -12.0920    0.0000 C   0  0  0  0  0  0  0  0  0  0  0  0
    6.2374  -12.5045    0.0000 C   0  0  0  0  0  0  0  0  0  0  0  0
    5.5215  -12.0920    0.0000 C   0  0  0  0  0  0  0  0  0  0  0  0
    5.5215  -11.2670    0.0000 C   0  0  0  0  0  0  0  0  0  0  0  0
    6.2374  -10.8504    0.0000 C   0  0  0  0  0  0  0  0  0  0  0  0
    6.9532  -11.2670    0.0000 C   0  0  0  0  0  0  0  0  0  0  0  0
    7.6691  -10.0254    0.0000 O   0  0  0  0  0  0  0  0  0  0  0  0
    9.0966  -10.8504    0.0000 C   0  0  0  0  0  0  0  0  0  0  0  0
    9.8083  -12.0920    0.0000 C   0  0  0  0  0  0  0  0  0  0  0  0
    9.8083  -11.2670    0.0000 C   0  0  0  0  0  0  0  0  0  0  0  0
   10.5242  -10.8504    0.0000 C   0  0  0  0  0  0  0  0  0  0  0  0
   11.2401  -11.2670    0.0000 C   0  0  0  0  0  0  0  0  0  0  0  0
   11.2401  -12.0920    0.0000 C   0  0  0  0  0  0  0  0  0  0  0  0
   11.9517  -12.5045    0.0000 C   0  0  0  0  0  0  0  0  0  0  0  0
   11.9517  -13.3295    0.0000 C   0  0  0  0  0  0  0  0  0  0  0  0
   11.2401  -13.7420    0.0000 C   0  0  0  0  0  0  0  0  0  0  0  0
   10.5242  -13.3295    0.0000 C   0  0  0  0  0  0  0  0  0  0  0  0
   10.5242  -12.5045    0.0000 C   0  0  0  0  0  0  0  0  0  0  0  0
    4.8098  -12.5045    0.0000 O   0  0  0  0  0  0  0  0  0  0  0  0
    4.0939  -12.0920    0.0000 C   0  0  0  0  0  0  0  0  0  0  0  0
  1  2  1  0
  2  3  1  0
  3  4  1  0
  4  5  1  0
  5  6  2  0
  6  7  1  0
  7  8  2  0
  8  9  1  0
  9 10  2  0
  1 10  1  0
  5 10  1  0
  1 11  2  0
 13 14  2  0
 14 15  1  0
 15 16  2  0
 16 17  1  0
 17 18  2  0
 18 19  1  0
 19 20  2  0
 20 21  1  0
 21 22  2  0
 13 22  1  0
 17 22  1  0
 12 14  1  0
  2 12  2  3
 23 24  1  0
  7 23  1  0
M  END
>  <Classification>  (550) 
1

>  <pchembl>  (550) 
5.45

>  <InChI_steorem>  (550) 
InChI=1S/C22H18O2/c1-24-20-10-11-21-18(14-20)8-9-19(22(21)23)13-15-6-7-16-4-2-3-5-17(16)12-15/h2-7,10-14H,8-9H2,1H3

>  <source>  (550) 
ChEMBL25

>  <source_id>  (550) 
25

>  <optional_reference>  (550) 
10.1016/j.bmc.2014.02.005

>  <optional_origin>  (550) 
None

>  <target>  (550) 
MDR1

$$$$

     RDKit          2D

 25 26  0  0  0  0  0  0  0  0999 V2000
   20.8915  -10.9523    0.0000 C   0  0  0  0  0  0  0  0  0  0  0  0
   21.6073  -11.3648    0.0000 C   0  0  0  0  0  0  0  0  0  0  0  0
   22.3232  -10.9523    0.0000 C   0  0  0  0  0  0  0  0  0  0  0  0
   23.0390  -11.3648    0.0000 C   0  0  0  0  0  0  0  0  0  0  0  0
   23.7508  -10.9523    0.0000 C   0  0  0  0  0  0  0  0  0  0  0  0
   20.8915  -10.1273    0.0000 O   0  0  0  0  0  0  0  0  0  0  0  0
   20.1798  -11.3648    0.0000 C   0  0  0  0  0  0  0  0  0  0  0  0
   19.4639  -10.9523    0.0000 C   0  0  0  0  0  0  0  0  0  0  0  0
   18.7522  -11.3648    0.0000 C   0  0  0  0  0  0  0  0  0  0  0  0
   18.7522  -12.1898    0.0000 C   0  0  0  0  0  0  0  0  0  0  0  0
   19.4639  -12.6023    0.0000 C   0  0  0  0  0  0  0  0  0  0  0  0
   20.1798  -12.1898    0.0000 C   0  0  0  0  0  0  0  0  0  0  0  0
   19.4639  -13.4272    0.0000 O   0  0  0  0  0  0  0  0  0  0  0  0
   18.7522  -13.8397    0.0000 C   0  0  0  0  0  0  0  0  0  0  0  0
   18.0363  -10.9523    0.0000 O   0  0  0  0  0  0  0  0  0  0  0  0
   18.0363  -10.1273    0.0000 C   0  0  0  0  0  0  0  0  0  0  0  0
   18.0363  -12.6023    0.0000 O   0  0  0  0  0  0  0  0  0  0  0  0
   24.4666  -11.3648    0.0000 C   0  0  0  0  0  0  0  0  0  0  0  0
   24.4666  -12.1898    0.0000 C   0  0  0  0  0  0  0  0  0  0  0  0
   25.1825  -12.6023    0.0000 C   0  0  0  0  0  0  0  0  0  0  0  0
   25.8941  -12.1898    0.0000 C   0  0  0  0  0  0  0  0  0  0  0  0
   25.8941  -11.3648    0.0000 C   0  0  0  0  0  0  0  0  0  0  0  0
   25.1825  -10.9523    0.0000 C   0  0  0  0  0  0  0  0  0  0  0  0
   23.7508  -12.6023    0.0000 O   0  0  0  0  0  0  0  0  0  0  0  0
   23.7508  -13.4272    0.0000 C   0  0  0  0  0  0  0  0  0  0  0  0
  1  2  1  0
  2  3  2  3
  3  4  1  0
  4  5  2  3
  1  6  2  0
  7  8  2  0
  8  9  1  0
  9 10  2  0
 10 11  1  0
 11 12  2  0
  7 12  1  0
 13 14  1  0
 11 13  1  0
 15 16  1  0
  9 15  1  0
 10 17  1  0
  1  7  1  0
 18 19  2  0
 19 20  1  0
 20 21  2  0
 21 22  1  0
 22 23  2  0
 18 23  1  0
 24 25  1  0
 19 24  1  0
  5 18  1  0
M  END
>  <Classification>  (551) 
0

>  <pchembl>  (551) 
4.92

>  <InChI_steorem>  (551) 
InChI=1S/C20H20O5/c1-23-17-11-7-5-9-14(17)8-4-6-10-16(21)15-12-18(24-2)20(22)19(13-15)25-3/h4-13,22H,1-3H3

>  <source>  (551) 
ChEMBL25

>  <source_id>  (551) 
25

>  <optional_reference>  (551) 
10.1016/j.bmc.2014.02.005

>  <optional_origin>  (551) 
None

>  <target>  (551) 
MDR1

$$$$

     RDKit          2D

 26 27  0  0  0  0  0  0  0  0999 V2000
   17.5714  -11.0378    0.0000 C   0  0  0  0  0  0  0  0  0  0  0  0
   18.2873  -11.4503    0.0000 C   0  0  0  0  0  0  0  0  0  0  0  0
   19.0032  -11.0378    0.0000 C   0  0  0  0  0  0  0  0  0  0  0  0
   19.7190  -11.4503    0.0000 C   0  0  0  0  0  0  0  0  0  0  0  0
   20.4307  -11.0378    0.0000 C   0  0  0  0  0  0  0  0  0  0  0  0
   17.5714  -10.2128    0.0000 O   0  0  0  0  0  0  0  0  0  0  0  0
   16.8598  -11.4503    0.0000 C   0  0  0  0  0  0  0  0  0  0  0  0
   16.1439  -11.0378    0.0000 C   0  0  0  0  0  0  0  0  0  0  0  0
   15.4322  -11.4503    0.0000 C   0  0  0  0  0  0  0  0  0  0  0  0
   15.4322  -12.2753    0.0000 C   0  0  0  0  0  0  0  0  0  0  0  0
   16.1439  -12.6878    0.0000 C   0  0  0  0  0  0  0  0  0  0  0  0
   16.8598  -12.2753    0.0000 C   0  0  0  0  0  0  0  0  0  0  0  0
   16.1439  -13.5128    0.0000 O   0  0  0  0  0  0  0  0  0  0  0  0
   16.8598  -13.9252    0.0000 C   0  0  0  0  0  0  0  0  0  0  0  0
   14.7163  -12.6878    0.0000 O   0  0  0  0  0  0  0  0  0  0  0  0
   14.0005  -12.2753    0.0000 C   0  0  0  0  0  0  0  0  0  0  0  0
   14.7163  -11.0378    0.0000 O   0  0  0  0  0  0  0  0  0  0  0  0
   14.7163  -10.2128    0.0000 C   0  0  0  0  0  0  0  0  0  0  0  0
   21.1465  -11.4503    0.0000 C   0  0  0  0  0  0  0  0  0  0  0  0
   21.1465  -12.2753    0.0000 C   0  0  0  0  0  0  0  0  0  0  0  0
   21.8583  -12.6878    0.0000 C   0  0  0  0  0  0  0  0  0  0  0  0
   22.5741  -12.2753    0.0000 C   0  0  0  0  0  0  0  0  0  0  0  0
   22.5741  -11.4503    0.0000 C   0  0  0  0  0  0  0  0  0  0  0  0
   21.8583  -11.0378    0.0000 C   0  0  0  0  0  0  0  0  0  0  0  0
   20.4307  -12.6878    0.0000 S   0  0  0  0  0  0  0  0  0  0  0  0
   20.4307  -13.5128    0.0000 C   0  0  0  0  0  0  0  0  0  0  0  0
  1  2  1  0
  2  3  2  3
  3  4  1  0
  4  5  2  3
  1  6  2  0
  7  8  2  0
  8  9  1  0
  9 10  2  0
 10 11  1  0
 11 12  2  0
  7 12  1  0
 13 14  1  0
 11 13  1  0
 15 16  1  0
 10 15  1  0
 17 18  1  0
  9 17  1  0
  1  7  1  0
 19 20  2  0
 20 21  1  0
 21 22  2  0
 22 23  1  0
 23 24  2  0
 19 24  1  0
 25 26  1  0
 20 25  1  0
  5 19  1  0
M  END
>  <Classification>  (552) 
1

>  <pchembl>  (552) 
6.06

>  <InChI_steorem>  (552) 
InChI=1S/C21H22O4S/c1-23-18-13-16(14-19(24-2)21(18)25-3)17(22)11-7-5-9-15-10-6-8-12-20(15)26-4/h5-14H,1-4H3

>  <source>  (552) 
ChEMBL25

>  <source_id>  (552) 
25

>  <optional_reference>  (552) 
10.1016/j.bmc.2014.02.005

>  <optional_origin>  (552) 
None

>  <target>  (552) 
MDR1

$$$$

     RDKit          2D

 26 27  0  0  0  0  0  0  0  0999 V2000
    9.0528  -10.3607    0.0000 C   0  0  0  0  0  0  0  0  0  0  0  0
    9.7645  -10.7732    0.0000 C   0  0  0  0  0  0  0  0  0  0  0  0
   10.4803  -10.3607    0.0000 C   0  0  0  0  0  0  0  0  0  0  0  0
   11.1962  -10.7732    0.0000 C   0  0  0  0  0  0  0  0  0  0  0  0
   11.9079  -10.3607    0.0000 C   0  0  0  0  0  0  0  0  0  0  0  0
    9.0528   -9.5357    0.0000 O   0  0  0  0  0  0  0  0  0  0  0  0
    8.3369  -10.7732    0.0000 C   0  0  0  0  0  0  0  0  0  0  0  0
    7.6211  -10.3607    0.0000 C   0  0  0  0  0  0  0  0  0  0  0  0
    6.9094  -10.7732    0.0000 C   0  0  0  0  0  0  0  0  0  0  0  0
    6.9094  -11.5982    0.0000 C   0  0  0  0  0  0  0  0  0  0  0  0
    7.6211  -12.0107    0.0000 C   0  0  0  0  0  0  0  0  0  0  0  0
    8.3369  -11.5982    0.0000 C   0  0  0  0  0  0  0  0  0  0  0  0
    7.6211  -12.8357    0.0000 O   0  0  0  0  0  0  0  0  0  0  0  0
    8.3369  -13.2482    0.0000 C   0  0  0  0  0  0  0  0  0  0  0  0
    6.1936  -12.0107    0.0000 O   0  0  0  0  0  0  0  0  0  0  0  0
    5.4777  -11.5982    0.0000 C   0  0  0  0  0  0  0  0  0  0  0  0
    6.1936  -10.3607    0.0000 O   0  0  0  0  0  0  0  0  0  0  0  0
    6.1936   -9.5357    0.0000 C   0  0  0  0  0  0  0  0  0  0  0  0
   12.6238  -10.7732    0.0000 C   0  0  0  0  0  0  0  0  0  0  0  0
   12.6238  -11.5982    0.0000 C   0  0  0  0  0  0  0  0  0  0  0  0
   13.3396  -12.0107    0.0000 C   0  0  0  0  0  0  0  0  0  0  0  0
   14.0512  -11.5982    0.0000 C   0  0  0  0  0  0  0  0  0  0  0  0
   14.0512  -10.7732    0.0000 C   0  0  0  0  0  0  0  0  0  0  0  0
   13.3396  -10.3607    0.0000 C   0  0  0  0  0  0  0  0  0  0  0  0
   11.9079  -12.0107    0.0000 O   0  0  0  0  0  0  0  0  0  0  0  0
   11.9079  -12.8357    0.0000 C   0  0  0  0  0  0  0  0  0  0  0  0
  1  2  1  0
  2  3  2  3
  3  4  1  0
  4  5  2  3
  1  6  2  0
  7  8  2  0
  8  9  1  0
  9 10  2  0
 10 11  1  0
 11 12  2  0
  7 12  1  0
 13 14  1  0
 11 13  1  0
 15 16  1  0
 10 15  1  0
 17 18  1  0
  9 17  1  0
  1  7  1  0
 19 20  2  0
 20 21  1  0
 21 22  2  0
 22 23  1  0
 23 24  2  0
 19 24  1  0
 25 26  1  0
 20 25  1  0
  5 19  1  0
M  END
>  <Classification>  (553) 
1

>  <pchembl>  (553) 
5.86

>  <InChI_steorem>  (553) 
InChI=1S/C21H22O5/c1-23-18-12-8-6-10-15(18)9-5-7-11-17(22)16-13-19(24-2)21(26-4)20(14-16)25-3/h5-14H,1-4H3

>  <source>  (553) 
ChEMBL25

>  <source_id>  (553) 
25

>  <optional_reference>  (553) 
10.1016/j.bmc.2014.02.005

>  <optional_origin>  (553) 
None

>  <target>  (553) 
MDR1

$$$$

     RDKit          2D

 26 28  0  0  0  0  0  0  0  0999 V2000
   16.5924   -3.0942    0.0000 C   0  0  0  0  0  0  0  0  0  0  0  0
   17.3006   -3.5186    0.0000 C   0  0  0  0  0  0  0  0  0  0  0  0
   17.2812   -4.3435    0.0000 C   0  0  0  0  0  0  0  0  0  0  0  0
   16.6076   -2.2693    0.0000 O   0  0  0  0  0  0  0  0  0  0  0  0
   17.9893   -4.7679    0.0000 C   0  0  0  0  0  0  0  0  0  0  0  0
   18.7126   -4.3718    0.0000 C   0  0  0  0  0  0  0  0  0  0  0  0
   19.4208   -4.7962    0.0000 C   0  0  0  0  0  0  0  0  0  0  0  0
   19.4014   -5.6210    0.0000 C   0  0  0  0  0  0  0  0  0  0  0  0
   18.6823   -6.0214    0.0000 C   0  0  0  0  0  0  0  0  0  0  0  0
   18.6671   -6.8462    0.0000 C   0  0  0  0  0  0  0  0  0  0  0  0
   17.9438   -7.2424    0.0000 C   0  0  0  0  0  0  0  0  0  0  0  0
   17.2357   -6.8180    0.0000 C   0  0  0  0  0  0  0  0  0  0  0  0
   17.2550   -5.9931    0.0000 C   0  0  0  0  0  0  0  0  0  0  0  0
   17.9742   -5.5928    0.0000 C   0  0  0  0  0  0  0  0  0  0  0  0
   20.1095   -6.0497    0.0000 O   0  0  0  0  0  0  0  0  0  0  0  0
   20.8328   -5.6492    0.0000 C   0  0  0  0  0  0  0  0  0  0  0  0
   15.8691   -3.4905    0.0000 C   0  0  0  0  0  0  0  0  0  0  0  0
   15.8540   -4.3152    0.0000 C   0  0  0  0  0  0  0  0  0  0  0  0
   15.1306   -4.7156    0.0000 C   0  0  0  0  0  0  0  0  0  0  0  0
   14.4267   -4.2912    0.0000 C   0  0  0  0  0  0  0  0  0  0  0  0
   14.4418   -3.4663    0.0000 C   0  0  0  0  0  0  0  0  0  0  0  0
   15.1651   -3.0660    0.0000 C   0  0  0  0  0  0  0  0  0  0  0  0
   13.7034   -4.6916    0.0000 O   0  0  0  0  0  0  0  0  0  0  0  0
   12.9952   -4.2629    0.0000 C   0  0  0  0  0  0  0  0  0  0  0  0
   15.1155   -5.5405    0.0000 O   0  0  0  0  0  0  0  0  0  0  0  0
   14.3963   -5.9408    0.0000 C   0  0  0  0  0  0  0  0  0  0  0  0
  1  2  1  0
  2  3  2  3
  1  4  2  0
  5  6  2  0
  6  7  1  0
  7  8  2  0
  8  9  1  0
  9 10  2  0
 10 11  1  0
 11 12  2  0
 12 13  1  0
 13 14  2  0
  5 14  1  0
  9 14  1  0
 15 16  1  0
  8 15  1  0
  3  5  1  0
 17 18  2  0
 18 19  1  0
 19 20  2  0
 20 21  1  0
 21 22  2  0
 17 22  1  0
 23 24  1  0
 20 23  1  0
 25 26  1  0
 19 25  1  0
  1 17  1  0
M  END
>  <Classification>  (554) 
1

>  <pchembl>  (554) 
5.56

>  <InChI_steorem>  (554) 
InChI=1S/C22H20O4/c1-24-20-12-9-15(17-6-4-5-7-18(17)20)8-11-19(23)16-10-13-21(25-2)22(14-16)26-3/h4-14H,1-3H3

>  <source>  (554) 
ChEMBL25

>  <source_id>  (554) 
25

>  <optional_reference>  (554) 
10.1016/j.bmc.2014.02.005

>  <optional_origin>  (554) 
None

>  <target>  (554) 
MDR1

$$$$

     RDKit          2D

 26 28  0  0  0  0  0  0  0  0999 V2000
    6.5226   -5.6057    0.0000 C   0  0  0  0  0  0  0  0  0  0  0  0
    5.2855   -6.3214    0.0000 C   0  0  0  0  0  0  0  0  0  0  0  0
    3.6360   -6.3214    0.0000 C   0  0  0  0  0  0  0  0  0  0  0  0
   10.9872   -5.8526    0.0000 C   0  0  0  0  0  0  0  0  0  0  0  0
    8.1288   -4.2032    0.0000 C   0  0  0  0  0  0  0  0  0  0  0  0
   10.2716   -5.4402    0.0000 C   0  0  0  0  0  0  0  0  0  0  0  0
    6.6589   -4.2781    0.0000 C   0  0  0  0  0  0  0  0  0  0  0  0
   12.4143   -4.2032    0.0000 O   0  0  0  0  0  0  0  0  0  0  0  0
    6.1103   -4.8942    0.0000 C   0  0  0  0  0  0  0  0  0  0  0  0
    7.3284   -5.4375    0.0000 C   0  0  0  0  0  0  0  0  0  0  0  0
    6.4908   -3.4723    0.0000 O   0  0  0  0  0  0  0  0  0  0  0  0
    9.5560   -4.2032    0.0000 C   0  0  0  0  0  0  0  0  0  0  0  0
    5.2855   -4.8942    0.0000 C   0  0  0  0  0  0  0  0  0  0  0  0
    7.4132   -4.6155    0.0000 C   0  0  0  0  0  0  0  0  0  0  0  0
   13.1299   -4.6155    0.0000 C   0  0  0  0  0  0  0  0  0  0  0  0
    6.1103   -6.3214    0.0000 C   0  0  0  0  0  0  0  0  0  0  0  0
    4.0483   -5.6057    0.0000 O   0  0  0  0  0  0  0  0  0  0  0  0
   11.6986   -4.6155    0.0000 C   0  0  0  0  0  0  0  0  0  0  0  0
   11.6986   -5.4402    0.0000 C   0  0  0  0  0  0  0  0  0  0  0  0
    4.8731   -5.6057    0.0000 C   0  0  0  0  0  0  0  0  0  0  0  0
   12.4143   -5.8526    0.0000 O   0  0  0  0  0  0  0  0  0  0  0  0
    4.8731   -4.1787    0.0000 O   0  0  0  0  0  0  0  0  0  0  0  0
   10.2716   -4.6155    0.0000 C   0  0  0  0  0  0  0  0  0  0  0  0
    4.0483   -4.1787    0.0000 C   0  0  0  0  0  0  0  0  0  0  0  0
    8.8444   -4.6155    0.0000 C   0  0  0  0  0  0  0  0  0  0  0  0
   10.9872   -4.2032    0.0000 C   0  0  0  0  0  0  0  0  0  0  0  0
 25 12  2  3
 19  4  2  0
  8 15  1  0
  7 11  2  0
 16  2  2  0
 22 24  1  0
 13 22  1  0
  7  9  1  0
 23  6  2  0
 18  8  1  0
 17  3  1  0
 20 17  1  0
  2 20  1  0
 23 26  1  0
 19 21  1  0
  1  9  2  0
  1 16  1  0
  7 14  1  0
 14  5  2  3
 26 18  2  0
 20 13  2  0
  5 25  1  0
  4  6  1  0
 18 19  1  0
 13  9  1  0
 10  1  1  0
 14 10  1  0
 12 23  1  0
M  END
>  <Classification>  (555) 
1

>  <pchembl>  (555) 
5.63

>  <InChI_steorem>  (555) 
InChI=1S/C21H20O5/c1-24-17-10-8-14-12-15(20(23)19(14)21(17)26-3)6-4-5-13-7-9-16(22)18(11-13)25-2/h4-11,22H,12H2,1-3H3

>  <source>  (555) 
ChEMBL25

>  <source_id>  (555) 
25

>  <optional_reference>  (555) 
10.1016/j.bmc.2014.02.005

>  <optional_origin>  (555) 
None

>  <target>  (555) 
MDR1

$$$$

     RDKit          2D

 26 28  0  0  0  0  0  0  0  0999 V2000
    9.8888  -17.1287    0.0000 C   0  0  0  0  0  0  0  0  0  0  0  0
   10.6426  -17.4619    0.0000 C   0  0  0  0  0  0  0  0  0  0  0  0
   10.5579  -18.2835    0.0000 C   0  0  0  0  0  0  0  0  0  0  0  0
    9.7483  -18.4515    0.0000 C   0  0  0  0  0  0  0  0  0  0  0  0
    9.3361  -19.1668    0.0000 C   0  0  0  0  0  0  0  0  0  0  0  0
    8.5119  -19.1668    0.0000 C   0  0  0  0  0  0  0  0  0  0  0  0
    8.0997  -18.4515    0.0000 C   0  0  0  0  0  0  0  0  0  0  0  0
    8.5119  -17.7405    0.0000 C   0  0  0  0  0  0  0  0  0  0  0  0
    9.3361  -17.7405    0.0000 C   0  0  0  0  0  0  0  0  0  0  0  0
    9.7165  -16.3192    0.0000 O   0  0  0  0  0  0  0  0  0  0  0  0
    7.2754  -18.4515    0.0000 O   0  0  0  0  0  0  0  0  0  0  0  0
    6.8632  -19.1668    0.0000 C   0  0  0  0  0  0  0  0  0  0  0  0
    8.0997  -19.8821    0.0000 O   0  0  0  0  0  0  0  0  0  0  0  0
    7.2754  -19.8821    0.0000 C   0  0  0  0  0  0  0  0  0  0  0  0
   11.3537  -17.0497    0.0000 C   0  0  0  0  0  0  0  0  0  0  0  0
   12.0689  -17.4619    0.0000 C   0  0  0  0  0  0  0  0  0  0  0  0
   12.7842  -17.0497    0.0000 C   0  0  0  0  0  0  0  0  0  0  0  0
   13.4954  -17.4619    0.0000 C   0  0  0  0  0  0  0  0  0  0  0  0
   14.2107  -17.0497    0.0000 C   0  0  0  0  0  0  0  0  0  0  0  0
   14.9260  -17.4619    0.0000 C   0  0  0  0  0  0  0  0  0  0  0  0
   14.9260  -18.2862    0.0000 C   0  0  0  0  0  0  0  0  0  0  0  0
   14.2107  -18.6984    0.0000 C   0  0  0  0  0  0  0  0  0  0  0  0
   13.4954  -18.2862    0.0000 C   0  0  0  0  0  0  0  0  0  0  0  0
   15.6412  -18.6984    0.0000 N   0  0  0  0  0  0  0  0  0  0  0  0
   16.3523  -18.2862    0.0000 C   0  0  0  0  0  0  0  0  0  0  0  0
   15.6412  -19.5227    0.0000 C   0  0  0  0  0  0  0  0  0  0  0  0
  1  2  1  0
  2  3  1  0
  3  4  1  0
  4  5  2  0
  5  6  1  0
  6  7  2  0
  7  8  1  0
  8  9  2  0
  1  9  1  0
  4  9  1  0
  1 10  2  0
 11 12  1  0
  7 11  1  0
 13 14  1  0
  6 13  1  0
 15 16  1  0
 16 17  2  3
 18 19  2  0
 19 20  1  0
 20 21  2  0
 21 22  1  0
 22 23  2  0
 18 23  1  0
 24 25  1  0
 24 26  1  0
 21 24  1  0
 17 18  1  0
  2 15  2  3
M  END
>  <Classification>  (556) 
1

>  <pchembl>  (556) 
7.37

>  <InChI_steorem>  (556) 
InChI=1S/C22H23NO3/c1-23(2)18-10-8-15(9-11-18)6-5-7-16-12-17-13-20(25-3)21(26-4)14-19(17)22(16)24/h5-11,13-14H,12H2,1-4H3

>  <source>  (556) 
ChEMBL25

>  <source_id>  (556) 
25

>  <optional_reference>  (556) 
10.1016/j.bmc.2014.02.005

>  <optional_origin>  (556) 
None

>  <target>  (556) 
MDR1

$$$$

     RDKit          2D

 27 29  0  0  0  0  0  0  0  0999 V2000
   23.2619  -12.9381    0.0000 C   0  0  0  0  0  0  0  0  0  0  0  0
   24.0153  -13.2752    0.0000 C   0  0  0  0  0  0  0  0  0  0  0  0
   23.9306  -14.0922    0.0000 C   0  0  0  0  0  0  0  0  0  0  0  0
   23.1215  -14.2644    0.0000 C   0  0  0  0  0  0  0  0  0  0  0  0
   22.7097  -14.9793    0.0000 C   0  0  0  0  0  0  0  0  0  0  0  0
   21.8858  -14.9793    0.0000 C   0  0  0  0  0  0  0  0  0  0  0  0
   21.4739  -14.2644    0.0000 C   0  0  0  0  0  0  0  0  0  0  0  0
   21.8858  -13.5495    0.0000 C   0  0  0  0  0  0  0  0  0  0  0  0
   22.7097  -13.5495    0.0000 C   0  0  0  0  0  0  0  0  0  0  0  0
   23.0897  -12.1332    0.0000 O   0  0  0  0  0  0  0  0  0  0  0  0
   24.7302  -12.8633    0.0000 C   0  0  0  0  0  0  0  0  0  0  0  0
   25.4408  -13.2752    0.0000 C   0  0  0  0  0  0  0  0  0  0  0  0
   26.1557  -12.8633    0.0000 C   0  0  0  0  0  0  0  0  0  0  0  0
   26.8664  -13.2752    0.0000 C   0  0  0  0  0  0  0  0  0  0  0  0
   27.5813  -12.8633    0.0000 C   0  0  0  0  0  0  0  0  0  0  0  0
   28.2961  -13.2752    0.0000 C   0  0  0  0  0  0  0  0  0  0  0  0
   28.2961  -14.0991    0.0000 C   0  0  0  0  0  0  0  0  0  0  0  0
   27.5813  -14.5110    0.0000 C   0  0  0  0  0  0  0  0  0  0  0  0
   26.8664  -14.0991    0.0000 C   0  0  0  0  0  0  0  0  0  0  0  0
   27.5813  -15.3348    0.0000 O   0  0  0  0  0  0  0  0  0  0  0  0
   28.2961  -15.7467    0.0000 C   0  0  0  0  0  0  0  0  0  0  0  0
   29.0110  -14.5110    0.0000 O   0  0  0  0  0  0  0  0  0  0  0  0
   29.7216  -14.0991    0.0000 C   0  0  0  0  0  0  0  0  0  0  0  0
   29.0110  -12.8633    0.0000 O   0  0  0  0  0  0  0  0  0  0  0  0
   29.7216  -13.2752    0.0000 C   0  0  0  0  0  0  0  0  0  0  0  0
   20.6501  -14.2644    0.0000 O   0  0  0  0  0  0  0  0  0  0  0  0
   20.2382  -14.9793    0.0000 C   0  0  0  0  0  0  0  0  0  0  0  0
  1  2  1  0
  2  3  1  0
  3  4  1  0
  4  5  2  0
  5  6  1  0
  6  7  2  0
  7  8  1  0
  8  9  2  0
  1  9  1  0
  4  9  1  0
  1 10  2  0
 11 12  1  0
 12 13  2  3
 14 15  2  0
 15 16  1  0
 16 17  2  0
 17 18  1  0
 18 19  2  0
 14 19  1  0
 20 21  1  0
 18 20  1  0
 22 23  1  0
 17 22  1  0
 24 25  1  0
 16 24  1  0
 13 14  1  0
  2 11  2  3
 26 27  1  0
  7 26  1  0
M  END
>  <Classification>  (557) 
1

>  <pchembl>  (557) 
5.94

>  <InChI_steorem>  (557) 
InChI=1S/C22H22O5/c1-24-17-9-8-15-12-16(21(23)18(15)13-17)7-5-6-14-10-19(25-2)22(27-4)20(11-14)26-3/h5-11,13H,12H2,1-4H3

>  <source>  (557) 
ChEMBL25

>  <source_id>  (557) 
25

>  <optional_reference>  (557) 
10.1016/j.bmc.2014.02.005

>  <optional_origin>  (557) 
None

>  <target>  (557) 
MDR1

$$$$

     RDKit          2D

 28 30  0  0  0  0  0  0  0  0999 V2000
    8.8749  -11.4678    0.0000 C   0  0  0  0  0  0  0  0  0  0  0  0
    9.5897  -11.8797    0.0000 C   0  0  0  0  0  0  0  0  0  0  0  0
    9.5897  -12.7034    0.0000 C   0  0  0  0  0  0  0  0  0  0  0  0
    8.8749  -13.1153    0.0000 C   0  0  0  0  0  0  0  0  0  0  0  0
    8.1601  -12.7034    0.0000 C   0  0  0  0  0  0  0  0  0  0  0  0
    7.4495  -13.1153    0.0000 C   0  0  0  0  0  0  0  0  0  0  0  0
    6.7347  -12.7034    0.0000 C   0  0  0  0  0  0  0  0  0  0  0  0
    6.7347  -11.8797    0.0000 C   0  0  0  0  0  0  0  0  0  0  0  0
    7.4495  -11.4678    0.0000 C   0  0  0  0  0  0  0  0  0  0  0  0
    8.1601  -11.8797    0.0000 C   0  0  0  0  0  0  0  0  0  0  0  0
    8.8749  -10.6440    0.0000 O   0  0  0  0  0  0  0  0  0  0  0  0
   10.3004  -11.4678    0.0000 C   0  0  0  0  0  0  0  0  0  0  0  0
   11.0152  -11.8797    0.0000 C   0  0  0  0  0  0  0  0  0  0  0  0
   11.7301  -11.4678    0.0000 C   0  0  0  0  0  0  0  0  0  0  0  0
   12.4406  -11.8797    0.0000 C   0  0  0  0  0  0  0  0  0  0  0  0
   13.1555  -11.4678    0.0000 C   0  0  0  0  0  0  0  0  0  0  0  0
   13.8703  -11.8797    0.0000 C   0  0  0  0  0  0  0  0  0  0  0  0
   13.8703  -12.7034    0.0000 C   0  0  0  0  0  0  0  0  0  0  0  0
   13.1555  -13.1153    0.0000 C   0  0  0  0  0  0  0  0  0  0  0  0
   12.4406  -12.7034    0.0000 C   0  0  0  0  0  0  0  0  0  0  0  0
   13.1555  -13.9391    0.0000 O   0  0  0  0  0  0  0  0  0  0  0  0
   13.8703  -14.3510    0.0000 C   0  0  0  0  0  0  0  0  0  0  0  0
   14.5810  -13.1153    0.0000 O   0  0  0  0  0  0  0  0  0  0  0  0
   15.2958  -12.7034    0.0000 C   0  0  0  0  0  0  0  0  0  0  0  0
   14.5810  -11.4678    0.0000 O   0  0  0  0  0  0  0  0  0  0  0  0
   15.2958  -11.8797    0.0000 C   0  0  0  0  0  0  0  0  0  0  0  0
    6.0199  -13.1153    0.0000 O   0  0  0  0  0  0  0  0  0  0  0  0
    5.3050  -12.7034    0.0000 C   0  0  0  0  0  0  0  0  0  0  0  0
  1  2  1  0
  2  3  1  0
  3  4  1  0
  4  5  1  0
  5  6  2  0
  6  7  1  0
  7  8  2  0
  8  9  1  0
  9 10  2  0
  1 10  1  0
  5 10  1  0
  1 11  2  0
 12 13  1  0
 13 14  2  3
 15 16  2  0
 16 17  1  0
 17 18  2  0
 18 19  1  0
 19 20  2  0
 15 20  1  0
 21 22  1  0
 19 21  1  0
 23 24  1  0
 18 23  1  0
 25 26  1  0
 17 25  1  0
 14 15  1  0
  2 12  2  3
 27 28  1  0
  7 27  1  0
M  END
>  <Classification>  (558) 
1

>  <pchembl>  (558) 
5.76

>  <InChI_steorem>  (558) 
InChI=1S/C23H24O5/c1-25-18-10-11-19-17(14-18)9-8-16(22(19)24)7-5-6-15-12-20(26-2)23(28-4)21(13-15)27-3/h5-7,10-14H,8-9H2,1-4H3

>  <source>  (558) 
ChEMBL25

>  <source_id>  (558) 
25

>  <optional_reference>  (558) 
10.1016/j.bmc.2014.02.005

>  <optional_origin>  (558) 
None

>  <target>  (558) 
MDR1

$$$$

     RDKit          2D

 29 31  0  0  0  0  0  0  0  0999 V2000
   10.0272   -2.7824    0.0000 C   0  0  0  0  0  0  0  0  0  0  0  0
    3.8106   -2.3459    0.0000 C   0  0  0  0  0  0  0  0  0  0  0  0
    4.6345   -3.7757    0.0000 C   0  0  0  0  0  0  0  0  0  0  0  0
    5.8703   -4.4906    0.0000 C   0  0  0  0  0  0  0  0  0  0  0  0
    3.3987   -4.4906    0.0000 C   0  0  0  0  0  0  0  0  0  0  0  0
    7.1760   -2.7824    0.0000 C   0  0  0  0  0  0  0  0  0  0  0  0
   12.8827   -2.7824    0.0000 C   0  0  0  0  0  0  0  0  0  0  0  0
   12.1678   -4.0182    0.0000 O   0  0  0  0  0  0  0  0  0  0  0  0
   11.4570   -3.6062    0.0000 C   0  0  0  0  0  0  0  0  0  0  0  0
    8.6017   -2.7824    0.0000 C   0  0  0  0  0  0  0  0  0  0  0  0
    5.8703   -3.0608    0.0000 C   0  0  0  0  0  0  0  0  0  0  0  0
    5.0465   -3.0608    0.0000 C   0  0  0  0  0  0  0  0  0  0  0  0
   12.8827   -3.6062    0.0000 C   0  0  0  0  0  0  0  0  0  0  0  0
    6.2505   -1.6444    0.0000 O   0  0  0  0  0  0  0  0  0  0  0  0
    6.4226   -2.4494    0.0000 C   0  0  0  0  0  0  0  0  0  0  0  0
   10.7421   -4.0182    0.0000 C   0  0  0  0  0  0  0  0  0  0  0  0
   12.1678   -2.3704    0.0000 O   0  0  0  0  0  0  0  0  0  0  0  0
    5.0465   -4.4906    0.0000 C   0  0  0  0  0  0  0  0  0  0  0  0
   10.7421   -2.3704    0.0000 C   0  0  0  0  0  0  0  0  0  0  0  0
   10.7421   -4.8421    0.0000 O   0  0  0  0  0  0  0  0  0  0  0  0
    3.8106   -3.7757    0.0000 O   0  0  0  0  0  0  0  0  0  0  0  0
   11.4570   -5.2539    0.0000 C   0  0  0  0  0  0  0  0  0  0  0  0
    4.6345   -2.3459    0.0000 O   0  0  0  0  0  0  0  0  0  0  0  0
    9.3124   -2.3704    0.0000 C   0  0  0  0  0  0  0  0  0  0  0  0
    7.8868   -2.3704    0.0000 C   0  0  0  0  0  0  0  0  0  0  0  0
    6.2823   -3.7757    0.0000 C   0  0  0  0  0  0  0  0  0  0  0  0
    7.0872   -3.6035    0.0000 C   0  0  0  0  0  0  0  0  0  0  0  0
   11.4570   -2.7824    0.0000 C   0  0  0  0  0  0  0  0  0  0  0  0
   10.0272   -3.6062    0.0000 C   0  0  0  0  0  0  0  0  0  0  0  0
 15 11  1  0
 24  1  1  0
 12 23  1  0
  6 27  1  0
 25 10  1  0
  9 16  2  0
  3 12  2  0
  4 18  2  0
 18  3  1  0
 28  9  1  0
 21  5  1  0
 15 14  2  0
  1 19  1  0
 15  6  1  0
 16 29  1  0
 26 11  2  0
 12 11  1  0
 27 26  1  0
 19 28  2  0
 20 22  1  0
  8 13  1  0
  9  8  1  0
 10 24  2  3
 28 17  1  0
  3 21  1  0
  6 25  2  3
 23  2  1  0
 17  7  1  0
 16 20  1  0
 26  4  1  0
  1 29  2  0
M  END
>  <Classification>  (559) 
1

>  <pchembl>  (559) 
5.58

>  <InChI_steorem>  (559) 
InChI=1S/C23H24O6/c1-25-17-10-9-15-13-16(21(24)20(15)23(17)29-5)8-6-7-14-11-18(26-2)22(28-4)19(12-14)27-3/h6-12H,13H2,1-5H3

>  <source>  (559) 
ChEMBL25

>  <source_id>  (559) 
25

>  <optional_reference>  (559) 
10.1016/j.bmc.2014.02.005

>  <optional_origin>  (559) 
None

>  <target>  (559) 
MDR1

$$$$

     RDKit          2D

 30 32  0  0  0  0  0  0  0  0999 V2000
   11.7397   -6.4765    0.0000 C   0  0  0  0  0  0  0  0  0  0  0  0
    3.8819   -5.2390    0.0000 O   0  0  0  0  0  0  0  0  0  0  0  0
    7.4528   -4.0015    0.0000 C   0  0  0  0  0  0  0  0  0  0  0  0
    9.5963   -3.5890    0.0000 C   0  0  0  0  0  0  0  0  0  0  0  0
    3.1660   -4.8265    0.0000 C   0  0  0  0  0  0  0  0  0  0  0  0
    3.1660   -4.0015    0.0000 C   0  0  0  0  0  0  0  0  0  0  0  0
   10.3121   -4.0015    0.0000 C   0  0  0  0  0  0  0  0  0  0  0  0
   11.7397   -4.0015    0.0000 C   0  0  0  0  0  0  0  0  0  0  0  0
   13.1714   -4.0015    0.0000 C   0  0  0  0  0  0  0  0  0  0  0  0
   11.0279   -5.2390    0.0000 C   0  0  0  0  0  0  0  0  0  0  0  0
    4.5978   -4.0015    0.0000 C   0  0  0  0  0  0  0  0  0  0  0  0
    7.4528   -4.8265    0.0000 C   0  0  0  0  0  0  0  0  0  0  0  0
   12.4555   -5.2390    0.0000 O   0  0  0  0  0  0  0  0  0  0  0  0
    6.0253   -4.0015    0.0000 C   0  0  0  0  0  0  0  0  0  0  0  0
    8.1687   -3.5890    0.0000 C   0  0  0  0  0  0  0  0  0  0  0  0
    5.3095   -3.5890    0.0000 C   0  0  0  0  0  0  0  0  0  0  0  0
   11.7397   -4.8265    0.0000 C   0  0  0  0  0  0  0  0  0  0  0  0
   10.3121   -4.8265    0.0000 C   0  0  0  0  0  0  0  0  0  0  0  0
    5.3095   -5.2390    0.0000 C   0  0  0  0  0  0  0  0  0  0  0  0
   11.0279   -6.0640    0.0000 O   0  0  0  0  0  0  0  0  0  0  0  0
    3.8819   -3.5890    0.0000 O   0  0  0  0  0  0  0  0  0  0  0  0
    6.7370   -3.5890    0.0000 C   0  0  0  0  0  0  0  0  0  0  0  0
    8.8846   -4.0015    0.0000 C   0  0  0  0  0  0  0  0  0  0  0  0
    4.5978   -4.8265    0.0000 C   0  0  0  0  0  0  0  0  0  0  0  0
    6.0253   -4.8265    0.0000 C   0  0  0  0  0  0  0  0  0  0  0  0
    6.7370   -5.2390    0.0000 C   0  0  0  0  0  0  0  0  0  0  0  0
   11.0279   -3.5890    0.0000 C   0  0  0  0  0  0  0  0  0  0  0  0
   13.1714   -4.8265    0.0000 C   0  0  0  0  0  0  0  0  0  0  0  0
   12.4555   -3.5890    0.0000 O   0  0  0  0  0  0  0  0  0  0  0  0
    6.7370   -2.7640    0.0000 O   0  0  0  0  0  0  0  0  0  0  0  0
  3 12  1  0
 21  6  1  0
 24  2  1  0
 25 19  2  0
  4  7  1  0
 27  8  2  0
 29  9  1  0
 22 14  1  0
 22 30  2  0
 23  4  2  3
 20  1  1  0
 22  3  1  0
  2  5  1  0
 26 25  1  0
 11 21  1  0
 24 11  2  0
 13 28  1  0
 11 16  1  0
  8 17  1  0
 10 20  1  0
 12 26  1  0
 15 23  1  0
  8 29  1  0
 19 24  1  0
  7 27  1  0
  3 15  2  3
  7 18  2  0
 25 14  1  0
 17 10  2  0
 17 13  1  0
 10 18  1  0
 16 14  2  0
M  END
>  <Classification>  (560) 
1

>  <pchembl>  (560) 
6.84

>  <InChI_steorem>  (560) 
InChI=1S/C24H26O6/c1-26-19-13-17-10-9-16(23(25)18(17)14-20(19)27-2)8-6-7-15-11-21(28-3)24(30-5)22(12-15)29-4/h6-8,11-14H,9-10H2,1-5H3

>  <source>  (560) 
ChEMBL25

>  <source_id>  (560) 
25

>  <optional_reference>  (560) 
10.1016/j.bmc.2014.02.005

>  <optional_origin>  (560) 
None

>  <target>  (560) 
MDR1

$$$$

     RDKit          2D

 34 36  0  0  0  0  0  0  0  0999 V2000
    3.1418   -3.2062    0.0000 C   0  0  0  0  0  0  0  0  0  0  0  0
    3.8577   -3.6187    0.0000 C   0  0  0  0  0  0  0  0  0  0  0  0
    4.5693   -3.2062    0.0000 C   0  0  0  0  0  0  0  0  0  0  0  0
    3.1418   -2.3812    0.0000 O   0  0  0  0  0  0  0  0  0  0  0  0
    2.4259   -3.6187    0.0000 C   0  0  0  0  0  0  0  0  0  0  0  0
    2.4259   -4.4437    0.0000 C   0  0  0  0  0  0  0  0  0  0  0  0
    1.7142   -4.8562    0.0000 C   0  0  0  0  0  0  0  0  0  0  0  0
    0.9983   -4.4437    0.0000 C   0  0  0  0  0  0  0  0  0  0  0  0
    0.9983   -3.6187    0.0000 C   0  0  0  0  0  0  0  0  0  0  0  0
    1.7142   -3.2062    0.0000 C   0  0  0  0  0  0  0  0  0  0  0  0
    5.2852   -3.6187    0.0000 C   0  0  0  0  0  0  0  0  0  0  0  0
    5.2812   -4.4439    0.0000 C   0  0  0  0  0  0  0  0  0  0  0  0
    5.9962   -4.8563    0.0000 C   0  0  0  0  0  0  0  0  0  0  0  0
    6.7123   -4.4426    0.0000 C   0  0  0  0  0  0  0  0  0  0  0  0
    6.7090   -3.6120    0.0000 C   0  0  0  0  0  0  0  0  0  0  0  0
    5.9933   -3.2034    0.0000 C   0  0  0  0  0  0  0  0  0  0  0  0
    7.4216   -3.1965    0.0000 C   0  0  0  0  0  0  0  0  0  0  0  0
    8.1379   -3.6059    0.0000 C   0  0  0  0  0  0  0  0  0  0  0  0
    8.8505   -3.1903    0.0000 C   0  0  0  0  0  0  0  0  0  0  0  0
    9.5668   -3.5996    0.0000 C   0  0  0  0  0  0  0  0  0  0  0  0
    8.8469   -2.3653    0.0000 O   0  0  0  0  0  0  0  0  0  0  0  0
    9.5673   -4.4219    0.0000 C   0  0  0  0  0  0  0  0  0  0  0  0
   10.2828   -4.8312    0.0000 C   0  0  0  0  0  0  0  0  0  0  0  0
   10.9964   -4.4154    0.0000 C   0  0  0  0  0  0  0  0  0  0  0  0
   10.9902   -3.5862    0.0000 C   0  0  0  0  0  0  0  0  0  0  0  0
   10.2741   -3.1807    0.0000 C   0  0  0  0  0  0  0  0  0  0  0  0
    1.7153   -5.6812    0.0000 O   0  0  0  0  0  0  0  0  0  0  0  0
    1.0014   -6.0946    0.0000 C   0  0  0  0  0  0  0  0  0  0  0  0
    0.2841   -4.8565    0.0000 O   0  0  0  0  0  0  0  0  0  0  0  0
   -0.4361   -4.4443    0.0000 C   0  0  0  0  0  0  0  0  0  0  0  0
   11.7132   -4.8239    0.0000 O   0  0  0  0  0  0  0  0  0  0  0  0
   11.7179   -5.6489    0.0000 C   0  0  0  0  0  0  0  0  0  0  0  0
   10.2860   -5.6562    0.0000 O   0  0  0  0  0  0  0  0  0  0  0  0
    9.5731   -6.0714    0.0000 C   0  0  0  0  0  0  0  0  0  0  0  0
  1  2  1  0
  2  3  2  3
  1  4  2  0
  5  6  2  0
  6  7  1  0
  7  8  2  0
  8  9  1  0
  9 10  2  0
  5 10  1  0
  1  5  1  0
  3 11  1  0
 11 12  2  0
 12 13  1  0
 13 14  2  0
 14 15  1  0
 15 16  2  0
 16 11  1  0
 15 17  1  0
 17 18  2  3
 18 19  1  0
 19 20  1  0
 19 21  2  0
 20 22  2  0
 22 23  1  0
 23 24  2  0
 24 25  1  0
 25 26  2  0
 26 20  1  0
  7 27  1  0
 27 28  1  0
  8 29  1  0
 29 30  1  0
 24 31  1  0
 31 32  1  0
 23 33  1  0
 33 34  1  0
M  END
>  <Classification>  (561) 
1

>  <pchembl>  (561) 
6.85

>  <InChI_steorem>  (561) 
InChI=1S/C28H26O6/c1-31-25-14-10-21(17-27(25)33-3)23(29)12-8-19-6-5-7-20(16-19)9-13-24(30)22-11-15-26(32-2)28(18-22)34-4/h5-18H,1-4H3

>  <source>  (561) 
ChEMBL25

>  <source_id>  (561) 
25

>  <optional_reference>  (561) 
10.1016/j.bmc.2014.02.005

>  <optional_origin>  (561) 
None

>  <target>  (561) 
MDR1

$$$$

     RDKit          2D

 38 40  0  0  0  0  0  0  0  0999 V2000
   20.1083   -3.5229    0.0000 C   0  0  0  0  0  0  0  0  0  0  0  0
   20.8242   -3.9354    0.0000 C   0  0  0  0  0  0  0  0  0  0  0  0
   21.5358   -3.5229    0.0000 C   0  0  0  0  0  0  0  0  0  0  0  0
   20.1083   -2.6979    0.0000 O   0  0  0  0  0  0  0  0  0  0  0  0
   19.3924   -3.9354    0.0000 C   0  0  0  0  0  0  0  0  0  0  0  0
   19.3924   -4.7604    0.0000 C   0  0  0  0  0  0  0  0  0  0  0  0
   18.6807   -5.1729    0.0000 C   0  0  0  0  0  0  0  0  0  0  0  0
   17.9648   -4.7604    0.0000 C   0  0  0  0  0  0  0  0  0  0  0  0
   17.9648   -3.9354    0.0000 C   0  0  0  0  0  0  0  0  0  0  0  0
   18.6807   -3.5229    0.0000 C   0  0  0  0  0  0  0  0  0  0  0  0
   22.2517   -3.9354    0.0000 C   0  0  0  0  0  0  0  0  0  0  0  0
   22.2476   -4.7606    0.0000 C   0  0  0  0  0  0  0  0  0  0  0  0
   22.9627   -5.1730    0.0000 C   0  0  0  0  0  0  0  0  0  0  0  0
   23.6789   -4.7592    0.0000 C   0  0  0  0  0  0  0  0  0  0  0  0
   23.6754   -3.9287    0.0000 C   0  0  0  0  0  0  0  0  0  0  0  0
   22.9599   -3.5201    0.0000 C   0  0  0  0  0  0  0  0  0  0  0  0
   24.3882   -3.5131    0.0000 C   0  0  0  0  0  0  0  0  0  0  0  0
   25.1044   -3.9225    0.0000 C   0  0  0  0  0  0  0  0  0  0  0  0
   25.8171   -3.5069    0.0000 C   0  0  0  0  0  0  0  0  0  0  0  0
   26.5333   -3.9162    0.0000 C   0  0  0  0  0  0  0  0  0  0  0  0
   25.8135   -2.6820    0.0000 O   0  0  0  0  0  0  0  0  0  0  0  0
   26.5339   -4.7385    0.0000 C   0  0  0  0  0  0  0  0  0  0  0  0
   27.2493   -5.1479    0.0000 C   0  0  0  0  0  0  0  0  0  0  0  0
   27.9629   -4.7321    0.0000 C   0  0  0  0  0  0  0  0  0  0  0  0
   27.9566   -3.9029    0.0000 C   0  0  0  0  0  0  0  0  0  0  0  0
   27.2406   -3.4974    0.0000 C   0  0  0  0  0  0  0  0  0  0  0  0
   18.6817   -5.9978    0.0000 O   0  0  0  0  0  0  0  0  0  0  0  0
   17.9679   -6.4112    0.0000 C   0  0  0  0  0  0  0  0  0  0  0  0
   17.2506   -5.1732    0.0000 O   0  0  0  0  0  0  0  0  0  0  0  0
   16.5359   -4.7610    0.0000 C   0  0  0  0  0  0  0  0  0  0  0  0
   28.6798   -5.1406    0.0000 O   0  0  0  0  0  0  0  0  0  0  0  0
   28.6844   -5.9655    0.0000 C   0  0  0  0  0  0  0  0  0  0  0  0
   27.2525   -5.9728    0.0000 O   0  0  0  0  0  0  0  0  0  0  0  0
   26.5396   -6.3881    0.0000 C   0  0  0  0  0  0  0  0  0  0  0  0
   17.2506   -3.5226    0.0000 O   0  0  0  0  0  0  0  0  0  0  0  0
   17.2509   -2.6976    0.0000 C   0  0  0  0  0  0  0  0  0  0  0  0
   28.6678   -3.4847    0.0000 O   0  0  0  0  0  0  0  0  0  0  0  0
   29.3855   -3.8916    0.0000 C   0  0  0  0  0  0  0  0  0  0  0  0
  1  2  1  0
  2  3  2  3
  1  4  2  0
  5  6  2  0
  6  7  1  0
  7  8  2  0
  8  9  1  0
  9 10  2  0
  5 10  1  0
  1  5  1  0
  3 11  1  0
 11 12  2  0
 12 13  1  0
 13 14  2  0
 14 15  1  0
 15 16  2  0
 16 11  1  0
 15 17  1  0
 17 18  2  3
 18 19  1  0
 19 20  1  0
 19 21  2  0
 20 22  2  0
 22 23  1  0
 23 24  2  0
 24 25  1  0
 25 26  2  0
 26 20  1  0
  7 27  1  0
 27 28  1  0
  8 29  1  0
 29 30  1  0
 24 31  1  0
 31 32  1  0
 23 33  1  0
 33 34  1  0
  9 35  1  0
 35 36  1  0
 25 37  1  0
 37 38  1  0
M  END
>  <Classification>  (562) 
1

>  <pchembl>  (562) 
6.92

>  <InChI_steorem>  (562) 
InChI=1S/C30H30O8/c1-33-25-15-21(16-26(34-2)29(25)37-5)23(31)12-10-19-8-7-9-20(14-19)11-13-24(32)22-17-27(35-3)30(38-6)28(18-22)36-4/h7-18H,1-6H3

>  <source>  (562) 
ChEMBL25

>  <source_id>  (562) 
25

>  <optional_reference>  (562) 
10.1016/j.bmc.2014.02.005

>  <optional_origin>  (562) 
None

>  <target>  (562) 
MDR1

$$$$

     RDKit          2D

 38 40  0  0  0  0  0  0  0  0999 V2000
    6.6209  -10.2061    0.0000 C   0  0  0  0  0  0  0  0  0  0  0  0
    7.3367  -10.6186    0.0000 C   0  0  0  0  0  0  0  0  0  0  0  0
    8.0485  -10.2061    0.0000 C   0  0  0  0  0  0  0  0  0  0  0  0
    5.9050  -10.6186    0.0000 C   0  0  0  0  0  0  0  0  0  0  0  0
    5.9050  -11.4436    0.0000 C   0  0  0  0  0  0  0  0  0  0  0  0
    5.1934  -11.8561    0.0000 C   0  0  0  0  0  0  0  0  0  0  0  0
    4.4775  -11.4436    0.0000 C   0  0  0  0  0  0  0  0  0  0  0  0
    4.4775  -10.6186    0.0000 C   0  0  0  0  0  0  0  0  0  0  0  0
    5.1934  -10.2061    0.0000 C   0  0  0  0  0  0  0  0  0  0  0  0
    8.7643  -10.6186    0.0000 C   0  0  0  0  0  0  0  0  0  0  0  0
    8.7603  -11.4438    0.0000 C   0  0  0  0  0  0  0  0  0  0  0  0
    9.4753  -11.8563    0.0000 C   0  0  0  0  0  0  0  0  0  0  0  0
   10.1914  -11.4424    0.0000 C   0  0  0  0  0  0  0  0  0  0  0  0
   10.1881  -10.6120    0.0000 C   0  0  0  0  0  0  0  0  0  0  0  0
    9.4725  -10.2033    0.0000 C   0  0  0  0  0  0  0  0  0  0  0  0
   10.9007  -10.1964    0.0000 C   0  0  0  0  0  0  0  0  0  0  0  0
   11.6170  -10.6057    0.0000 C   0  0  0  0  0  0  0  0  0  0  0  0
   12.3296  -10.1901    0.0000 C   0  0  0  0  0  0  0  0  0  0  0  0
   13.0459  -10.5995    0.0000 C   0  0  0  0  0  0  0  0  0  0  0  0
   13.0465  -11.4217    0.0000 C   0  0  0  0  0  0  0  0  0  0  0  0
   13.7619  -11.8310    0.0000 C   0  0  0  0  0  0  0  0  0  0  0  0
   14.4755  -11.4154    0.0000 C   0  0  0  0  0  0  0  0  0  0  0  0
   14.4693  -10.5862    0.0000 C   0  0  0  0  0  0  0  0  0  0  0  0
   13.7533  -10.1806    0.0000 C   0  0  0  0  0  0  0  0  0  0  0  0
    5.1944  -12.6810    0.0000 O   0  0  0  0  0  0  0  0  0  0  0  0
    4.4804  -13.0945    0.0000 C   0  0  0  0  0  0  0  0  0  0  0  0
    3.7632  -11.8564    0.0000 O   0  0  0  0  0  0  0  0  0  0  0  0
    3.0486  -11.4442    0.0000 C   0  0  0  0  0  0  0  0  0  0  0  0
   15.1923  -11.8237    0.0000 O   0  0  0  0  0  0  0  0  0  0  0  0
   15.1970  -12.6487    0.0000 C   0  0  0  0  0  0  0  0  0  0  0  0
   13.7651  -12.6560    0.0000 O   0  0  0  0  0  0  0  0  0  0  0  0
   13.0523  -13.0713    0.0000 C   0  0  0  0  0  0  0  0  0  0  0  0
    3.7632  -10.2058    0.0000 O   0  0  0  0  0  0  0  0  0  0  0  0
    3.7636   -9.3809    0.0000 C   0  0  0  0  0  0  0  0  0  0  0  0
   15.1804  -10.1680    0.0000 O   0  0  0  0  0  0  0  0  0  0  0  0
   15.8982  -10.5748    0.0000 C   0  0  0  0  0  0  0  0  0  0  0  0
   10.8971   -9.3714    0.0000 O   0  0  0  0  0  0  0  0  0  0  0  0
    8.0474   -9.3812    0.0000 O   0  0  0  0  0  0  0  0  0  0  0  0
  1  2  2  3
  2  3  1  0
  4  5  2  0
  5  6  1  0
  6  7  2  0
  7  8  1  0
  8  9  2  0
  4  9  1  0
  1  4  1  0
  3 10  1  0
 10 11  2  0
 11 12  1  0
 12 13  2  0
 13 14  1  0
 14 15  2  0
 15 10  1  0
 14 16  1  0
 16 17  1  0
 17 18  2  3
 18 19  1  0
 19 20  2  0
 20 21  1  0
 21 22  2  0
 22 23  1  0
 23 24  2  0
 24 19  1  0
  6 25  1  0
 25 26  1  0
  7 27  1  0
 27 28  1  0
 22 29  1  0
 29 30  1  0
 21 31  1  0
 31 32  1  0
  8 33  1  0
 33 34  1  0
 23 35  1  0
 35 36  1  0
 16 37  2  0
  3 38  2  0
M  END
>  <Classification>  (563) 
1

>  <pchembl>  (563) 
6.85

>  <InChI_steorem>  (563) 
InChI=1S/C30H30O8/c1-33-25-14-19(15-26(34-2)29(25)37-5)10-12-23(31)21-8-7-9-22(18-21)24(32)13-11-20-16-27(35-3)30(38-6)28(17-20)36-4/h7-18H,1-6H3

>  <source>  (563) 
ChEMBL25

>  <source_id>  (563) 
25

>  <optional_reference>  (563) 
10.1016/j.bmc.2014.02.005

>  <optional_origin>  (563) 
None

>  <target>  (563) 
MDR1

$$$$

     RDKit          2D

 42 44  0  0  0  0  0  0  0  0999 V2000
    8.4628  -15.5189    0.0000 C   0  0  0  0  0  0  0  0  0  0  0  0
    9.1786  -15.9314    0.0000 C   0  0  0  0  0  0  0  0  0  0  0  0
    9.8903  -15.5189    0.0000 C   0  0  0  0  0  0  0  0  0  0  0  0
    7.7469  -15.9314    0.0000 C   0  0  0  0  0  0  0  0  0  0  0  0
    7.7469  -16.7563    0.0000 C   0  0  0  0  0  0  0  0  0  0  0  0
    7.0351  -17.1688    0.0000 C   0  0  0  0  0  0  0  0  0  0  0  0
    6.3193  -16.7563    0.0000 C   0  0  0  0  0  0  0  0  0  0  0  0
    6.3193  -15.9314    0.0000 C   0  0  0  0  0  0  0  0  0  0  0  0
    7.0351  -15.5189    0.0000 C   0  0  0  0  0  0  0  0  0  0  0  0
   10.6062  -15.9314    0.0000 C   0  0  0  0  0  0  0  0  0  0  0  0
    7.0361  -17.9938    0.0000 O   0  0  0  0  0  0  0  0  0  0  0  0
    6.3222  -18.4073    0.0000 C   0  0  0  0  0  0  0  0  0  0  0  0
    5.6050  -17.1691    0.0000 O   0  0  0  0  0  0  0  0  0  0  0  0
    4.8903  -16.7569    0.0000 C   0  0  0  0  0  0  0  0  0  0  0  0
    5.6050  -15.5186    0.0000 O   0  0  0  0  0  0  0  0  0  0  0  0
    5.6053  -14.6936    0.0000 C   0  0  0  0  0  0  0  0  0  0  0  0
   11.3203  -15.5183    0.0000 C   0  0  0  0  0  0  0  0  0  0  0  0
   12.0351  -15.9302    0.0000 C   0  0  0  0  0  0  0  0  0  0  0  0
   11.3196  -14.6933    0.0000 O   0  0  0  0  0  0  0  0  0  0  0  0
   12.0314  -16.7554    0.0000 C   0  0  0  0  0  0  0  0  0  0  0  0
   12.7453  -17.1672    0.0000 C   0  0  0  0  0  0  0  0  0  0  0  0
   13.4604  -16.7540    0.0000 C   0  0  0  0  0  0  0  0  0  0  0  0
   13.4571  -15.9247    0.0000 C   0  0  0  0  0  0  0  0  0  0  0  0
   12.7425  -15.5167    0.0000 C   0  0  0  0  0  0  0  0  0  0  0  0
   14.1697  -15.5091    0.0000 C   0  0  0  0  0  0  0  0  0  0  0  0
   14.8860  -15.9185    0.0000 C   0  0  0  0  0  0  0  0  0  0  0  0
   15.5987  -15.5028    0.0000 C   0  0  0  0  0  0  0  0  0  0  0  0
   14.1662  -14.6841    0.0000 O   0  0  0  0  0  0  0  0  0  0  0  0
   16.3149  -15.9122    0.0000 C   0  0  0  0  0  0  0  0  0  0  0  0
   17.0276  -15.4967    0.0000 C   0  0  0  0  0  0  0  0  0  0  0  0
   17.7439  -15.9060    0.0000 C   0  0  0  0  0  0  0  0  0  0  0  0
   17.7427  -16.7304    0.0000 C   0  0  0  0  0  0  0  0  0  0  0  0
   18.4580  -17.1397    0.0000 C   0  0  0  0  0  0  0  0  0  0  0  0
   19.1717  -16.7240    0.0000 C   0  0  0  0  0  0  0  0  0  0  0  0
   19.1654  -15.8948    0.0000 C   0  0  0  0  0  0  0  0  0  0  0  0
   18.4495  -15.4892    0.0000 C   0  0  0  0  0  0  0  0  0  0  0  0
   19.8766  -15.4766    0.0000 O   0  0  0  0  0  0  0  0  0  0  0  0
   20.5944  -15.8835    0.0000 C   0  0  0  0  0  0  0  0  0  0  0  0
   19.8885  -17.1324    0.0000 O   0  0  0  0  0  0  0  0  0  0  0  0
   19.8932  -17.9574    0.0000 C   0  0  0  0  0  0  0  0  0  0  0  0
   18.4613  -17.9647    0.0000 O   0  0  0  0  0  0  0  0  0  0  0  0
   17.7484  -18.3800    0.0000 C   0  0  0  0  0  0  0  0  0  0  0  0
  1  2  2  3
  2  3  1  0
  4  5  2  0
  5  6  1  0
  6  7  2  0
  7  8  1  0
  8  9  2  0
  4  9  1  0
  1  4  1  0
  3 10  2  3
  6 11  1  0
 11 12  1  0
  7 13  1  0
 13 14  1  0
  8 15  1  0
 15 16  1  0
 10 17  1  0
 17 18  1  0
 17 19  2  0
 18 20  2  0
 20 21  1  0
 21 22  2  0
 22 23  1  0
 23 24  2  0
 24 18  1  0
 23 25  1  0
 25 26  1  0
 26 27  2  3
 25 28  2  0
 27 29  1  0
 29 30  2  3
 30 31  1  0
 31 32  2  0
 32 33  1  0
 33 34  2  0
 34 35  1  0
 35 36  2  0
 36 31  1  0
 35 37  1  0
 37 38  1  0
 34 39  1  0
 39 40  1  0
 33 41  1  0
 41 42  1  0
M  END
>  <Classification>  (564) 
1

>  <pchembl>  (564) 
7.22

>  <InChI_steorem>  (564) 
InChI=1S/C34H34O8/c1-37-29-18-23(19-30(38-2)33(29)41-5)12-7-9-16-27(35)25-14-11-15-26(22-25)28(36)17-10-8-13-24-20-31(39-3)34(42-6)32(21-24)40-4/h7-22H,1-6H3

>  <source>  (564) 
ChEMBL25

>  <source_id>  (564) 
25

>  <optional_reference>  (564) 
10.1016/j.bmc.2014.02.005

>  <optional_origin>  (564) 
None

>  <target>  (564) 
MDR1

$$$$

     RDKit          2D

 36 39  0  0  0  0  0  0  0  0999 V2000
    4.1833  -20.1208    0.0000 C   0  0  0  0  0  0  0  0  0  0  0  0
    4.1833  -20.9458    0.0000 N   0  0  0  0  0  0  0  0  0  0  0  0
    3.4688  -19.7083    0.0000 C   0  0  0  0  0  0  0  0  0  0  0  0
    3.4688  -18.8833    0.0000 C   0  0  0  0  0  0  0  0  0  0  0  0
    2.7544  -20.1208    0.0000 C   0  0  0  0  0  0  0  0  0  0  0  0
    4.8978  -21.3583    0.0000 C   0  0  0  0  0  0  0  0  0  0  0  0
    4.8978  -22.1833    0.0000 C   0  0  0  0  0  0  0  0  0  0  0  0
    5.6123  -20.9458    0.0000 O   0  0  0  0  0  0  0  0  0  0  0  0
    4.8978  -19.7083    0.0000 C   0  0  0  0  0  0  0  0  0  0  0  0
    5.6555  -20.0407    0.0000 N   0  0  0  0  0  0  0  0  0  0  0  0
    6.2075  -19.4276    0.0000 C   0  0  0  0  0  0  0  0  0  0  0  0
    5.7950  -18.7130    0.0000 C   0  0  0  0  0  0  0  0  0  0  0  0
    4.9881  -18.8847    0.0000 S   0  0  0  0  0  0  0  0  0  0  0  0
    4.2311  -22.6733    0.0000 C   0  0  0  0  0  0  0  0  0  0  0  0
    4.4861  -23.4579    0.0000 S   0  0  0  0  0  0  0  0  0  0  0  0
    5.3112  -23.4579    0.0000 C   0  0  0  0  0  0  0  0  0  0  0  0
    5.5660  -22.6733    0.0000 N   0  0  0  0  0  0  0  0  0  0  0  0
    5.7962  -24.1253    0.0000 C   0  0  0  0  0  0  0  0  0  0  0  0
    5.4606  -24.8790    0.0000 C   0  0  0  0  0  0  0  0  0  0  0  0
    5.9456  -25.5465    0.0000 C   0  0  0  0  0  0  0  0  0  0  0  0
    4.6401  -24.9654    0.0000 C   0  0  0  0  0  0  0  0  0  0  0  0
    6.6166  -24.0390    0.0000 N   0  0  0  0  0  0  0  0  0  0  0  0
    6.9521  -23.2854    0.0000 C   0  0  0  0  0  0  0  0  0  0  0  0
    6.4671  -22.6179    0.0000 O   0  0  0  0  0  0  0  0  0  0  0  0
    7.7726  -23.1990    0.0000 C   0  0  0  0  0  0  0  0  0  0  0  0
    8.3260  -23.8082    0.0000 C   0  0  0  0  0  0  0  0  0  0  0  0
    9.0796  -23.4726    0.0000 S   0  0  0  0  0  0  0  0  0  0  0  0
    8.9933  -22.6521    0.0000 C   0  0  0  0  0  0  0  0  0  0  0  0
    8.1864  -22.4808    0.0000 N   0  0  0  0  0  0  0  0  0  0  0  0
    7.0280  -19.5138    0.0000 C   0  0  0  0  0  0  0  0  0  0  0  0
    7.3636  -20.2674    0.0000 N   0  0  0  0  0  0  0  0  0  0  0  0
    7.5129  -18.8464    0.0000 O   0  0  0  0  0  0  0  0  0  0  0  0
    8.1841  -20.3537    0.0000 C   0  0  0  0  0  0  0  0  0  0  0  0
    8.6689  -19.6862    0.0000 C   0  0  0  0  0  0  0  0  0  0  0  0
    9.4894  -19.7725    0.0000 C   0  0  0  0  0  0  0  0  0  0  0  0
    8.3334  -18.9326    0.0000 C   0  0  0  0  0  0  0  0  0  0  0  0
 15 16  1  0
 34 35  1  0
 16 17  2  0
 34 36  1  0
 28 33  1  0
 17  7  1  0
  3  4  1  0
 16 18  1  0
  1  9  1  0
 18 19  1  0
  9 10  2  0
 19 20  1  0
  1  2  1  0
 19 21  1  0
  3  5  1  0
 18 22  1  0
 22 23  1  0
  2  6  1  0
 23 24  2  0
 10 11  1  0
 23 25  1  0
 25 26  2  0
 11 12  2  0
 12 13  1  0
 13  9  1  0
  7 14  2  0
 26 27  1  0
 27 28  1  0
 28 29  2  0
 29 25  1  0
  1  3  1  0
 11 30  1  0
  6  7  1  0
 30 31  1  0
 30 32  2  0
  6  8  2  0
 31 33  1  0
 14 15  1  0
 33 34  1  0
M  END
>  <Classification>  (565) 
1

>  <pchembl>  (565) 
5.82

>  <InChI_steorem>  (565) 
InChI=1S/C24H30N6O3S3/c1-10(2)16-22-25-14(7-34-22)20(32)29-18(12(5)6)24-27-15(9-36-24)21(33)30-17(11(3)4)23-26-13(8-35-23)19(31)28-16/h7-12,16-18H,1-6H3,(H,28,31)(H,29,32)(H,30,33)

>  <source>  (565) 
ChEMBL25

>  <source_id>  (565) 
25

>  <optional_reference>  (565) 
10.1021/jm401966m

>  <optional_origin>  (565) 
None

>  <target>  (565) 
MDR1

$$$$

     RDKit          2D

 39 41  0  0  0  0  0  0  0  0999 V2000
   17.6419  -19.7045    0.0000 N   0  0  0  0  0  0  0  0  0  0  0  0
   18.4668  -19.7045    0.0000 C   0  0  0  0  0  0  0  0  0  0  0  0
   18.0543  -18.4336    0.0000 S   0  0  0  0  0  0  0  0  0  0  0  0
   17.3893  -18.9203    0.0000 C   0  0  0  0  0  0  0  0  0  0  0  0
   16.6046  -18.6657    0.0000 C   0  0  0  0  0  0  0  0  0  0  0  0
   16.4327  -17.8589    0.0000 C   0  0  0  0  0  0  0  0  0  0  0  0
   15.9918  -19.2181    0.0000 N   0  0  0  0  0  0  0  0  0  0  0  0
   17.0456  -17.3065    0.0000 C   0  0  0  0  0  0  0  0  0  0  0  0
   15.6479  -17.6043    0.0000 C   0  0  0  0  0  0  0  0  0  0  0  0
   18.9510  -20.3725    0.0000 C   0  0  0  0  0  0  0  0  0  0  0  0
   18.6146  -21.1257    0.0000 O   0  0  0  0  0  0  0  0  0  0  0  0
   16.1636  -20.0249    0.0000 C   0  0  0  0  0  0  0  0  0  0  0  0
   16.9483  -20.2795    0.0000 O   0  0  0  0  0  0  0  0  0  0  0  0
   18.8033  -18.9511    0.0000 C   0  0  0  0  0  0  0  0  0  0  0  0
   19.7716  -20.2872    0.0000 N   0  0  0  0  0  0  0  0  0  0  0  0
   20.2558  -20.9552    0.0000 C   0  0  0  0  0  0  0  0  0  0  0  0
   21.0764  -20.8699    0.0000 C   0  0  0  0  0  0  0  0  0  0  0  0
   19.9193  -21.7085    0.0000 C   0  0  0  0  0  0  0  0  0  0  0  0
   19.0987  -21.7938    0.0000 C   0  0  0  0  0  0  0  0  0  0  0  0
   20.4035  -22.3765    0.0000 C   0  0  0  0  0  0  0  0  0  0  0  0
   21.6259  -21.4836    0.0000 N   0  0  0  0  0  0  0  0  0  0  0  0
   22.3799  -21.1490    0.0000 C   0  0  0  0  0  0  0  0  0  0  0  0
   22.2947  -20.3283    0.0000 C   0  0  0  0  0  0  0  0  0  0  0  0
   21.4879  -20.1559    0.0000 S   0  0  0  0  0  0  0  0  0  0  0  0
   23.0940  -21.5623    0.0000 C   0  0  0  0  0  0  0  0  0  0  0  0
   23.0930  -22.3873    0.0000 O   0  0  0  0  0  0  0  0  0  0  0  0
   23.8090  -21.1506    0.0000 O   0  0  0  0  0  0  0  0  0  0  0  0
   24.5229  -21.5639    0.0000 C   0  0  0  0  0  0  0  0  0  0  0  0
   25.2379  -21.1523    0.0000 C   0  0  0  0  0  0  0  0  0  0  0  0
   15.5508  -20.5772    0.0000 C   0  0  0  0  0  0  0  0  0  0  0  0
   14.7679  -20.3198    0.0000 C   0  0  0  0  0  0  0  0  0  0  0  0
   14.1554  -20.8713    0.0000 C   0  0  0  0  0  0  0  0  0  0  0  0
   14.3270  -21.6792    0.0000 C   0  0  0  0  0  0  0  0  0  0  0  0
   15.1167  -21.9326    0.0000 C   0  0  0  0  0  0  0  0  0  0  0  0
   15.7259  -21.3793    0.0000 C   0  0  0  0  0  0  0  0  0  0  0  0
   13.7149  -22.2323    0.0000 O   0  0  0  0  0  0  0  0  0  0  0  0
   12.9299  -21.9787    0.0000 C   0  0  0  0  0  0  0  0  0  0  0  0
   15.2914  -22.7388    0.0000 O   0  0  0  0  0  0  0  0  0  0  0  0
   14.6805  -23.2934    0.0000 C   0  0  0  0  0  0  0  0  0  0  0  0
  1  2  1  0
  2 14  2  0
 14  3  1  0
  3  4  1  0
  4  1  2  0
  4  5  1  0
  5  6  1  0
  5  7  1  0
  6  8  1  0
  6  9  1  0
  2 10  1  0
 10 11  2  0
  7 12  1  0
 12 13  2  0
 10 15  1  0
 15 16  1  0
 16 17  1  0
 16 18  1  0
 18 19  1  0
 18 20  1  0
 17 21  2  0
 21 22  1  0
 22 23  2  0
 23 24  1  0
 24 17  1  0
 22 25  1  0
 25 26  2  0
 25 27  1  0
 27 28  1  0
 28 29  1  0
 12 30  1  0
 30 31  2  0
 31 32  1  0
 32 33  2  0
 33 34  1  0
 34 35  2  0
 35 30  1  0
 33 36  1  0
 36 37  1  0
 34 38  1  0
 38 39  1  0
M  END
>  <Classification>  (566) 
0

>  <pchembl>  (566) 
4.8

>  <InChI_steorem>  (566) 
InChI=1S/C27H34N4O6S2/c1-8-37-27(34)18-13-39-26(29-18)22(15(4)5)31-24(33)17-12-38-25(28-17)21(14(2)3)30-23(32)16-9-10-19(35-6)20(11-16)36-7/h9-15,21-22H,8H2,1-7H3,(H,30,32)(H,31,33)

>  <source>  (566) 
ChEMBL25

>  <source_id>  (566) 
25

>  <optional_reference>  (566) 
10.1021/jm401966m

>  <optional_origin>  (566) 
None

>  <target>  (566) 
MDR1

$$$$

     RDKit          2D

 41 44  0  0  0  0  0  0  0  0999 V2000
   22.9515  -18.4570    0.0000 C   0  0  0  0  0  0  0  0  0  0  0  0
   19.7855  -14.6007    0.0000 S   0  0  0  0  0  0  0  0  0  0  0  0
   15.8865  -17.0386    0.0000 C   0  0  0  0  0  0  0  0  0  0  0  0
   23.2873  -17.6987    0.0000 C   0  0  0  0  0  0  0  0  0  0  0  0
   23.9556  -16.1911    0.0000 C   0  0  0  0  0  0  0  0  0  0  0  0
   16.8479  -18.0998    0.0000 C   0  0  0  0  0  0  0  0  0  0  0  0
   22.1300  -18.5419    0.0000 C   0  0  0  0  0  0  0  0  0  0  0  0
   23.1353  -16.2797    0.0000 C   0  0  0  0  0  0  0  0  0  0  0  0
   18.3358  -14.8329    0.0000 C   0  0  0  0  0  0  0  0  0  0  0  0
   17.4570  -17.5466    0.0000 C   0  0  0  0  0  0  0  0  0  0  0  0
   16.4991  -16.4870    0.0000 C   0  0  0  0  0  0  0  0  0  0  0  0
   20.6822  -16.5397    0.0000 C   0  0  0  0  0  0  0  0  0  0  0  0
   19.1205  -15.0876    0.0000 C   0  0  0  0  0  0  0  0  0  0  0  0
   17.8948  -16.1921    0.0000 C   0  0  0  0  0  0  0  0  0  0  0  0
   17.2820  -16.7445    0.0000 C   0  0  0  0  0  0  0  0  0  0  0  0
   21.6467  -17.8744    0.0000 C   0  0  0  0  0  0  0  0  0  0  0  0
   17.7230  -15.3853    0.0000 N   0  0  0  0  0  0  0  0  0  0  0  0
   14.9305  -15.9766    0.0000 C   0  0  0  0  0  0  0  0  0  0  0  0
   16.0582  -17.8464    0.0000 C   0  0  0  0  0  0  0  0  0  0  0  0
   21.9870  -17.1225    0.0000 C   0  0  0  0  0  0  0  0  0  0  0  0
   22.6485  -15.6136    0.0000 O   0  0  0  0  0  0  0  0  0  0  0  0
   21.5028  -16.4544    0.0000 N   0  0  0  0  0  0  0  0  0  0  0  0
   14.6610  -18.1460    0.0000 C   0  0  0  0  0  0  0  0  0  0  0  0
   25.5936  -16.0134    0.0000 C   0  0  0  0  0  0  0  0  0  0  0  0
   22.8018  -17.0343    0.0000 C   0  0  0  0  0  0  0  0  0  0  0  0
   17.0226  -18.9061    0.0000 O   0  0  0  0  0  0  0  0  0  0  0  0
   18.6795  -16.4468    0.0000 O   0  0  0  0  0  0  0  0  0  0  0  0
   18.7767  -13.4738    0.0000 C   0  0  0  0  0  0  0  0  0  0  0  0
   19.3730  -15.8717    0.0000 N   0  0  0  0  0  0  0  0  0  0  0  0
   20.1980  -15.8717    0.0000 C   0  0  0  0  0  0  0  0  0  0  0  0
   16.4116  -19.4605    0.0000 C   0  0  0  0  0  0  0  0  0  0  0  0
   25.2594  -16.7687    0.0000 C   0  0  0  0  0  0  0  0  0  0  0  0
   24.4398  -16.8568    0.0000 C   0  0  0  0  0  0  0  0  0  0  0  0
   17.3791  -13.7715    0.0000 C   0  0  0  0  0  0  0  0  0  0  0  0
   15.4461  -18.3996    0.0000 O   0  0  0  0  0  0  0  0  0  0  0  0
   15.1019  -16.7835    0.0000 O   0  0  0  0  0  0  0  0  0  0  0  0
   24.2843  -15.4370    0.0000 C   0  0  0  0  0  0  0  0  0  0  0  0
   20.3458  -17.2930    0.0000 O   0  0  0  0  0  0  0  0  0  0  0  0
   18.1638  -14.0260    0.0000 C   0  0  0  0  0  0  0  0  0  0  0  0
   20.5345  -15.1184    0.0000 C   0  0  0  0  0  0  0  0  0  0  0  0
   25.1021  -15.3455    0.0000 C   0  0  0  0  0  0  0  0  0  0  0  0
 39 28  1  0
 25 20  1  0
 14 27  2  0
  6 26  1  0
 36 18  1  0
 35 23  1  0
  3 19  2  0
  9 17  1  0
 12 22  1  0
 26 31  1  0
 16  7  1  0
 11  3  1  0
 24 41  2  0
 29 30  1  0
  2 13  1  0
 33 32  2  0
  5 33  1  0
 14 15  1  0
  8 21  2  0
  7  1  2  0
 30 12  1  0
  6 10  2  0
 19  6  1  0
 17 14  1  0
 10 15  1  0
  3 36  1  0
  1  4  1  0
 41 37  1  0
 37  5  2  0
 13  9  1  0
 19 35  1  0
 25  8  1  0
 40  2  1  0
 15 11  2  0
  8  5  1  0
  9 39  1  0
 20 16  2  0
 39 34  1  0
 13 29  2  0
 32 24  1  0
  4 25  2  0
 30 40  2  0
 12 38  2  0
 22 20  1  0
M  END
>  <Classification>  (567) 
1

>  <pchembl>  (567) 
6.0

>  <InChI_steorem>  (567) 
InChI=1S/C31H31N3O6S/c1-18(2)26(34-29(36)20-15-24(38-3)28(40-5)25(16-20)39-4)31-33-23(17-41-31)30(37)32-22-14-10-9-13-21(22)27(35)19-11-7-6-8-12-19/h6-18,26H,1-5H3,(H,32,37)(H,34,36)

>  <source>  (567) 
ChEMBL25

>  <source_id>  (567) 
25

>  <optional_reference>  (567) 
10.1021/jm401966m

>  <optional_origin>  (567) 
None

>  <target>  (567) 
MDR1

$$$$

     RDKit          2D

 42 44  0  0  0  0  0  0  0  0999 V2000
   20.0576    0.8667    0.0000 N   0  0  0  0  0  0  0  0  0  0  0  0
   20.8825    0.8667    0.0000 C   0  0  0  0  0  0  0  0  0  0  0  0
   20.4700    2.1375    0.0000 S   0  0  0  0  0  0  0  0  0  0  0  0
   19.8051    1.6575    0.0000 C   0  0  0  0  0  0  0  0  0  0  0  0
   19.0204    1.9112    0.0000 C   0  0  0  0  0  0  0  0  0  0  0  0
   18.8485    2.7127    0.0000 C   0  0  0  0  0  0  0  0  0  0  0  0
   18.4075    1.3553    0.0000 N   0  0  0  0  0  0  0  0  0  0  0  0
   19.4613    3.2686    0.0000 C   0  0  0  0  0  0  0  0  0  0  0  0
   18.0638    2.9748    0.0000 C   0  0  0  0  0  0  0  0  0  0  0  0
   21.3667    0.2014    0.0000 C   0  0  0  0  0  0  0  0  0  0  0  0
   21.0302   -0.5546    0.0000 O   0  0  0  0  0  0  0  0  0  0  0  0
   18.5794    0.5538    0.0000 C   0  0  0  0  0  0  0  0  0  0  0  0
   17.9666   -0.0062    0.0000 O   0  0  0  0  0  0  0  0  0  0  0  0
   19.3641    0.2918    0.0000 O   0  0  0  0  0  0  0  0  0  0  0  0
   17.1819    0.2516    0.0000 C   0  0  0  0  0  0  0  0  0  0  0  0
   16.5691   -0.3039    0.0000 C   0  0  0  0  0  0  0  0  0  0  0  0
   17.0100    1.0613    0.0000 C   0  0  0  0  0  0  0  0  0  0  0  0
   16.3536    0.2500    0.0000 C   0  0  0  0  0  0  0  0  0  0  0  0
   21.2190    1.6217    0.0000 C   0  0  0  0  0  0  0  0  0  0  0  0
   22.1872    0.2910    0.0000 N   0  0  0  0  0  0  0  0  0  0  0  0
   22.6714   -0.3841    0.0000 C   0  0  0  0  0  0  0  0  0  0  0  0
   23.4919   -0.2988    0.0000 C   0  0  0  0  0  0  0  0  0  0  0  0
   22.3349   -1.1373    0.0000 C   0  0  0  0  0  0  0  0  0  0  0  0
   21.5144   -1.2226    0.0000 C   0  0  0  0  0  0  0  0  0  0  0  0
   22.8191   -1.8053    0.0000 C   0  0  0  0  0  0  0  0  0  0  0  0
   24.0414   -0.9125    0.0000 N   0  0  0  0  0  0  0  0  0  0  0  0
   24.7954   -0.5777    0.0000 C   0  0  0  0  0  0  0  0  0  0  0  0
   24.7102    0.2488    0.0000 C   0  0  0  0  0  0  0  0  0  0  0  0
   23.9034    0.4181    0.0000 S   0  0  0  0  0  0  0  0  0  0  0  0
   25.5095   -0.9911    0.0000 C   0  0  0  0  0  0  0  0  0  0  0  0
   25.5085   -1.8161    0.0000 O   0  0  0  0  0  0  0  0  0  0  0  0
   26.2244   -0.5795    0.0000 N   0  0  0  0  0  0  0  0  0  0  0  0
   26.9383   -0.9928    0.0000 C   0  0  0  0  0  0  0  0  0  0  0  0
   27.6533   -0.5811    0.0000 C   0  0  0  0  0  0  0  0  0  0  0  0
   26.9373   -1.8177    0.0000 C   0  0  0  0  0  0  0  0  0  0  0  0
   28.3650   -0.9964    0.0000 C   0  0  0  0  0  0  0  0  0  0  0  0
   29.0794   -0.5855    0.0000 C   0  0  0  0  0  0  0  0  0  0  0  0
   29.0809    0.2429    0.0000 C   0  0  0  0  0  0  0  0  0  0  0  0
   28.3619    0.6548    0.0000 C   0  0  0  0  0  0  0  0  0  0  0  0
   27.6504    0.2431    0.0000 C   0  0  0  0  0  0  0  0  0  0  0  0
   29.7953    0.6553    0.0000 O   0  0  0  0  0  0  0  0  0  0  0  0
   30.5097    0.2427    0.0000 C   0  0  0  0  0  0  0  0  0  0  0  0
  1  2  1  0
  2 19  2  0
 19  3  1  0
  3  4  1  0
  4  1  2  0
  4  5  1  0
  5  6  1  0
  5  7  1  0
  6  8  1  0
  6  9  1  0
  2 10  1  0
 10 11  2  0
  7 12  1  0
 12 13  1  0
 12 14  2  0
 13 15  1  0
 15 16  1  0
 15 17  1  0
 15 18  1  0
 10 20  1  0
 20 21  1  0
 21 22  1  0
 21 23  1  0
 23 24  1  0
 23 25  1  0
 22 26  2  0
 26 27  1  0
 27 28  2  0
 28 29  1  0
 29 22  1  0
 27 30  1  0
 30 31  2  0
 30 32  1  0
 32 33  1  0
 33 34  1  0
 33 35  1  0
 34 36  2  0
 36 37  1  0
 37 38  2  0
 38 39  1  0
 39 40  2  0
 40 34  1  0
 38 41  1  0
 41 42  1  0
M  END
>  <Classification>  (568) 
1

>  <pchembl>  (568) 
5.7

>  <InChI_steorem>  (568) 
InChI=1S/C30H41N5O5S2/c1-16(2)23(27-32-21(14-41-27)25(36)31-18(5)19-10-12-20(39-9)13-11-19)34-26(37)22-15-42-28(33-22)24(17(3)4)35-29(38)40-30(6,7)8/h10-18,23-24H,1-9H3,(H,31,36)(H,34,37)(H,35,38)

>  <source>  (568) 
ChEMBL25

>  <source_id>  (568) 
25

>  <optional_reference>  (568) 
10.1021/jm401966m

>  <optional_origin>  (568) 
None

>  <target>  (568) 
MDR1

$$$$

     RDKit          2D

 42 44  0  0  0  0  0  0  0  0999 V2000
   23.2211  -11.4669    0.0000 N   0  0  0  0  0  0  0  0  0  0  0  0
   24.0461  -11.4669    0.0000 C   0  0  0  0  0  0  0  0  0  0  0  0
   23.6336  -10.1959    0.0000 S   0  0  0  0  0  0  0  0  0  0  0  0
   22.9686  -10.6828    0.0000 C   0  0  0  0  0  0  0  0  0  0  0  0
   22.1839  -10.4281    0.0000 C   0  0  0  0  0  0  0  0  0  0  0  0
   22.0119   -9.6212    0.0000 C   0  0  0  0  0  0  0  0  0  0  0  0
   21.5710  -10.9805    0.0000 N   0  0  0  0  0  0  0  0  0  0  0  0
   22.6247   -9.0689    0.0000 C   0  0  0  0  0  0  0  0  0  0  0  0
   21.2272   -9.3666    0.0000 C   0  0  0  0  0  0  0  0  0  0  0  0
   24.5303  -12.1348    0.0000 C   0  0  0  0  0  0  0  0  0  0  0  0
   24.1938  -12.8882    0.0000 O   0  0  0  0  0  0  0  0  0  0  0  0
   21.7429  -11.7873    0.0000 C   0  0  0  0  0  0  0  0  0  0  0  0
   21.1300  -12.3397    0.0000 O   0  0  0  0  0  0  0  0  0  0  0  0
   22.5276  -12.0419    0.0000 O   0  0  0  0  0  0  0  0  0  0  0  0
   20.3452  -12.0850    0.0000 C   0  0  0  0  0  0  0  0  0  0  0  0
   19.7324  -12.6374    0.0000 C   0  0  0  0  0  0  0  0  0  0  0  0
   20.1734  -11.2782    0.0000 C   0  0  0  0  0  0  0  0  0  0  0  0
   19.5169  -12.0835    0.0000 C   0  0  0  0  0  0  0  0  0  0  0  0
   24.3826  -10.7135    0.0000 C   0  0  0  0  0  0  0  0  0  0  0  0
   25.3509  -12.0496    0.0000 N   0  0  0  0  0  0  0  0  0  0  0  0
   25.8350  -12.7176    0.0000 C   0  0  0  0  0  0  0  0  0  0  0  0
   26.6556  -12.6323    0.0000 C   0  0  0  0  0  0  0  0  0  0  0  0
   25.4986  -13.4709    0.0000 C   0  0  0  0  0  0  0  0  0  0  0  0
   24.6780  -13.5562    0.0000 C   0  0  0  0  0  0  0  0  0  0  0  0
   25.9828  -14.1389    0.0000 C   0  0  0  0  0  0  0  0  0  0  0  0
   27.2052  -13.2460    0.0000 N   0  0  0  0  0  0  0  0  0  0  0  0
   27.9592  -12.9113    0.0000 C   0  0  0  0  0  0  0  0  0  0  0  0
   27.8739  -12.0907    0.0000 C   0  0  0  0  0  0  0  0  0  0  0  0
   27.0671  -11.9184    0.0000 S   0  0  0  0  0  0  0  0  0  0  0  0
   28.6732  -13.3247    0.0000 C   0  0  0  0  0  0  0  0  0  0  0  0
   28.6723  -14.1497    0.0000 O   0  0  0  0  0  0  0  0  0  0  0  0
   29.3881  -12.9130    0.0000 N   0  0  0  0  0  0  0  0  0  0  0  0
   30.8171  -12.9146    0.0000 C   0  0  0  0  0  0  0  0  0  0  0  0
   30.1046  -13.3247    0.0000 C   0  0  0  0  0  0  0  0  0  0  0  0
   30.1044  -14.1449    0.0000 C   0  0  0  0  0  0  0  0  0  0  0  0
   30.8161  -14.5560    0.0000 C   0  0  0  0  0  0  0  0  0  0  0  0
   31.5292  -14.1409    0.0000 C   0  0  0  0  0  0  0  0  0  0  0  0
   31.5259  -13.3221    0.0000 C   0  0  0  0  0  0  0  0  0  0  0  0
   29.3899  -14.5572    0.0000 O   0  0  0  0  0  0  0  0  0  0  0  0
   29.3897  -15.3822    0.0000 C   0  0  0  0  0  0  0  0  0  0  0  0
   32.2453  -14.5507    0.0000 O   0  0  0  0  0  0  0  0  0  0  0  0
   32.2485  -15.3757    0.0000 C   0  0  0  0  0  0  0  0  0  0  0  0
  1  2  1  0
  2 19  2  0
 19  3  1  0
  3  4  1  0
  4  1  2  0
  4  5  1  0
  5  6  1  0
  5  7  1  0
  6  8  1  0
  6  9  1  0
  2 10  1  0
 10 11  2  0
  7 12  1  0
 12 13  1  0
 12 14  2  0
 13 15  1  0
 15 16  1  0
 15 17  1  0
 15 18  1  0
 10 20  1  0
 20 21  1  0
 21 22  1  0
 21 23  1  0
 23 24  1  0
 23 25  1  0
 22 26  2  0
 26 27  1  0
 27 28  2  0
 28 29  1  0
 29 22  1  0
 27 30  1  0
 30 31  2  0
 30 32  1  0
 32 34  1  0
 33 34  2  0
 34 35  1  0
 35 36  2  0
 36 37  1  0
 37 38  2  0
 38 33  1  0
 35 39  1  0
 39 40  1  0
 37 41  1  0
 41 42  1  0
M  END
>  <Classification>  (569) 
1

>  <pchembl>  (569) 
5.6

>  <InChI_steorem>  (569) 
InChI=1S/C29H39N5O6S2/c1-15(2)22(26-31-19(13-41-26)24(35)30-18-11-10-17(38-8)12-21(18)39-9)33-25(36)20-14-42-27(32-20)23(16(3)4)34-28(37)40-29(5,6)7/h10-16,22-23H,1-9H3,(H,30,35)(H,33,36)(H,34,37)

>  <source>  (569) 
ChEMBL25

>  <source_id>  (569) 
25

>  <optional_reference>  (569) 
10.1021/jm401966m

>  <optional_origin>  (569) 
None

>  <target>  (569) 
MDR1

$$$$

     RDKit          2D

 43 45  0  0  0  0  0  0  0  0999 V2000
   -3.2918   -4.7794    0.0000 N   0  0  0  0  0  0  0  0  0  0  0  0
   -2.4667   -4.7794    0.0000 C   0  0  0  0  0  0  0  0  0  0  0  0
   -2.8793   -3.5084    0.0000 S   0  0  0  0  0  0  0  0  0  0  0  0
   -3.5392   -3.9953    0.0000 C   0  0  0  0  0  0  0  0  0  0  0  0
   -4.3212   -3.7406    0.0000 C   0  0  0  0  0  0  0  0  0  0  0  0
   -4.4994   -2.9337    0.0000 C   0  0  0  0  0  0  0  0  0  0  0  0
   -4.9417   -4.2930    0.0000 N   0  0  0  0  0  0  0  0  0  0  0  0
   -3.8871   -2.3813    0.0000 C   0  0  0  0  0  0  0  0  0  0  0  0
   -5.2813   -2.6791    0.0000 C   0  0  0  0  0  0  0  0  0  0  0  0
   -1.9759   -5.4474    0.0000 C   0  0  0  0  0  0  0  0  0  0  0  0
   -2.3144   -6.2007    0.0000 O   0  0  0  0  0  0  0  0  0  0  0  0
   -4.7636   -5.0999    0.0000 C   0  0  0  0  0  0  0  0  0  0  0  0
   -5.3758   -5.6522    0.0000 O   0  0  0  0  0  0  0  0  0  0  0  0
   -3.9816   -5.3545    0.0000 O   0  0  0  0  0  0  0  0  0  0  0  0
   -6.1661   -5.3976    0.0000 C   0  0  0  0  0  0  0  0  0  0  0  0
   -6.7782   -5.9499    0.0000 C   0  0  0  0  0  0  0  0  0  0  0  0
   -6.3358   -4.5907    0.0000 C   0  0  0  0  0  0  0  0  0  0  0  0
   -6.9878   -5.3961    0.0000 C   0  0  0  0  0  0  0  0  0  0  0  0
   -2.1281   -4.0261    0.0000 C   0  0  0  0  0  0  0  0  0  0  0  0
   -1.1548   -5.3621    0.0000 N   0  0  0  0  0  0  0  0  0  0  0  0
   -0.6722   -6.0302    0.0000 C   0  0  0  0  0  0  0  0  0  0  0  0
    0.1511   -5.9449    0.0000 C   0  0  0  0  0  0  0  0  0  0  0  0
   -1.0108   -6.7835    0.0000 C   0  0  0  0  0  0  0  0  0  0  0  0
   -1.8319   -6.8688    0.0000 C   0  0  0  0  0  0  0  0  0  0  0  0
   -0.5282   -7.4515    0.0000 C   0  0  0  0  0  0  0  0  0  0  0  0
    0.7007   -6.5586    0.0000 N   0  0  0  0  0  0  0  0  0  0  0  0
    1.4547   -6.2238    0.0000 C   0  0  0  0  0  0  0  0  0  0  0  0
    1.3694   -5.4032    0.0000 C   0  0  0  0  0  0  0  0  0  0  0  0
    0.5626   -5.2309    0.0000 S   0  0  0  0  0  0  0  0  0  0  0  0
    2.1687   -6.6373    0.0000 C   0  0  0  0  0  0  0  0  0  0  0  0
    2.1678   -7.4623    0.0000 O   0  0  0  0  0  0  0  0  0  0  0  0
    2.8837   -6.2256    0.0000 N   0  0  0  0  0  0  0  0  0  0  0  0
    3.5978   -6.6389    0.0000 C   0  0  0  0  0  0  0  0  0  0  0  0
    4.3127   -6.2272    0.0000 C   0  0  0  0  0  0  0  0  0  0  0  0
    5.0245   -6.6425    0.0000 C   0  0  0  0  0  0  0  0  0  0  0  0
    5.7390   -6.2315    0.0000 C   0  0  0  0  0  0  0  0  0  0  0  0
    5.7404   -5.4057    0.0000 C   0  0  0  0  0  0  0  0  0  0  0  0
    5.0214   -4.9924    0.0000 C   0  0  0  0  0  0  0  0  0  0  0  0
    4.3099   -5.4059    0.0000 C   0  0  0  0  0  0  0  0  0  0  0  0
    6.4548   -4.9930    0.0000 O   0  0  0  0  0  0  0  0  0  0  0  0
    7.1694   -5.4054    0.0000 C   0  0  0  0  0  0  0  0  0  0  0  0
    5.0220   -7.4676    0.0000 O   0  0  0  0  0  0  0  0  0  0  0  0
    4.3062   -7.8779    0.0000 C   0  0  0  0  0  0  0  0  0  0  0  0
  1  2  1  0
  2 19  2  0
 19  3  1  0
  3  4  1  0
  4  1  2  0
  4  5  1  0
  5  6  1  0
  5  7  1  0
  6  8  1  0
  6  9  1  0
  2 10  1  0
 10 11  2  0
  7 12  1  0
 12 13  1  0
 12 14  2  0
 13 15  1  0
 15 16  1  0
 15 17  1  0
 15 18  1  0
 10 20  1  0
 20 21  1  0
 21 22  1  0
 21 23  1  0
 23 24  1  0
 23 25  1  0
 22 26  2  0
 26 27  1  0
 27 28  2  0
 28 29  1  0
 29 22  1  0
 27 30  1  0
 30 31  2  0
 30 32  1  0
 32 33  1  0
 33 34  1  0
 34 35  2  0
 35 36  1  0
 36 37  2  0
 37 38  1  0
 38 39  2  0
 39 34  1  0
 37 40  1  0
 40 41  1  0
 35 42  1  0
 42 43  1  0
M  END
>  <Classification>  (570) 
1

>  <pchembl>  (570) 
5.7

>  <InChI_steorem>  (570) 
InChI=1S/C30H41N5O6S2/c1-16(2)23(27-32-20(14-42-27)25(36)31-13-18-10-11-19(39-8)12-22(18)40-9)34-26(37)21-15-43-28(33-21)24(17(3)4)35-29(38)41-30(5,6)7/h10-12,14-17,23-24H,13H2,1-9H3,(H,31,36)(H,34,37)(H,35,38)

>  <source>  (570) 
ChEMBL25

>  <source_id>  (570) 
25

>  <optional_reference>  (570) 
10.1021/jm401966m

>  <optional_origin>  (570) 
None

>  <target>  (570) 
MDR1

$$$$

     RDKit          2D

 44 46  0  0  0  0  0  0  0  0999 V2000
    1.1334  -19.1964    0.0000 N   0  0  0  0  0  0  0  0  0  0  0  0
    1.9584  -19.1964    0.0000 C   0  0  0  0  0  0  0  0  0  0  0  0
    1.5459  -17.9254    0.0000 S   0  0  0  0  0  0  0  0  0  0  0  0
    0.8808  -18.4122    0.0000 C   0  0  0  0  0  0  0  0  0  0  0  0
    0.0960  -18.1576    0.0000 C   0  0  0  0  0  0  0  0  0  0  0  0
   -0.0825  -17.3507    0.0000 C   0  0  0  0  0  0  0  0  0  0  0  0
   -0.5249  -18.7100    0.0000 N   0  0  0  0  0  0  0  0  0  0  0  0
    0.5370  -16.7983    0.0000 C   0  0  0  0  0  0  0  0  0  0  0  0
   -0.8644  -17.0962    0.0000 C   0  0  0  0  0  0  0  0  0  0  0  0
    2.4425  -19.8644    0.0000 C   0  0  0  0  0  0  0  0  0  0  0  0
    2.1061  -20.6177    0.0000 O   0  0  0  0  0  0  0  0  0  0  0  0
   -0.3468  -19.5168    0.0000 C   0  0  0  0  0  0  0  0  0  0  0  0
   -0.9589  -20.0692    0.0000 O   0  0  0  0  0  0  0  0  0  0  0  0
    0.4398  -19.7714    0.0000 O   0  0  0  0  0  0  0  0  0  0  0  0
   -1.7492  -19.8146    0.0000 C   0  0  0  0  0  0  0  0  0  0  0  0
   -2.3614  -20.3669    0.0000 C   0  0  0  0  0  0  0  0  0  0  0  0
   -1.9190  -19.0077    0.0000 C   0  0  0  0  0  0  0  0  0  0  0  0
   -2.5709  -19.8130    0.0000 C   0  0  0  0  0  0  0  0  0  0  0  0
    2.2948  -18.4430    0.0000 C   0  0  0  0  0  0  0  0  0  0  0  0
    3.2631  -19.7791    0.0000 N   0  0  0  0  0  0  0  0  0  0  0  0
    3.7473  -20.4472    0.0000 C   0  0  0  0  0  0  0  0  0  0  0  0
    4.5679  -20.3618    0.0000 C   0  0  0  0  0  0  0  0  0  0  0  0
    3.4109  -21.2004    0.0000 C   0  0  0  0  0  0  0  0  0  0  0  0
    2.5902  -21.2857    0.0000 C   0  0  0  0  0  0  0  0  0  0  0  0
    3.8950  -21.8684    0.0000 C   0  0  0  0  0  0  0  0  0  0  0  0
    5.1174  -20.9756    0.0000 N   0  0  0  0  0  0  0  0  0  0  0  0
    5.8715  -20.6409    0.0000 C   0  0  0  0  0  0  0  0  0  0  0  0
    5.7862  -19.8202    0.0000 C   0  0  0  0  0  0  0  0  0  0  0  0
    4.9794  -19.6479    0.0000 S   0  0  0  0  0  0  0  0  0  0  0  0
    6.5855  -21.0542    0.0000 C   0  0  0  0  0  0  0  0  0  0  0  0
    6.5845  -21.8792    0.0000 O   0  0  0  0  0  0  0  0  0  0  0  0
    7.3005  -20.6425    0.0000 N   0  0  0  0  0  0  0  0  0  0  0  0
    8.7294  -20.6441    0.0000 C   0  0  0  0  0  0  0  0  0  0  0  0
    8.0170  -21.0542    0.0000 C   0  0  0  0  0  0  0  0  0  0  0  0
    8.0168  -21.8744    0.0000 C   0  0  0  0  0  0  0  0  0  0  0  0
    8.7284  -22.2855    0.0000 C   0  0  0  0  0  0  0  0  0  0  0  0
    9.4416  -21.8705    0.0000 C   0  0  0  0  0  0  0  0  0  0  0  0
    9.4383  -21.0516    0.0000 C   0  0  0  0  0  0  0  0  0  0  0  0
   10.1576  -22.2803    0.0000 O   0  0  0  0  0  0  0  0  0  0  0  0
   10.1607  -23.1053    0.0000 C   0  0  0  0  0  0  0  0  0  0  0  0
    8.7297  -23.1105    0.0000 O   0  0  0  0  0  0  0  0  0  0  0  0
    8.0159  -23.5242    0.0000 C   0  0  0  0  0  0  0  0  0  0  0  0
   10.1515  -20.6370    0.0000 O   0  0  0  0  0  0  0  0  0  0  0  0
   10.8672  -21.0474    0.0000 C   0  0  0  0  0  0  0  0  0  0  0  0
  1  2  1  0
  2 19  2  0
 19  3  1  0
  3  4  1  0
  4  1  2  0
  4  5  1  0
  5  6  1  0
  5  7  1  0
  6  8  1  0
  6  9  1  0
  2 10  1  0
 10 11  2  0
  7 12  1  0
 12 13  1  0
 12 14  2  0
 13 15  1  0
 15 16  1  0
 15 17  1  0
 15 18  1  0
 10 20  1  0
 20 21  1  0
 21 22  1  0
 21 23  1  0
 23 24  1  0
 23 25  1  0
 22 26  2  0
 26 27  1  0
 27 28  2  0
 28 29  1  0
 29 22  1  0
 27 30  1  0
 30 31  2  0
 30 32  1  0
 32 34  1  0
 33 34  2  0
 34 35  1  0
 35 36  2  0
 36 37  1  0
 37 38  2  0
 38 33  1  0
 37 39  1  0
 39 40  1  0
 36 41  1  0
 41 42  1  0
 38 43  1  0
 43 44  1  0
M  END
>  <Classification>  (571) 
1

>  <pchembl>  (571) 
5.19

>  <InChI_steorem>  (571) 
InChI=1S/C30H41N5O7S2/c1-15(2)22(34-26(37)19-14-44-28(33-19)23(16(3)4)35-29(38)42-30(5,6)7)27-32-18(13-43-27)25(36)31-17-11-20(39-8)24(41-10)21(12-17)40-9/h11-16,22-23H,1-10H3,(H,31,36)(H,34,37)(H,35,38)

>  <source>  (571) 
ChEMBL25

>  <source_id>  (571) 
25

>  <optional_reference>  (571) 
10.1021/jm401966m

>  <optional_origin>  (571) 
None

>  <target>  (571) 
MDR1

$$$$

     RDKit          2D

 46 48  0  0  0  0  0  0  0  0999 V2000
    0.5250    0.1208    0.0000 N   0  0  0  0  0  0  0  0  0  0  0  0
    1.3500    0.1208    0.0000 C   0  0  0  0  0  0  0  0  0  0  0  0
    0.9375    1.3917    0.0000 S   0  0  0  0  0  0  0  0  0  0  0  0
    0.2725    0.9117    0.0000 C   0  0  0  0  0  0  0  0  0  0  0  0
   -0.5126    1.1654    0.0000 C   0  0  0  0  0  0  0  0  0  0  0  0
   -0.6908    1.9669    0.0000 C   0  0  0  0  0  0  0  0  0  0  0  0
   -1.1332    0.6095    0.0000 N   0  0  0  0  0  0  0  0  0  0  0  0
   -0.0786    2.5230    0.0000 C   0  0  0  0  0  0  0  0  0  0  0  0
   -1.4727    2.2290    0.0000 C   0  0  0  0  0  0  0  0  0  0  0  0
    1.8341   -0.5472    0.0000 C   0  0  0  0  0  0  0  0  0  0  0  0
    1.4977   -1.3005    0.0000 O   0  0  0  0  0  0  0  0  0  0  0  0
   -0.9550   -0.1997    0.0000 C   0  0  0  0  0  0  0  0  0  0  0  0
   -1.5672   -0.7520    0.0000 O   0  0  0  0  0  0  0  0  0  0  0  0
   -0.1731   -0.4543    0.0000 O   0  0  0  0  0  0  0  0  0  0  0  0
   -2.3575   -0.4974    0.0000 C   0  0  0  0  0  0  0  0  0  0  0  0
   -2.9696   -1.0497    0.0000 C   0  0  0  0  0  0  0  0  0  0  0  0
   -2.5272    0.3155    0.0000 C   0  0  0  0  0  0  0  0  0  0  0  0
   -3.1792   -0.4958    0.0000 C   0  0  0  0  0  0  0  0  0  0  0  0
    1.6863    0.8759    0.0000 C   0  0  0  0  0  0  0  0  0  0  0  0
    2.6547   -0.4620    0.0000 N   0  0  0  0  0  0  0  0  0  0  0  0
    3.1388   -1.1299    0.0000 C   0  0  0  0  0  0  0  0  0  0  0  0
    3.9593   -1.0447    0.0000 C   0  0  0  0  0  0  0  0  0  0  0  0
    2.8024   -1.8832    0.0000 C   0  0  0  0  0  0  0  0  0  0  0  0
    1.9818   -1.9685    0.0000 C   0  0  0  0  0  0  0  0  0  0  0  0
    3.2865   -2.5512    0.0000 C   0  0  0  0  0  0  0  0  0  0  0  0
    4.5089   -1.6583    0.0000 N   0  0  0  0  0  0  0  0  0  0  0  0
    5.2630   -1.3236    0.0000 C   0  0  0  0  0  0  0  0  0  0  0  0
    5.1777   -0.5031    0.0000 C   0  0  0  0  0  0  0  0  0  0  0  0
    4.3709   -0.3306    0.0000 S   0  0  0  0  0  0  0  0  0  0  0  0
    5.9769   -1.7369    0.0000 C   0  0  0  0  0  0  0  0  0  0  0  0
    5.9760   -2.5619    0.0000 O   0  0  0  0  0  0  0  0  0  0  0  0
    6.6919   -1.3253    0.0000 N   0  0  0  0  0  0  0  0  0  0  0  0
    7.4058   -1.7386    0.0000 C   0  0  0  0  0  0  0  0  0  0  0  0
    8.1208   -1.3269    0.0000 C   0  0  0  0  0  0  0  0  0  0  0  0
    7.4049   -2.5636    0.0000 C   0  0  0  0  0  0  0  0  0  0  0  0
    6.6900   -2.9753    0.0000 C   0  0  0  0  0  0  0  0  0  0  0  0
    8.1189   -2.9769    0.0000 C   0  0  0  0  0  0  0  0  0  0  0  0
    8.8730   -1.6655    0.0000 N   0  0  0  0  0  0  0  0  0  0  0  0
    9.4257   -1.0531    0.0000 C   0  0  0  0  0  0  0  0  0  0  0  0
    9.0140   -0.3381    0.0000 C   0  0  0  0  0  0  0  0  0  0  0  0
    8.2069   -0.5088    0.0000 S   0  0  0  0  0  0  0  0  0  0  0  0
   10.2461   -1.1403    0.0000 C   0  0  0  0  0  0  0  0  0  0  0  0
   10.5808   -1.8943    0.0000 O   0  0  0  0  0  0  0  0  0  0  0  0
   10.7318   -0.4734    0.0000 O   0  0  0  0  0  0  0  0  0  0  0  0
   11.5522   -0.5606    0.0000 C   0  0  0  0  0  0  0  0  0  0  0  0
   12.0379    0.1104    0.0000 C   0  0  0  0  0  0  0  0  0  0  0  0
  1  2  1  0
  2 19  2  0
 19  3  1  0
  3  4  1  0
  4  1  2  0
  4  5  1  0
  5  6  1  0
  5  7  1  0
  6  8  1  0
  6  9  1  0
  2 10  1  0
 10 11  2  0
  7 12  1  0
 12 13  1  0
 12 14  2  0
 13 15  1  0
 15 16  1  0
 15 17  1  0
 15 18  1  0
 10 20  1  0
 20 21  1  0
 21 22  1  0
 21 23  1  0
 23 24  1  0
 23 25  1  0
 22 26  2  0
 26 27  1  0
 27 28  2  0
 28 29  1  0
 29 22  1  0
 27 30  1  0
 30 31  2  0
 30 32  1  0
 32 33  1  0
 33 34  1  0
 33 35  1  0
 35 36  1  0
 35 37  1  0
 34 38  2  0
 38 39  1  0
 39 40  2  0
 40 41  1  0
 41 34  1  0
 39 42  1  0
 42 43  2  0
 42 44  1  0
 44 45  1  0
 45 46  1  0
M  END
>  <Classification>  (572) 
1

>  <pchembl>  (572) 
5.82

>  <InChI_steorem>  (572) 
InChI=1S/C31H44N6O6S3/c1-11-42-29(40)20-14-46-27(34-20)22(16(4)5)36-24(38)18-12-44-26(32-18)21(15(2)3)35-25(39)19-13-45-28(33-19)23(17(6)7)37-30(41)43-31(8,9)10/h12-17,21-23H,11H2,1-10H3,(H,35,39)(H,36,38)(H,37,41)

>  <source>  (572) 
ChEMBL25

>  <source_id>  (572) 
25

>  <optional_reference>  (572) 
10.1021/jm401966m

>  <optional_origin>  (572) 
None

>  <target>  (572) 
MDR1

$$$$

     RDKit          2D

 30 31  0  0  0  0  0  0  0  0999 V2000
   16.5581   -3.7125    0.0000 C   0  0  0  0  0  0  0  0  0  0  0  0
   16.5581   -4.5375    0.0000 O   0  0  0  0  0  0  0  0  0  0  0  0
   17.2702   -4.9458    0.0000 C   0  0  0  0  0  0  0  0  0  0  0  0
   17.9822   -4.5375    0.0000 C   0  0  0  0  0  0  0  0  0  0  0  0
   17.9822   -3.7125    0.0000 C   0  0  0  0  0  0  0  0  0  0  0  0
   17.2702   -3.2958    0.0000 C   0  0  0  0  0  0  0  0  0  0  0  0
   17.2702   -5.7708    0.0000 S   0  0  0  0  0  0  0  0  0  0  0  0
   17.9846   -6.1833    0.0000 C   0  0  0  0  0  0  0  0  0  0  0  0
   17.9804   -7.0094    0.0000 C   0  0  0  0  0  0  0  0  0  0  0  0
   18.6939   -7.4218    0.0000 C   0  0  0  0  0  0  0  0  0  0  0  0
   19.4094   -7.0092    0.0000 C   0  0  0  0  0  0  0  0  0  0  0  0
   19.4068   -6.1799    0.0000 C   0  0  0  0  0  0  0  0  0  0  0  0
   18.6961   -4.9510    0.0000 O   0  0  0  0  0  0  0  0  0  0  0  0
   18.6948   -5.7760    0.0000 C   0  0  0  0  0  0  0  0  0  0  0  0
   19.4111   -4.5395    0.0000 C   0  0  0  0  0  0  0  0  0  0  0  0
   20.1250   -4.9530    0.0000 C   0  0  0  0  0  0  0  0  0  0  0  0
   19.4123   -3.7145    0.0000 O   0  0  0  0  0  0  0  0  0  0  0  0
   18.6979   -3.3020    0.0000 O   0  0  0  0  0  0  0  0  0  0  0  0
   18.7003   -2.4771    0.0000 C   0  0  0  0  0  0  0  0  0  0  0  0
   19.4160   -2.0666    0.0000 C   0  0  0  0  0  0  0  0  0  0  0  0
   17.9871   -2.0625    0.0000 O   0  0  0  0  0  0  0  0  0  0  0  0
   17.2702   -2.4708    0.0000 O   0  0  0  0  0  0  0  0  0  0  0  0
   16.5557   -2.0584    0.0000 C   0  0  0  0  0  0  0  0  0  0  0  0
   16.5557   -1.2334    0.0000 C   0  0  0  0  0  0  0  0  0  0  0  0
   15.8413   -2.4708    0.0000 O   0  0  0  0  0  0  0  0  0  0  0  0
   15.8425   -3.3020    0.0000 C   0  0  0  0  0  0  0  0  0  0  0  0
   15.1292   -3.7166    0.0000 O   0  0  0  0  0  0  0  0  0  0  0  0
   14.4136   -3.3063    0.0000 C   0  0  0  0  0  0  0  0  0  0  0  0
   13.7003   -3.7209    0.0000 C   0  0  0  0  0  0  0  0  0  0  0  0
   14.4111   -2.4813    0.0000 O   0  0  0  0  0  0  0  0  0  0  0  0
  1  2  1  0
  1  6  1  0
  2  3  1  0
  3  4  1  0
  4  5  1  0
  5  6  1  0
  3  7  1  0
  7  8  1  0
  8  9  2  0
  9 10  1  0
 10 11  2  0
 11 12  1  0
 12 14  2  0
 14  8  1  0
  4 13  1  0
 13 15  1  0
 15 16  1  0
 15 17  2  0
  5 18  1  0
 18 19  1  0
 19 20  1  0
 19 21  2  0
  6 22  1  0
 22 23  1  0
 23 24  1  0
 23 25  2  0
  1 26  1  0
 26 27  1  0
 27 28  1  0
 28 29  1  0
 28 30  2  0
M  END
>  <Classification>  (573) 
0

>  <pchembl>  (573) 
4.81

>  <InChI_steorem>  (573) 
InChI=1S/C20H24O9S/c1-11(21)25-10-16-17(26-12(2)22)18(27-13(3)23)19(28-14(4)24)20(29-16)30-15-8-6-5-7-9-15/h5-9,16-20H,10H2,1-4H3

>  <source>  (573) 
ChEMBL25

>  <source_id>  (573) 
25

>  <optional_reference>  (573) 
10.1039/C2MD20286G

>  <optional_origin>  (573) 
None

>  <target>  (573) 
MDR1

$$$$

     RDKit          2D

 32 32  0  0  0  0  0  0  0  0999 V2000
    7.3675  -10.0786    0.0000 C   0  0  0  0  0  0  0  0  0  0  0  0
    6.6489  -10.4838    0.0000 C   0  0  0  0  0  0  0  0  0  0  0  0
    5.9387  -10.0641    0.0000 N   0  0  0  0  0  0  0  0  0  0  0  0
    5.2200  -10.4692    0.0000 C   0  0  0  0  0  0  0  0  0  0  0  0
    4.5098  -10.0494    0.0000 C   0  0  0  0  0  0  0  0  0  0  0  0
    5.2116  -11.2942    0.0000 O   0  0  0  0  0  0  0  0  0  0  0  0
    8.0778  -10.4984    0.0000 C   0  0  0  0  0  0  0  0  0  0  0  0
    7.3759   -9.2537    0.0000 O   0  0  0  0  0  0  0  0  0  0  0  0
    6.6657   -8.8339    0.0000 C   0  0  0  0  0  0  0  0  0  0  0  0
    6.6742   -8.0089    0.0000 C   0  0  0  0  0  0  0  0  0  0  0  0
    5.9471   -9.2390    0.0000 O   0  0  0  0  0  0  0  0  0  0  0  0
    8.0694  -11.3234    0.0000 O   0  0  0  0  0  0  0  0  0  0  0  0
    8.7964  -10.0932    0.0000 C   0  0  0  0  0  0  0  0  0  0  0  0
    9.5067  -10.5130    0.0000 C   0  0  0  0  0  0  0  0  0  0  0  0
    8.8048   -9.2682    0.0000 O   0  0  0  0  0  0  0  0  0  0  0  0
    9.5234   -8.8631    0.0000 C   0  0  0  0  0  0  0  0  0  0  0  0
    9.5319   -8.0381    0.0000 O   0  0  0  0  0  0  0  0  0  0  0  0
   10.2337   -9.2829    0.0000 C   0  0  0  0  0  0  0  0  0  0  0  0
   10.2253  -10.1078    0.0000 O   0  0  0  0  0  0  0  0  0  0  0  0
   10.9355  -10.5275    0.0000 C   0  0  0  0  0  0  0  0  0  0  0  0
   11.6541  -10.1223    0.0000 C   0  0  0  0  0  0  0  0  0  0  0  0
   10.9271  -11.3524    0.0000 O   0  0  0  0  0  0  0  0  0  0  0  0
    8.7796  -11.7431    0.0000 C   0  0  0  0  0  0  0  0  0  0  0  0
    8.7711  -12.5681    0.0000 O   0  0  0  0  0  0  0  0  0  0  0  0
    9.4982  -11.3379    0.0000 C   0  0  0  0  0  0  0  0  0  0  0  0
    4.5206   -9.2234    0.0000 C   0  0  0  0  0  0  0  0  0  0  0  0
    3.8112   -8.8037    0.0000 C   0  0  0  0  0  0  0  0  0  0  0  0
    3.0916   -9.2090    0.0000 C   0  0  0  0  0  0  0  0  0  0  0  0
    3.0857  -10.0382    0.0000 C   0  0  0  0  0  0  0  0  0  0  0  0
    3.7957  -10.4542    0.0000 C   0  0  0  0  0  0  0  0  0  0  0  0
    2.3685  -10.4460    0.0000 C   0  0  0  0  0  0  0  0  0  0  0  0
    2.3807   -8.7902    0.0000 C   0  0  0  0  0  0  0  0  0  0  0  0
  1  2  1  0
  2  3  1  0
  3  4  1  0
  4  5  1  0
  4  6  2  0
  1  7  1  0
  1  8  1  0
  8  9  1  0
  9 10  1  0
  9 11  2  0
  7 12  1  0
  7 13  1  0
 13 14  1  0
 13 15  1  0
 15 16  1  0
 16 17  2  0
 16 18  1  0
 14 19  1  0
 19 20  1  0
 20 21  1  0
 20 22  2  0
 12 23  1  0
 23 24  2  0
 23 25  1  0
  5 26  2  0
 26 27  1  0
 27 28  2  0
 28 29  1  0
 29 30  2  0
 30  5  1  0
 29 31  1  0
 28 32  1  0
M  END
>  <Classification>  (574) 
0

>  <pchembl>  (574) 
4.81

>  <InChI_steorem>  (574) 
InChI=1S/C22H29NO9/c1-12-7-8-18(9-13(12)2)22(28)23-10-19(30-15(4)25)21(32-17(6)27)20(31-16(5)26)11-29-14(3)24/h7-9,19-21H,10-11H2,1-6H3,(H,23,28)

>  <source>  (574) 
ChEMBL25

>  <source_id>  (574) 
25

>  <optional_reference>  (574) 
10.1039/C2MD20286G

>  <optional_origin>  (574) 
None

>  <target>  (574) 
MDR1

$$$$

     RDKit          2D

 48 55  0  0  0  0  0  0  0  0999 V2000
   17.2611  -17.7162    0.0000 C   0  0  0  0  0  0  0  0  0  0  0  0
   13.7658  -17.3306    0.0000 C   0  0  0  0  0  0  0  0  0  0  0  0
    8.2372  -10.2216    0.0000 C   0  0  0  0  0  0  0  0  0  0  0  0
   10.7272  -13.7298    0.0000 C   0  0  0  0  0  0  0  0  0  0  0  0
   20.4464  -21.3271    0.0000 C   0  0  0  0  0  0  0  0  0  0  0  0
    8.9562  -13.1053    0.0000 N   0  0  0  0  0  0  0  0  0  0  0  0
   17.0872  -16.9101    0.0000 C   0  0  0  0  0  0  0  0  0  0  0  0
    8.2435  -11.8618    0.0000 N   0  0  0  0  0  0  0  0  0  0  0  0
   18.2013  -18.8512    0.0000 C   0  0  0  0  0  0  0  0  0  0  0  0
   16.5500  -18.1330    0.0000 C   0  0  0  0  0  0  0  0  0  0  0  0
   11.5180  -14.8032    0.0000 C   0  0  0  0  0  0  0  0  0  0  0  0
   19.3494  -18.1756    0.0000 N   0  0  0  0  0  0  0  0  0  0  0  0
   15.9351  -17.5908    0.0000 C   0  0  0  0  0  0  0  0  0  0  0  0
    7.8124   -9.4996    0.0000 C   0  0  0  0  0  0  0  0  0  0  0  0
   12.4025  -16.8968    0.0000 C   0  0  0  0  0  0  0  0  0  0  0  0
   10.7352  -15.0688    0.0000 C   0  0  0  0  0  0  0  0  0  0  0  0
    8.9544  -11.4494    0.0000 C   0  0  0  0  0  0  0  0  0  0  0  0
   17.5816  -20.9371    0.0000 N   0  0  0  0  0  0  0  0  0  0  0  0
   20.5183  -20.5095    0.0000 C   0  0  0  0  0  0  0  0  0  0  0  0
   17.7219  -19.5154    0.0000 N   0  0  0  0  0  0  0  0  0  0  0  0
   10.4697  -12.9477    0.0000 N   0  0  0  0  0  0  0  0  0  0  0  0
    8.2424  -12.6931    0.0000 C   0  0  0  0  0  0  0  0  0  0  0  0
    8.9520  -10.6243    0.0000 N   0  0  0  0  0  0  0  0  0  0  0  0
   18.0588  -20.2637    0.0000 C   0  0  0  0  0  0  0  0  0  0  0  0
    7.5214  -13.1062    0.0000 N   0  0  0  0  0  0  0  0  0  0  0  0
   10.4863  -15.8547    0.0000 C   0  0  0  0  0  0  0  0  0  0  0  0
    7.4059  -10.2217    0.0000 C   0  0  0  0  0  0  0  0  0  0  0  0
   13.2086  -16.7228    0.0000 C   0  0  0  0  0  0  0  0  0  0  0  0
   18.8801  -20.3438    0.0000 N   0  0  0  0  0  0  0  0  0  0  0  0
   16.2661  -16.8321    0.0000 C   0  0  0  0  0  0  0  0  0  0  0  0
   11.8454  -16.2888    0.0000 C   0  0  0  0  0  0  0  0  0  0  0  0
   11.0393  -16.4627    0.0000 O   0  0  0  0  0  0  0  0  0  0  0  0
   21.1968  -20.9861    0.0000 C   0  0  0  0  0  0  0  0  0  0  0  0
   19.3558  -19.6787    0.0000 C   0  0  0  0  0  0  0  0  0  0  0  0
   10.4619  -11.5990    0.0000 N   0  0  0  0  0  0  0  0  0  0  0  0
    9.6730  -11.8654    0.0000 C   0  0  0  0  0  0  0  0  0  0  0  0
   15.1249  -17.7646    0.0000 C   0  0  0  0  0  0  0  0  0  0  0  0
   13.5129  -18.1166    0.0000 O   0  0  0  0  0  0  0  0  0  0  0  0
   18.0164  -18.0508    0.0000 N   0  0  0  0  0  0  0  0  0  0  0  0
   12.0983  -15.5028    0.0000 O   0  0  0  0  0  0  0  0  0  0  0  0
   19.0190  -18.9308    0.0000 C   0  0  0  0  0  0  0  0  0  0  0  0
   10.9552  -12.2742    0.0000 C   0  0  0  0  0  0  0  0  0  0  0  0
    9.6781  -12.6931    0.0000 C   0  0  0  0  0  0  0  0  0  0  0  0
   18.7350  -17.6298    0.0000 C   0  0  0  0  0  0  0  0  0  0  0  0
   20.1773  -19.7549    0.0000 N   0  0  0  0  0  0  0  0  0  0  0  0
   14.5718  -17.1569    0.0000 O   0  0  0  0  0  0  0  0  0  0  0  0
   10.2454  -14.3998    0.0000 C   0  0  0  0  0  0  0  0  0  0  0  0
   11.5132  -13.9778    0.0000 C   0  0  0  0  0  0  0  0  0  0  0  0
 20 24  1  0
 34 45  1  0
 28  2  1  0
 10  1  1  0
 41 12  1  0
  1 39  1  0
  5 19  1  0
 27 14  1  0
 22 25  1  0
 17 23  1  0
 33  5  1  0
 22  6  2  0
 36 17  1  0
 29 34  1  0
 42 35  2  0
 31 15  1  0
 34 41  2  0
 47 16  1  0
  2 46  1  0
 43 21  1  0
 17  8  2  0
 35 36  1  0
 36 43  2  0
  2 38  2  0
 30 13  1  0
 48  4  1  0
 46 37  1  0
 13 37  1  0
  3 27  1  0
 13 10  1  0
  4 47  1  0
 41  9  1  0
 23  3  1  0
 21 42  1  0
 15 28  1  0
 39  9  1  0
 11 48  2  0
  1  7  1  0
 16 26  1  0
 24 18  1  0
 26 32  1  0
 45 19  1  0
  9 20  2  0
 44 39  1  0
  8 22  1  0
  4 21  1  0
  7 30  2  0
 32 31  1  0
 12 44  2  0
 31 40  2  0
 16 11  1  0
  6 43  1  0
 14  3  1  0
 24 29  2  0
 19 33  1  0
M  END
>  <Classification>  (575) 
0

>  <pchembl>  (575) 
4.3

>  <InChI_steorem>  (575) 
InChI=1S/C32H38N12O4/c33-31-39-27(37-19-3-4-19)25-29(41-31)43(15-35-25)21-7-1-17(11-21)13-47-23(45)9-10-24(46)48-14-18-2-8-22(12-18)44-16-36-26-28(38-20-5-6-20)40-32(34)42-30(26)44/h1-2,7-8,15-22H,3-6,9-14H2,(H3,33,37,39,41)(H3,34,38,40,42)

>  <source>  (575) 
ChEMBL25

>  <source_id>  (575) 
25

>  <optional_reference>  (575) 
10.1039/c3md00196b

>  <optional_origin>  (575) 
None

>  <target>  (575) 
MDR1

$$$$

     RDKit          2D

 51 58  0  0  0  0  0  0  0  0999 V2000
    4.5190  -25.5854    0.0000 N   0  0  0  0  0  0  0  0  0  0  0  0
    4.5172  -26.4061    0.0000 C   0  0  0  0  0  0  0  0  0  0  0  0
    5.2268  -26.8153    0.0000 N   0  0  0  0  0  0  0  0  0  0  0  0
    5.2241  -25.1764    0.0000 C   0  0  0  0  0  0  0  0  0  0  0  0
    5.9345  -25.5841    0.0000 C   0  0  0  0  0  0  0  0  0  0  0  0
    5.9376  -26.4061    0.0000 C   0  0  0  0  0  0  0  0  0  0  0  0
    6.7216  -26.6566    0.0000 N   0  0  0  0  0  0  0  0  0  0  0  0
    7.2013  -25.9858    0.0000 C   0  0  0  0  0  0  0  0  0  0  0  0
    6.7141  -25.3239    0.0000 N   0  0  0  0  0  0  0  0  0  0  0  0
    6.9781  -27.4334    0.0000 C   0  0  0  0  0  0  0  0  0  0  0  0
    6.4997  -28.0970    0.0000 C   0  0  0  0  0  0  0  0  0  0  0  0
    6.9859  -28.7560    0.0000 C   0  0  0  0  0  0  0  0  0  0  0  0
    7.7608  -28.4984    0.0000 C   0  0  0  0  0  0  0  0  0  0  0  0
    7.7574  -27.6814    0.0000 C   0  0  0  0  0  0  0  0  0  0  0  0
    5.2205  -24.3516    0.0000 N   0  0  0  0  0  0  0  0  0  0  0  0
    4.5135  -23.9525    0.0000 C   0  0  0  0  0  0  0  0  0  0  0  0
    4.0962  -23.2385    0.0000 C   0  0  0  0  0  0  0  0  0  0  0  0
    3.6909  -23.9523    0.0000 C   0  0  0  0  0  0  0  0  0  0  0  0
    3.8076  -26.8138    0.0000 N   0  0  0  0  0  0  0  0  0  0  0  0
    6.7380  -29.5353    0.0000 C   0  0  0  0  0  0  0  0  0  0  0  0
    7.2869  -30.1369    0.0000 O   0  0  0  0  0  0  0  0  0  0  0  0
    8.0880  -29.9633    0.0000 C   0  0  0  0  0  0  0  0  0  0  0  0
    8.6370  -30.5691    0.0000 C   0  0  0  0  0  0  0  0  0  0  0  0
    8.3357  -29.1838    0.0000 O   0  0  0  0  0  0  0  0  0  0  0  0
    9.4340  -30.3912    0.0000 C   0  0  0  0  0  0  0  0  0  0  0  0
    9.9870  -30.9970    0.0000 C   0  0  0  0  0  0  0  0  0  0  0  0
   10.7840  -30.8232    0.0000 C   0  0  0  0  0  0  0  0  0  0  0  0
   11.3330  -31.4248    0.0000 C   0  0  0  0  0  0  0  0  0  0  0  0
   12.1339  -31.2512    0.0000 C   0  0  0  0  0  0  0  0  0  0  0  0
   12.3790  -30.4722    0.0000 O   0  0  0  0  0  0  0  0  0  0  0  0
   12.6821  -31.8579    0.0000 O   0  0  0  0  0  0  0  0  0  0  0  0
   13.1802  -30.2998    0.0000 C   0  0  0  0  0  0  0  0  0  0  0  0
   13.4293  -29.5208    0.0000 C   0  0  0  0  0  0  0  0  0  0  0  0
   14.2005  -29.2653    0.0000 C   0  0  0  0  0  0  0  0  0  0  0  0
   14.1986  -28.4482    0.0000 C   0  0  0  0  0  0  0  0  0  0  0  0
   13.4196  -28.1990    0.0000 C   0  0  0  0  0  0  0  0  0  0  0  0
   12.9402  -28.8618    0.0000 C   0  0  0  0  0  0  0  0  0  0  0  0
   14.8544  -27.9633    0.0000 N   0  0  0  0  0  0  0  0  0  0  0  0
   15.6293  -26.8824    0.0000 N   0  0  0  0  0  0  0  0  0  0  0  0
   14.8499  -27.1386    0.0000 C   0  0  0  0  0  0  0  0  0  0  0  0
   16.1101  -27.5423    0.0000 C   0  0  0  0  0  0  0  0  0  0  0  0
   15.6314  -28.2034    0.0000 C   0  0  0  0  0  0  0  0  0  0  0  0
   15.9668  -28.9418    0.0000 N   0  0  0  0  0  0  0  0  0  0  0  0
   16.7765  -29.0248    0.0000 C   0  0  0  0  0  0  0  0  0  0  0  0
   17.2531  -28.3604    0.0000 N   0  0  0  0  0  0  0  0  0  0  0  0
   16.9137  -27.6222    0.0000 C   0  0  0  0  0  0  0  0  0  0  0  0
   17.3910  -26.9578    0.0000 N   0  0  0  0  0  0  0  0  0  0  0  0
   18.2065  -27.0375    0.0000 C   0  0  0  0  0  0  0  0  0  0  0  0
   17.1130  -29.7692    0.0000 N   0  0  0  0  0  0  0  0  0  0  0  0
   18.8689  -27.5104    0.0000 C   0  0  0  0  0  0  0  0  0  0  0  0
   18.9486  -26.6950    0.0000 C   0  0  0  0  0  0  0  0  0  0  0  0
  1  2  2  0
  2  3  1  0
  3  6  2  0
  5  4  2  0
  4  1  1  0
  5  6  1  0
  6  7  1  0
  7  8  1  0
  8  9  2  0
  9  5  1  0
 10 11  1  0
 11 12  1  0
 12 13  1  0
 13 14  2  0
 14 10  1  0
 10  7  1  0
  4 15  1  0
 15 16  1  0
 17 16  1  0
 18 17  1  0
 16 18  1  0
  2 19  1  0
 12 20  1  0
 20 21  1  0
 21 22  1  0
 22 23  1  0
 22 24  2  0
 23 25  1  0
 25 26  1  0
 26 27  1  0
 27 28  1  0
 28 29  1  0
 29 30  1  0
 29 31  2  0
 30 32  1  0
 33 32  1  0
 33 34  1  0
 34 35  1  0
 35 36  1  0
 36 37  2  0
 37 33  1  0
 35 38  1  0
 38 42  1  0
 41 39  1  0
 39 40  2  0
 40 38  1  0
 41 42  2  0
 42 43  1  0
 43 44  2  0
 44 45  1  0
 45 46  2  0
 46 41  1  0
 46 47  1  0
 47 48  1  0
 44 49  1  0
 50 48  1  0
 51 50  1  0
 48 51  1  0
M  END
>  <Classification>  (576) 
1

>  <pchembl>  (576) 
5.39

>  <InChI_steorem>  (576) 
InChI=1S/C35H44N12O4/c36-34-42-30(40-22-8-9-22)28-32(44-34)46(18-38-28)24-12-6-20(14-24)16-50-26(48)4-2-1-3-5-27(49)51-17-21-7-13-25(15-21)47-19-39-29-31(41-23-10-11-23)43-35(37)45-33(29)47/h6-7,12-13,18-25H,1-5,8-11,14-17H2,(H3,36,40,42,44)(H3,37,41,43,45)

>  <source>  (576) 
ChEMBL25

>  <source_id>  (576) 
25

>  <optional_reference>  (576) 
10.1039/c3md00196b

>  <optional_origin>  (576) 
None

>  <target>  (576) 
MDR1

$$$$

     RDKit          2D

 53 60  0  0  0  0  0  0  0  0999 V2000
   15.4337  -30.0051    0.0000 C   0  0  0  0  0  0  0  0  0  0  0  0
   15.6828  -29.2259    0.0000 O   0  0  0  0  0  0  0  0  0  0  0  0
   15.9819  -30.6076    0.0000 O   0  0  0  0  0  0  0  0  0  0  0  0
   16.4800  -29.0535    0.0000 C   0  0  0  0  0  0  0  0  0  0  0  0
   16.7289  -28.2745    0.0000 C   0  0  0  0  0  0  0  0  0  0  0  0
   17.5003  -28.0148    0.0000 C   0  0  0  0  0  0  0  0  0  0  0  0
   17.4985  -27.1978    0.0000 C   0  0  0  0  0  0  0  0  0  0  0  0
   16.7194  -26.9486    0.0000 C   0  0  0  0  0  0  0  0  0  0  0  0
   16.2442  -27.6114    0.0000 C   0  0  0  0  0  0  0  0  0  0  0  0
   18.1583  -26.7127    0.0000 N   0  0  0  0  0  0  0  0  0  0  0  0
   18.9291  -25.6360    0.0000 N   0  0  0  0  0  0  0  0  0  0  0  0
   18.1497  -25.8923    0.0000 C   0  0  0  0  0  0  0  0  0  0  0  0
   19.4099  -26.2959    0.0000 C   0  0  0  0  0  0  0  0  0  0  0  0
   18.9353  -26.9530    0.0000 C   0  0  0  0  0  0  0  0  0  0  0  0
   19.2667  -27.6953    0.0000 N   0  0  0  0  0  0  0  0  0  0  0  0
   20.0763  -27.7785    0.0000 C   0  0  0  0  0  0  0  0  0  0  0  0
   20.5532  -27.1141    0.0000 N   0  0  0  0  0  0  0  0  0  0  0  0
   20.2179  -26.3757    0.0000 C   0  0  0  0  0  0  0  0  0  0  0  0
   20.6910  -25.7114    0.0000 N   0  0  0  0  0  0  0  0  0  0  0  0
   21.5065  -25.7911    0.0000 C   0  0  0  0  0  0  0  0  0  0  0  0
   20.4130  -28.5229    0.0000 N   0  0  0  0  0  0  0  0  0  0  0  0
   22.1691  -26.2599    0.0000 C   0  0  0  0  0  0  0  0  0  0  0  0
   22.2485  -25.4444    0.0000 C   0  0  0  0  0  0  0  0  0  0  0  0
    6.4627  -23.9051    0.0000 N   0  0  0  0  0  0  0  0  0  0  0  0
    6.4644  -24.7259    0.0000 C   0  0  0  0  0  0  0  0  0  0  0  0
    7.1672  -25.1309    0.0000 N   0  0  0  0  0  0  0  0  0  0  0  0
    7.1699  -23.4960    0.0000 C   0  0  0  0  0  0  0  0  0  0  0  0
    7.8800  -23.8997    0.0000 C   0  0  0  0  0  0  0  0  0  0  0  0
    7.8853  -24.7260    0.0000 C   0  0  0  0  0  0  0  0  0  0  0  0
    8.6685  -24.9725    0.0000 N   0  0  0  0  0  0  0  0  0  0  0  0
    9.1446  -24.3057    0.0000 C   0  0  0  0  0  0  0  0  0  0  0  0
    8.6594  -23.6436    0.0000 N   0  0  0  0  0  0  0  0  0  0  0  0
    8.9235  -25.7533    0.0000 C   0  0  0  0  0  0  0  0  0  0  0  0
    8.4505  -26.4168    0.0000 C   0  0  0  0  0  0  0  0  0  0  0  0
    8.9327  -27.0716    0.0000 C   0  0  0  0  0  0  0  0  0  0  0  0
    9.7129  -26.8182    0.0000 C   0  0  0  0  0  0  0  0  0  0  0  0
    9.7056  -26.0012    0.0000 C   0  0  0  0  0  0  0  0  0  0  0  0
    7.1652  -22.6788    0.0000 N   0  0  0  0  0  0  0  0  0  0  0  0
    6.4597  -22.2736    0.0000 C   0  0  0  0  0  0  0  0  0  0  0  0
    6.0432  -21.5626    0.0000 C   0  0  0  0  0  0  0  0  0  0  0  0
    5.6396  -22.2736    0.0000 C   0  0  0  0  0  0  0  0  0  0  0  0
    5.7534  -25.1337    0.0000 N   0  0  0  0  0  0  0  0  0  0  0  0
    8.6859  -27.8512    0.0000 C   0  0  0  0  0  0  0  0  0  0  0  0
    9.2348  -28.4569    0.0000 O   0  0  0  0  0  0  0  0  0  0  0  0
   10.0360  -28.2832    0.0000 C   0  0  0  0  0  0  0  0  0  0  0  0
   10.5892  -28.8849    0.0000 C   0  0  0  0  0  0  0  0  0  0  0  0
   10.2838  -27.5038    0.0000 O   0  0  0  0  0  0  0  0  0  0  0  0
   11.3861  -28.7111    0.0000 C   0  0  0  0  0  0  0  0  0  0  0  0
   11.9352  -29.3169    0.0000 C   0  0  0  0  0  0  0  0  0  0  0  0
   12.7362  -29.1392    0.0000 C   0  0  0  0  0  0  0  0  0  0  0  0
   13.2853  -29.7450    0.0000 C   0  0  0  0  0  0  0  0  0  0  0  0
   14.0823  -29.5712    0.0000 C   0  0  0  0  0  0  0  0  0  0  0  0
   14.6313  -30.1728    0.0000 C   0  0  0  0  0  0  0  0  0  0  0  0
  1  2  1  0
  1  3  2  0
  2  4  1  0
  5  4  1  0
  5  6  1  0
  6  7  1  0
  7  8  1  0
  8  9  2  0
  9  5  1  0
  7 10  1  0
 10 14  1  0
 13 11  1  0
 11 12  2  0
 12 10  1  0
 13 14  2  0
 14 15  1  0
 15 16  2  0
 16 17  1  0
 17 18  2  0
 18 13  1  0
 18 19  1  0
 19 20  1  0
 16 21  1  0
 22 20  1  0
 23 22  1  0
 20 23  1  0
 24 25  2  0
 25 26  1  0
 26 29  2  0
 28 27  2  0
 27 24  1  0
 28 29  1  0
 29 30  1  0
 30 31  1  0
 31 32  2  0
 32 28  1  0
 33 34  1  0
 34 35  1  0
 35 36  1  0
 36 37  2  0
 37 33  1  0
 33 30  1  0
 27 38  1  0
 38 39  1  0
 40 39  1  0
 41 40  1  0
 39 41  1  0
 25 42  1  0
 35 43  1  0
 43 44  1  0
 44 45  1  0
 45 46  1  0
 45 47  2  0
 46 48  1  0
 48 49  1  0
 49 50  1  0
 50 51  1  0
 51 52  1  0
 52 53  1  0
 53  1  1  0
M  END
>  <Classification>  (577) 
1

>  <pchembl>  (577) 
5.42

>  <InChI_steorem>  (577) 
InChI=1S/C37H48N12O4/c38-36-44-32(42-24-10-11-24)30-34(46-36)48(20-40-30)26-14-8-22(16-26)18-52-28(50)6-4-2-1-3-5-7-29(51)53-19-23-9-15-27(17-23)49-21-41-31-33(43-25-12-13-25)45-37(39)47-35(31)49/h8-9,14-15,20-27H,1-7,10-13,16-19H2,(H3,38,42,44,46)(H3,39,43,45,47)

>  <source>  (577) 
ChEMBL25

>  <source_id>  (577) 
25

>  <optional_reference>  (577) 
10.1039/c3md00196b

>  <optional_origin>  (577) 
None

>  <target>  (577) 
MDR1

$$$$

     RDKit          2D

 54 61  0  0  0  0  0  0  0  0999 V2000
   15.5041  -25.4676    0.0000 C   0  0  0  0  0  0  0  0  0  0  0  0
   16.3009  -25.2942    0.0000 O   0  0  0  0  0  0  0  0  0  0  0  0
   15.2562  -26.2472    0.0000 O   0  0  0  0  0  0  0  0  0  0  0  0
   16.8498  -25.8957    0.0000 C   0  0  0  0  0  0  0  0  0  0  0  0
   17.6510  -25.7220    0.0000 C   0  0  0  0  0  0  0  0  0  0  0  0
   18.2589  -26.2632    0.0000 C   0  0  0  0  0  0  0  0  0  0  0  0
   18.9684  -25.8484    0.0000 C   0  0  0  0  0  0  0  0  0  0  0  0
   18.7907  -25.0513    0.0000 C   0  0  0  0  0  0  0  0  0  0  0  0
   17.9795  -24.9707    0.0000 C   0  0  0  0  0  0  0  0  0  0  0  0
   19.7146  -26.1763    0.0000 N   0  0  0  0  0  0  0  0  0  0  0  0
   21.0364  -26.3017    0.0000 N   0  0  0  0  0  0  0  0  0  0  0  0
   20.4251  -25.7593    0.0000 C   0  0  0  0  0  0  0  0  0  0  0  0
   20.7046  -27.0521    0.0000 C   0  0  0  0  0  0  0  0  0  0  0  0
   19.8944  -26.9689    0.0000 C   0  0  0  0  0  0  0  0  0  0  0  0
   19.4196  -27.6293    0.0000 N   0  0  0  0  0  0  0  0  0  0  0  0
   19.7572  -28.3694    0.0000 C   0  0  0  0  0  0  0  0  0  0  0  0
   20.5684  -28.4470    0.0000 N   0  0  0  0  0  0  0  0  0  0  0  0
   21.0419  -27.7893    0.0000 C   0  0  0  0  0  0  0  0  0  0  0  0
   21.8532  -27.8674    0.0000 N   0  0  0  0  0  0  0  0  0  0  0  0
   22.1927  -28.6109    0.0000 C   0  0  0  0  0  0  0  0  0  0  0  0
   19.2794  -29.0333    0.0000 N   0  0  0  0  0  0  0  0  0  0  0  0
   22.1167  -29.4206    0.0000 C   0  0  0  0  0  0  0  0  0  0  0  0
   22.8600  -29.0813    0.0000 C   0  0  0  0  0  0  0  0  0  0  0  0
    5.9898  -18.7690    0.0000 N   0  0  0  0  0  0  0  0  0  0  0  0
    5.9881  -19.5908    0.0000 C   0  0  0  0  0  0  0  0  0  0  0  0
    6.6977  -19.9940    0.0000 N   0  0  0  0  0  0  0  0  0  0  0  0
    6.6950  -18.3608    0.0000 C   0  0  0  0  0  0  0  0  0  0  0  0
    7.4054  -18.7702    0.0000 C   0  0  0  0  0  0  0  0  0  0  0  0
    7.4087  -19.5908    0.0000 C   0  0  0  0  0  0  0  0  0  0  0  0
    8.1926  -19.8356    0.0000 N   0  0  0  0  0  0  0  0  0  0  0  0
    8.6721  -19.1732    0.0000 C   0  0  0  0  0  0  0  0  0  0  0  0
    8.1849  -18.5104    0.0000 N   0  0  0  0  0  0  0  0  0  0  0  0
    8.4489  -20.6123    0.0000 C   0  0  0  0  0  0  0  0  0  0  0  0
    7.9707  -21.2797    0.0000 C   0  0  0  0  0  0  0  0  0  0  0  0
    8.4567  -21.9346    0.0000 C   0  0  0  0  0  0  0  0  0  0  0  0
    9.2316  -21.6771    0.0000 C   0  0  0  0  0  0  0  0  0  0  0  0
    9.2284  -20.8600    0.0000 C   0  0  0  0  0  0  0  0  0  0  0  0
    6.6913  -17.5436    0.0000 N   0  0  0  0  0  0  0  0  0  0  0  0
    5.9846  -17.1401    0.0000 C   0  0  0  0  0  0  0  0  0  0  0  0
    5.5713  -16.4269    0.0000 C   0  0  0  0  0  0  0  0  0  0  0  0
    5.1617  -17.1400    0.0000 C   0  0  0  0  0  0  0  0  0  0  0  0
    5.2825  -19.9925    0.0000 N   0  0  0  0  0  0  0  0  0  0  0  0
    8.2088  -22.7140    0.0000 C   0  0  0  0  0  0  0  0  0  0  0  0
    8.7620  -23.3197    0.0000 O   0  0  0  0  0  0  0  0  0  0  0  0
    9.5589  -23.1419    0.0000 C   0  0  0  0  0  0  0  0  0  0  0  0
   10.1079  -23.7477    0.0000 C   0  0  0  0  0  0  0  0  0  0  0  0
    9.8067  -22.3666    0.0000 O   0  0  0  0  0  0  0  0  0  0  0  0
   10.9048  -23.5739    0.0000 C   0  0  0  0  0  0  0  0  0  0  0  0
   11.4580  -24.1797    0.0000 C   0  0  0  0  0  0  0  0  0  0  0  0
   12.2549  -24.0020    0.0000 C   0  0  0  0  0  0  0  0  0  0  0  0
   12.8039  -24.6078    0.0000 C   0  0  0  0  0  0  0  0  0  0  0  0
   13.6049  -24.4340    0.0000 C   0  0  0  0  0  0  0  0  0  0  0  0
   14.1540  -25.0398    0.0000 C   0  0  0  0  0  0  0  0  0  0  0  0
   14.9508  -24.8618    0.0000 C   0  0  0  0  0  0  0  0  0  0  0  0
  1  2  1  0
  1  3  2  0
  2  4  1  0
  5  4  1  0
  5  6  1  0
  6  7  1  0
  7  8  1  0
  8  9  2  0
  9  5  1  0
  7 10  1  0
 10 14  1  0
 13 11  1  0
 11 12  2  0
 12 10  1  0
 13 14  2  0
 14 15  1  0
 15 16  2  0
 16 17  1  0
 17 18  2  0
 18 13  1  0
 18 19  1  0
 19 20  1  0
 16 21  1  0
 22 20  1  0
 23 22  1  0
 20 23  1  0
 24 25  2  0
 25 26  1  0
 26 29  2  0
 28 27  2  0
 27 24  1  0
 28 29  1  0
 29 30  1  0
 30 31  1  0
 31 32  2  0
 32 28  1  0
 33 34  1  0
 34 35  1  0
 35 36  1  0
 36 37  2  0
 37 33  1  0
 33 30  1  0
 27 38  1  0
 38 39  1  0
 40 39  1  0
 41 40  1  0
 39 41  1  0
 25 42  1  0
 35 43  1  0
 43 44  1  0
 44 45  1  0
 45 46  1  0
 45 47  2  0
 46 48  1  0
 48 49  1  0
 49 50  1  0
 50 51  1  0
 51 52  1  0
 52 53  1  0
 53 54  1  0
 54  1  1  0
M  END
>  <Classification>  (578) 
1

>  <pchembl>  (578) 
6.62

>  <InChI_steorem>  (578) 
InChI=1S/C38H50N12O4/c39-37-45-33(43-25-11-12-25)31-35(47-37)49(21-41-31)27-15-9-23(17-27)19-53-29(51)7-5-3-1-2-4-6-8-30(52)54-20-24-10-16-28(18-24)50-22-42-32-34(44-26-13-14-26)46-38(40)48-36(32)50/h9-10,15-16,21-28H,1-8,11-14,17-20H2,(H3,39,43,45,47)(H3,40,44,46,48)

>  <source>  (578) 
ChEMBL25

>  <source_id>  (578) 
25

>  <optional_reference>  (578) 
10.1039/c3md00196b

>  <optional_origin>  (578) 
None

>  <target>  (578) 
MDR1

$$$$

     RDKit          2D

 56 63  0  0  0  0  0  0  0  0999 V2000
   15.1338  -22.6030    0.0000 C   0  0  0  0  0  0  0  0  0  0  0  0
   15.9349  -22.4294    0.0000 O   0  0  0  0  0  0  0  0  0  0  0  0
   14.8860  -23.3825    0.0000 O   0  0  0  0  0  0  0  0  0  0  0  0
   16.4840  -23.0309    0.0000 C   0  0  0  0  0  0  0  0  0  0  0  0
   17.2809  -22.8573    0.0000 C   0  0  0  0  0  0  0  0  0  0  0  0
   17.8929  -23.3985    0.0000 C   0  0  0  0  0  0  0  0  0  0  0  0
   18.5986  -22.9836    0.0000 C   0  0  0  0  0  0  0  0  0  0  0  0
   18.4248  -22.1867    0.0000 C   0  0  0  0  0  0  0  0  0  0  0  0
   17.6095  -22.1060    0.0000 C   0  0  0  0  0  0  0  0  0  0  0  0
   19.3446  -23.3115    0.0000 N   0  0  0  0  0  0  0  0  0  0  0  0
   20.6666  -23.4412    0.0000 N   0  0  0  0  0  0  0  0  0  0  0  0
   20.0553  -22.8947    0.0000 C   0  0  0  0  0  0  0  0  0  0  0  0
   20.3387  -24.1873    0.0000 C   0  0  0  0  0  0  0  0  0  0  0  0
   19.5286  -24.1043    0.0000 C   0  0  0  0  0  0  0  0  0  0  0  0
   19.0539  -24.7647    0.0000 N   0  0  0  0  0  0  0  0  0  0  0  0
   19.3872  -25.5048    0.0000 C   0  0  0  0  0  0  0  0  0  0  0  0
   20.2027  -25.5865    0.0000 N   0  0  0  0  0  0  0  0  0  0  0  0
   20.6720  -24.9246    0.0000 C   0  0  0  0  0  0  0  0  0  0  0  0
   21.4877  -25.0030    0.0000 N   0  0  0  0  0  0  0  0  0  0  0  0
   21.8227  -25.7461    0.0000 C   0  0  0  0  0  0  0  0  0  0  0  0
   18.9137  -26.1728    0.0000 N   0  0  0  0  0  0  0  0  0  0  0  0
   21.7511  -26.5560    0.0000 C   0  0  0  0  0  0  0  0  0  0  0  0
   22.4942  -26.2167    0.0000 C   0  0  0  0  0  0  0  0  0  0  0  0
    4.2692  -15.4748    0.0000 N   0  0  0  0  0  0  0  0  0  0  0  0
    4.2709  -16.2918    0.0000 C   0  0  0  0  0  0  0  0  0  0  0  0
    4.9736  -16.7010    0.0000 N   0  0  0  0  0  0  0  0  0  0  0  0
    4.9764  -15.0668    0.0000 C   0  0  0  0  0  0  0  0  0  0  0  0
    5.6865  -15.4763    0.0000 C   0  0  0  0  0  0  0  0  0  0  0  0
    5.6876  -16.2919    0.0000 C   0  0  0  0  0  0  0  0  0  0  0  0
    6.4750  -16.5425    0.0000 N   0  0  0  0  0  0  0  0  0  0  0  0
    6.9510  -15.8758    0.0000 C   0  0  0  0  0  0  0  0  0  0  0  0
    6.4660  -15.2165    0.0000 N   0  0  0  0  0  0  0  0  0  0  0  0
    6.7300  -17.3194    0.0000 C   0  0  0  0  0  0  0  0  0  0  0  0
    6.2529  -17.9826    0.0000 C   0  0  0  0  0  0  0  0  0  0  0  0
    6.7393  -18.6417    0.0000 C   0  0  0  0  0  0  0  0  0  0  0  0
    7.5147  -18.3844    0.0000 C   0  0  0  0  0  0  0  0  0  0  0  0
    7.5097  -17.5671    0.0000 C   0  0  0  0  0  0  0  0  0  0  0  0
    4.9676  -14.2495    0.0000 N   0  0  0  0  0  0  0  0  0  0  0  0
    4.2662  -13.8460    0.0000 C   0  0  0  0  0  0  0  0  0  0  0  0
    3.8456  -13.1331    0.0000 C   0  0  0  0  0  0  0  0  0  0  0  0
    3.4461  -13.8459    0.0000 C   0  0  0  0  0  0  0  0  0  0  0  0
    3.5557  -16.6996    0.0000 N   0  0  0  0  0  0  0  0  0  0  0  0
    6.4883  -19.4213    0.0000 C   0  0  0  0  0  0  0  0  0  0  0  0
    7.0372  -20.0271    0.0000 O   0  0  0  0  0  0  0  0  0  0  0  0
    7.8424  -19.8491    0.0000 C   0  0  0  0  0  0  0  0  0  0  0  0
    8.3916  -20.4549    0.0000 C   0  0  0  0  0  0  0  0  0  0  0  0
    8.0902  -19.0738    0.0000 O   0  0  0  0  0  0  0  0  0  0  0  0
    9.1885  -20.2813    0.0000 C   0  0  0  0  0  0  0  0  0  0  0  0
    9.7417  -20.8830    0.0000 C   0  0  0  0  0  0  0  0  0  0  0  0
   10.5386  -20.7092    0.0000 C   0  0  0  0  0  0  0  0  0  0  0  0
   11.0876  -21.3150    0.0000 C   0  0  0  0  0  0  0  0  0  0  0  0
   11.8886  -21.1412    0.0000 C   0  0  0  0  0  0  0  0  0  0  0  0
   12.4378  -21.7429    0.0000 C   0  0  0  0  0  0  0  0  0  0  0  0
   13.2346  -21.5694    0.0000 C   0  0  0  0  0  0  0  0  0  0  0  0
   13.7880  -22.1750    0.0000 C   0  0  0  0  0  0  0  0  0  0  0  0
   14.5848  -21.9972    0.0000 C   0  0  0  0  0  0  0  0  0  0  0  0
  1  2  1  0
  1  3  2  0
  2  4  1  0
  5  4  1  0
  5  6  1  0
  6  7  1  0
  7  8  1  0
  8  9  2  0
  9  5  1  0
  7 10  1  0
 10 14  1  0
 13 11  1  0
 11 12  2  0
 12 10  1  0
 13 14  2  0
 14 15  1  0
 15 16  2  0
 16 17  1  0
 17 18  2  0
 18 13  1  0
 18 19  1  0
 19 20  1  0
 16 21  1  0
 22 20  1  0
 23 22  1  0
 20 23  1  0
 24 25  2  0
 25 26  1  0
 26 29  2  0
 28 27  2  0
 27 24  1  0
 28 29  1  0
 29 30  1  0
 30 31  1  0
 31 32  2  0
 32 28  1  0
 33 34  1  0
 34 35  1  0
 35 36  1  0
 36 37  2  0
 37 33  1  0
 33 30  1  0
 27 38  1  0
 38 39  1  0
 40 39  1  0
 41 40  1  0
 39 41  1  0
 25 42  1  0
 35 43  1  0
 43 44  1  0
 44 45  1  0
 45 46  1  0
 45 47  2  0
 46 48  1  0
 48 49  1  0
 49 50  1  0
 50 51  1  0
 51 52  1  0
 52 53  1  0
 53 54  1  0
 54 55  1  0
 55 56  1  0
 56  1  1  0
M  END
>  <Classification>  (579) 
1

>  <pchembl>  (579) 
5.96

>  <InChI_steorem>  (579) 
InChI=1S/C40H54N12O4/c41-39-47-35(45-27-13-14-27)33-37(49-39)51(23-43-33)29-17-11-25(19-29)21-55-31(53)9-7-5-3-1-2-4-6-8-10-32(54)56-22-26-12-18-30(20-26)52-24-44-34-36(46-28-15-16-28)48-40(42)50-38(34)52/h11-12,17-18,23-30H,1-10,13-16,19-22H2,(H3,41,45,47,49)(H3,42,46,48,50)

>  <source>  (579) 
ChEMBL25

>  <source_id>  (579) 
25

>  <optional_reference>  (579) 
10.1039/c3md00196b

>  <optional_origin>  (579) 
None

>  <target>  (579) 
MDR1

$$$$

     RDKit          2D

 52 55  0  0  0  0  0  0  0  0999 V2000
    2.6378   -8.0840    0.0000 N   0  0  0  0  0  0  0  0  0  0  0  0
    3.4139   -7.8102    0.0000 N   0  0  0  0  0  0  0  0  0  0  0  0
    4.1901   -7.5313    0.0000 N   0  0  0  0  0  0  0  0  0  0  0  0
    2.2305   -9.8355    0.0000 C   0  0  0  0  0  0  0  0  0  0  0  0
    1.6909   -9.2098    0.0000 C   0  0  0  0  0  0  0  0  0  0  0  0
    0.8674   -9.2766    0.0000 O   0  0  0  0  0  0  0  0  0  0  0  0
    0.5476   -8.5160    0.0000 C   0  0  0  0  0  0  0  0  0  0  0  0
    1.1722   -7.9769    0.0000 C   0  0  0  0  0  0  0  0  0  0  0  0
    1.8779   -8.4044    0.0000 C   0  0  0  0  0  0  0  0  0  0  0  0
   -0.2209   -8.2138    0.0000 N   0  0  0  0  0  0  0  0  0  0  0  0
   -0.7214   -8.8687    0.0000 C   0  0  0  0  0  0  0  0  0  0  0  0
   -1.5363   -8.7651    0.0000 N   0  0  0  0  0  0  0  0  0  0  0  0
   -1.8576   -8.0048    0.0000 C   0  0  0  0  0  0  0  0  0  0  0  0
   -1.3576   -7.3473    0.0000 C   0  0  0  0  0  0  0  0  0  0  0  0
   -0.5364   -7.4501    0.0000 C   0  0  0  0  0  0  0  0  0  0  0  0
   -2.6761   -7.9019    0.0000 O   0  0  0  0  0  0  0  0  0  0  0  0
   -0.4034   -9.6300    0.0000 O   0  0  0  0  0  0  0  0  0  0  0  0
   -1.6774   -6.5868    0.0000 C   0  0  0  0  0  0  0  0  0  0  0  0
    2.2321  -10.6605    0.0000 O   0  0  0  0  0  0  0  0  0  0  0  0
   12.3302  -13.7614    0.0000 N   0  0  0  0  0  0  0  0  0  0  0  0
   12.0432  -14.5327    0.0000 N   0  0  0  0  0  0  0  0  0  0  0  0
   11.7601  -15.3074    0.0000 N   0  0  0  0  0  0  0  0  0  0  0  0
   12.5541  -12.9666    0.0000 C   0  0  0  0  0  0  0  0  0  0  0  0
   13.3750  -12.9666    0.0000 C   0  0  0  0  0  0  0  0  0  0  0  0
    3.6611  -10.6651    0.0000 C   0  0  0  0  0  0  0  0  0  0  0  0
    2.9453  -11.0753    0.0000 C   0  0  0  0  0  0  0  0  0  0  0  0
    2.9426  -11.9003    0.0000 O   0  0  0  0  0  0  0  0  0  0  0  0
   13.6359  -12.1825    0.0000 C   0  0  0  0  0  0  0  0  0  0  0  0
   12.9666  -11.6958    0.0000 O   0  0  0  0  0  0  0  0  0  0  0  0
   12.3016  -12.1825    0.0000 C   0  0  0  0  0  0  0  0  0  0  0  0
   14.4216  -11.9286    0.0000 N   0  0  0  0  0  0  0  0  0  0  0  0
   11.5169  -11.9279    0.0000 C   0  0  0  0  0  0  0  0  0  0  0  0
   11.5189  -11.1029    0.0000 O   0  0  0  0  0  0  0  0  0  0  0  0
   15.1286  -12.3565    0.0000 C   0  0  0  0  0  0  0  0  0  0  0  0
   15.8483  -11.9605    0.0000 N   0  0  0  0  0  0  0  0  0  0  0  0
   15.8676  -11.1354    0.0000 C   0  0  0  0  0  0  0  0  0  0  0  0
   15.1609  -10.7078    0.0000 C   0  0  0  0  0  0  0  0  0  0  0  0
   14.4350  -11.1053    0.0000 C   0  0  0  0  0  0  0  0  0  0  0  0
   15.1787   -9.8830    0.0000 C   0  0  0  0  0  0  0  0  0  0  0  0
   16.5909  -10.7387    0.0000 O   0  0  0  0  0  0  0  0  0  0  0  0
   15.1116  -13.1813    0.0000 O   0  0  0  0  0  0  0  0  0  0  0  0
   10.8057  -10.6881    0.0000 C   0  0  0  0  0  0  0  0  0  0  0  0
   10.8084   -9.8631    0.0000 O   0  0  0  0  0  0  0  0  0  0  0  0
   10.0900  -11.0983    0.0000 C   0  0  0  0  0  0  0  0  0  0  0  0
    9.3768  -10.6835    0.0000 C   0  0  0  0  0  0  0  0  0  0  0  0
    8.6610  -11.0937    0.0000 C   0  0  0  0  0  0  0  0  0  0  0  0
    7.9479  -10.6789    0.0000 C   0  0  0  0  0  0  0  0  0  0  0  0
    7.2321  -11.0891    0.0000 C   0  0  0  0  0  0  0  0  0  0  0  0
    6.5189  -10.6743    0.0000 C   0  0  0  0  0  0  0  0  0  0  0  0
    5.8031  -11.0845    0.0000 C   0  0  0  0  0  0  0  0  0  0  0  0
    5.0900  -10.6697    0.0000 C   0  0  0  0  0  0  0  0  0  0  0  0
    4.3742  -11.0799    0.0000 C   0  0  0  0  0  0  0  0  0  0  0  0
  1  2  2  0
  2  3  2  0
 11 17  2  0
 14 18  1  0
  9  1  1  0
  4 19  1  0
  5  4  1  0
  5  6  1  0
  6  7  1  0
  7  8  1  0
  8  9  1  0
  9  5  1  0
  7 10  1  0
 10 11  1  0
 10 15  1  0
 11 12  1  0
 12 13  1  0
 13 14  1  0
 14 15  2  0
 13 16  2  0
 21 22  2  0
 24 28  1  0
 28 29  1  0
 29 30  1  0
 30 23  1  0
 28 31  1  0
 23 20  1  0
 30 32  1  0
 23 24  1  0
 32 33  1  0
 31 34  1  0
 31 38  1  0
 34 35  1  0
 35 36  1  0
 36 37  1  0
 37 38  2  0
 37 39  1  0
 36 40  2  0
 34 41  2  0
 25 26  1  0
 33 42  1  0
 20 21  2  0
 42 43  2  0
 26 19  1  0
 42 44  1  0
 44 45  1  0
 45 46  1  0
 46 47  1  0
 47 48  1  0
 48 49  1  0
 49 50  1  0
 50 51  1  0
 26 27  2  0
 51 52  1  0
 52 25  1  0
M  CHG  4   2   1   3  -1  21   1  22  -1
M  END
>  <Classification>  (580) 
1

>  <pchembl>  (580) 
5.03

>  <InChI_steorem>  (580) 
InChI=1S/C32H44N10O10/c1-19-15-41(31(47)35-29(19)45)25-13-21(37-39-33)23(51-25)17-49-27(43)11-9-7-5-3-4-6-8-10-12-28(44)50-18-24-22(38-40-34)14-26(52-24)42-16-20(2)30(46)36-32(42)48/h15-16,21-26H,3-14,17-18H2,1-2H3,(H,35,45,47)(H,36,46,48)

>  <source>  (580) 
ChEMBL25

>  <source_id>  (580) 
25

>  <optional_reference>  (580) 
10.1016/j.bmc.2017.07.001

>  <optional_origin>  (580) 
None

>  <target>  (580) 
MDR1

$$$$

     RDKit          2D

 42 48  0  0  0  0  0  0  0  0999 V2000
    7.5134   -4.2723    0.0000 C   0  0  0  0  0  0  0  0  0  0  0  0
    6.7989   -4.6848    0.0000 C   0  0  0  0  0  0  0  0  0  0  0  0
    6.7989   -5.5098    0.0000 C   0  0  0  0  0  0  0  0  0  0  0  0
    7.5134   -5.9223    0.0000 C   0  0  0  0  0  0  0  0  0  0  0  0
    8.2279   -5.5098    0.0000 C   0  0  0  0  0  0  0  0  0  0  0  0
    8.2279   -4.6848    0.0000 C   0  0  0  0  0  0  0  0  0  0  0  0
    7.5134   -3.4473    0.0000 C   0  0  0  0  0  0  0  0  0  0  0  0
    8.2278   -3.0348    0.0000 C   0  0  0  0  0  0  0  0  0  0  0  0
    8.9423   -3.4473    0.0000 C   0  0  0  0  0  0  0  0  0  0  0  0
    8.9423   -4.2723    0.0000 C   0  0  0  0  0  0  0  0  0  0  0  0
    8.2278   -2.2098    0.0000 N   0  0  0  0  0  0  0  0  0  0  0  0
    7.5133   -1.7973    0.0000 C   0  0  0  0  0  0  0  0  0  0  0  0
    6.7989   -2.2098    0.0000 C   0  0  0  0  0  0  0  0  0  0  0  0
    6.7989   -3.0348    0.0000 C   0  0  0  0  0  0  0  0  0  0  0  0
    9.1610   -5.6663    0.0000 N   0  0  0  0  0  0  0  0  0  0  0  0
    9.5554   -4.8243    0.0000 C   0  0  0  0  0  0  0  0  0  0  0  0
    8.9423   -1.7972    0.0000 C   0  0  0  0  0  0  0  0  0  0  0  0
    6.0844   -1.7973    0.0000 C   0  0  0  0  0  0  0  0  0  0  0  0
    5.3699   -2.2099    0.0000 O   0  0  0  0  0  0  0  0  0  0  0  0
    6.0843   -0.9723    0.0000 N   0  0  0  0  0  0  0  0  0  0  0  0
    5.3699   -0.5598    0.0000 C   0  0  0  0  0  0  0  0  0  0  0  0
    5.8891    0.0813    0.0000 C   0  0  0  0  0  0  0  0  0  0  0  0
    5.4397    0.7732    0.0000 N   0  0  0  0  0  0  0  0  0  0  0  0
    4.6429    0.5597    0.0000 C   0  0  0  0  0  0  0  0  0  0  0  0
    4.5997   -0.2642    0.0000 O   0  0  0  0  0  0  0  0  0  0  0  0
    4.0595    1.1430    0.0000 C   0  0  0  0  0  0  0  0  0  0  0  0
    4.2730    1.9399    0.0000 N   0  0  0  0  0  0  0  0  0  0  0  0
    5.0699    2.1535    0.0000 C   0  0  0  0  0  0  0  0  0  0  0  0
    5.6533    1.5701    0.0000 C   0  0  0  0  0  0  0  0  0  0  0  0
    3.2357    1.0998    0.0000 C   0  0  0  0  0  0  0  0  0  0  0  0
    2.9400    1.8700    0.0000 C   0  0  0  0  0  0  0  0  0  0  0  0
    3.5810    2.3892    0.0000 C   0  0  0  0  0  0  0  0  0  0  0  0
    3.9284    0.1472    0.0000 O   0  0  0  0  0  0  0  0  0  0  0  0
    4.7865   -1.1432    0.0000 C   0  0  0  0  0  0  0  0  0  0  0  0
    3.9896   -0.9297    0.0000 C   0  0  0  0  0  0  0  0  0  0  0  0
    4.2032   -1.7266    0.0000 C   0  0  0  0  0  0  0  0  0  0  0  0
    6.7129    0.0382    0.0000 O   0  0  0  0  0  0  0  0  0  0  0  0
    6.4501    1.7836    0.0000 C   0  0  0  0  0  0  0  0  0  0  0  0
    6.8626    2.4981    0.0000 C   0  0  0  0  0  0  0  0  0  0  0  0
    7.6876    2.4981    0.0000 C   0  0  0  0  0  0  0  0  0  0  0  0
    6.4501    3.2126    0.0000 C   0  0  0  0  0  0  0  0  0  0  0  0
    5.2834    2.9504    0.0000 O   0  0  0  0  0  0  0  0  0  0  0  0
  1  2  2  0
  2  3  1  0
  3  4  2  0
  4  5  1  0
  5  6  2  0
  1  7  1  0
  1  6  1  0
  8  9  1  0
  9 10  1  0
  8 11  1  0
  7  8  1  0
 14  7  1  0
 11 12  1  0
 12 13  1  0
 13 14  1  0
 10 16  2  0
 10  6  1  0
 15 16  1  0
  5 15  1  0
 11 17  1  0
 13 18  1  0
 18 19  2  0
 18 20  1  0
 21 20  1  0
 21 22  1  0
 21 25  1  0
 22 23  1  0
 24 25  1  0
 29 23  1  0
 23 24  1  0
 24 26  1  0
 27 28  1  0
 28 29  1  0
 26 30  1  0
 27 26  1  0
 27 32  1  0
 30 31  1  0
 31 32  1  0
 24 33  1  0
 21 34  1  0
 34 35  1  0
 34 36  1  0
 22 37  2  0
 29 38  1  0
 38 39  1  0
 39 40  1  0
 39 41  1  0
 28 42  2  0
M  END
>  <Classification>  (581) 
0

>  <pchembl>  (581) 
4.7

>  <InChI_steorem>  (581) 
InChI=1S/C32H43N5O5/c1-17(2)12-25-29(39)36-11-7-10-26(36)32(41)37(25)30(40)31(42-32,18(3)4)34-28(38)20-13-22-21-8-6-9-23-27(21)19(15-33-23)14-24(22)35(5)16-20/h6,8-9,15,17-18,20,22,24-26,33,41H,7,10-14,16H2,1-5H3,(H,34,38)

>  <source>  (581) 
ChEMBL25

>  <source_id>  (581) 
25

>  <optional_reference>  (581) 
10.1124/mol.61.5.964

>  <optional_origin>  (581) 
None

>  <target>  (581) 
MDR1

$$$$

     RDKit          2D

 79 82  0  0  0  0  0  0  0  0999 V2000
  -14.4153    3.3955    0.0000 N   0  0  0  0  0  0  0  0  0  0  0  0
  -10.8489    2.1523    0.0000 N   0  0  0  0  0  0  0  0  0  0  0  0
  -12.9921    5.8611    0.0000 N   0  0  0  0  0  0  0  0  0  0  0  0
   -8.0819    3.7890    0.0000 C   0  0  0  0  0  0  0  0  0  0  0  0
  -10.1289    2.5667    0.0000 C   0  0  0  0  0  0  0  0  0  0  0  0
  -13.6995    6.2713    0.0000 C   0  0  0  0  0  0  0  0  0  0  0  0
   -8.7977    5.0280    0.0000 N   0  0  0  0  0  0  0  0  0  0  0  0
  -15.1269    4.6262    0.0000 C   0  0  0  0  0  0  0  0  0  0  0  0
   -7.3661    3.3830    0.0000 N   0  0  0  0  0  0  0  0  0  0  0  0
  -15.1269    3.8016    0.0000 C   0  0  0  0  0  0  0  0  0  0  0  0
  -14.4153    2.5667    0.0000 C   0  0  0  0  0  0  0  0  0  0  0  0
  -12.2763    2.1523    0.0000 C   0  0  0  0  0  0  0  0  0  0  0  0
  -11.6526    5.0280    0.0000 C   0  0  0  0  0  0  0  0  0  0  0  0
   -8.0819    4.6136    0.0000 C   0  0  0  0  0  0  0  0  0  0  0  0
   -8.7015    2.5667    0.0000 N   0  0  0  0  0  0  0  0  0  0  0  0
   -9.5052    4.6136    0.0000 C   0  0  0  0  0  0  0  0  0  0  0  0
  -14.4153    5.0406    0.0000 O   0  0  0  0  0  0  0  0  0  0  0  0
   -7.9940    2.1523    0.0000 C   0  0  0  0  0  0  0  0  0  0  0  0
  -10.9326    4.6136    0.0000 N   0  0  0  0  0  0  0  0  0  0  0  0
  -12.9921    2.5667    0.0000 N   0  0  0  0  0  0  0  0  0  0  0  0
   -9.4173    2.1523    0.0000 C   0  0  0  0  0  0  0  0  0  0  0  0
  -14.4153    5.8694    0.0000 C   0  0  0  0  0  0  0  0  0  0  0  0
  -13.7079    2.1523    0.0000 C   0  0  0  0  0  0  0  0  0  0  0  0
  -10.2210    5.0280    0.0000 C   0  0  0  0  0  0  0  0  0  0  0  0
  -12.7409    4.8773    0.0000 C   0  0  0  0  0  0  0  0  0  0  0  0
  -11.5605    2.5667    0.0000 C   0  0  0  0  0  0  0  0  0  0  0  0
   -7.2782    2.5667    0.0000 C   0  0  0  0  0  0  0  0  0  0  0  0
  -15.8469    3.3955    0.0000 C   0  0  0  0  0  0  0  0  0  0  0  0
   -8.7894    3.3830    0.0000 O   0  0  0  0  0  0  0  0  0  0  0  0
  -10.1289    3.3872    0.0000 O   0  0  0  0  0  0  0  0  0  0  0  0
  -13.6995    7.1001    0.0000 O   0  0  0  0  0  0  0  0  0  0  0  0
  -15.8469    5.0406    0.0000 O   0  0  0  0  0  0  0  0  0  0  0  0
   -7.3661    5.0280    0.0000 C   0  0  0  0  0  0  0  0  0  0  0  0
  -12.2763    1.3235    0.0000 O   0  0  0  0  0  0  0  0  0  0  0  0
  -11.6526    5.8569    0.0000 O   0  0  0  0  0  0  0  0  0  0  0  0
  -15.1269    2.1523    0.0000 O   0  0  0  0  0  0  0  0  0  0  0  0
   -9.5052    3.7890    0.0000 O   0  0  0  0  0  0  0  0  0  0  0  0
   -7.9940    1.3235    0.0000 O   0  0  0  0  0  0  0  0  0  0  0  0
  -10.2210    5.8569    0.0000 C   0  0  0  0  0  0  0  0  0  0  0  0
  -13.7079    1.3235    0.0000 C   0  0  0  0  0  0  0  0  0  0  0  0
   -9.4173    1.3235    0.0000 C   0  0  0  0  0  0  0  0  0  0  0  0
  -15.1269    6.2755    0.0000 C   0  0  0  0  0  0  0  0  0  0  0  0
  -13.6995    3.7974    0.0000 C   0  0  0  0  0  0  0  0  0  0  0  0
  -10.8489    1.3235    0.0000 C   0  0  0  0  0  0  0  0  0  0  0  0
  -12.3307    6.3592    0.0000 C   0  0  0  0  0  0  0  0  0  0  0  0
  -13.2056    4.1867    0.0000 C   0  0  0  0  0  0  0  0  0  0  0  0
  -11.5605    3.3872    0.0000 C   0  0  0  0  0  0  0  0  0  0  0  0
   -6.6127    3.7220    0.0000 C   0  0  0  0  0  0  0  0  0  0  0  0
   -8.7977    5.8569    0.0000 C   0  0  0  0  0  0  0  0  0  0  0  0
  -16.5627    2.9811    0.0000 O   0  0  0  0  0  0  0  0  0  0  0  0
   -7.3661    5.8569    0.0000 C   0  0  0  0  0  0  0  0  0  0  0  0
  -10.6731    6.5392    0.0000 C   0  0  0  0  0  0  0  0  0  0  0  0
   -6.4662    2.3909    0.0000 C   0  0  0  0  0  0  0  0  0  0  0  0
   -6.0601    3.1067    0.0000 C   0  0  0  0  0  0  0  0  0  0  0  0
  -14.4153    0.9216    0.0000 C   0  0  0  0  0  0  0  0  0  0  0  0
  -15.8469    2.5667    0.0000 C   0  0  0  0  0  0  0  0  0  0  0  0
  -16.5585    3.8016    0.0000 C   0  0  0  0  0  0  0  0  0  0  0  0
   -8.7015    0.9133    0.0000 C   0  0  0  0  0  0  0  0  0  0  0  0
  -15.1269    7.1001    0.0000 C   0  0  0  0  0  0  0  0  0  0  0  0
  -10.1289    0.9133    0.0000 C   0  0  0  0  0  0  0  0  0  0  0  0
  -15.8469    5.8694    0.0000 C   0  0  0  0  0  0  0  0  0  0  0  0
  -12.2763    3.7974    0.0000 C   0  0  0  0  0  0  0  0  0  0  0  0
  -14.0218    4.2494    0.0000 C   0  0  0  0  0  0  0  0  0  0  0  0
  -12.8414    3.4457    0.0000 C   0  0  0  0  0  0  0  0  0  0  0  0
  -10.8447    3.7974    0.0000 C   0  0  0  0  0  0  0  0  0  0  0  0
   -8.0819    6.2587    0.0000 C   0  0  0  0  0  0  0  0  0  0  0  0
  -10.3047    7.2801    0.0000 C   0  0  0  0  0  0  0  0  0  0  0  0
  -11.5019    6.4973    0.0000 C   0  0  0  0  0  0  0  0  0  0  0  0
   -6.6503    6.2629    0.0000 C   0  0  0  0  0  0  0  0  0  0  0  0
  -15.1311    1.3277    0.0000 C   0  0  0  0  0  0  0  0  0  0  0  0
  -14.4153    0.0928    0.0000 C   0  0  0  0  0  0  0  0  0  0  0  0
   -8.7015    0.0928    0.0000 C   0  0  0  0  0  0  0  0  0  0  0  0
  -15.8427    7.5145    0.0000 C   0  0  0  0  0  0  0  0  0  0  0  0
  -11.9498    7.1880    0.0000 C   0  0  0  0  0  0  0  0  0  0  0  0
  -10.7568    7.9666    0.0000 C   0  0  0  0  0  0  0  0  0  0  0  0
   -6.6503    7.0875    0.0000 C   0  0  0  0  0  0  0  0  0  0  0  0
   -8.0819    7.0792    0.0000 C   0  0  0  0  0  0  0  0  0  0  0  0
   -7.3661    7.5019    0.0000 C   0  0  0  0  0  0  0  0  0  0  0  0
  -11.5730    7.9206    0.0000 C   0  0  0  0  0  0  0  0  0  0  0  0
  2 26  1  0
  3  6  1  0
  4  9  1  0
  5  2  1  0
  6 22  1  0
  7 16  1  0
  8 10  1  0
  9 27  1  0
 10  1  1  0
 11  1  1  0
 12 20  1  0
 13 25  1  0
 14  7  1  0
 15 21  1  0
 16 24  1  0
 17  8  1  0
 18 15  1  0
 19 13  1  0
 20 23  1  0
 21  5  1  0
 22 17  1  0
 23 11  1  0
 24 19  1  0
 25  3  1  0
 26 12  1  0
 27 18  1  0
 28 10  1  0
 29  4  2  0
 30  5  2  0
 31  6  2  0
 32  8  2  0
 14 33  1  0
 34 12  2  0
 35 13  2  0
 36 11  2  0
 37 16  2  0
 38 18  2  0
 24 39  1  0
 23 40  1  0
 41 21  1  0
 42 22  1  0
 43  1  1  0
 44  2  1  0
 45  3  1  0
 25 46  1  0
 26 47  1  0
 48  9  1  0
 49  7  1  0
 50 28  1  0
 51 33  1  0
 52 39  1  0
 53 27  1  0
 54 53  1  0
 55 40  1  0
 56 28  1  0
 57 28  1  0
 58 41  1  0
 59 42  1  0
 41 60  1  0
 42 61  1  0
 62 47  1  0
 63 46  1  0
 64 46  1  0
 65 47  1  0
 66 51  2  0
 67 52  2  0
 68 52  1  0
 69 51  1  0
 70 55  1  0
 71 55  1  0
 72 58  1  0
 73 59  1  0
 74 68  2  0
 75 67  1  0
 76 69  2  0
 77 66  1  0
 78 76  1  0
 79 74  1  0
 48 54  1  0
  4 14  1  0
 79 75  2  0
 78 77  2  0
M  END
>  <Classification>  (582) 
1

>  <pchembl>  (582) 
5.64

>  <InChI_steorem>  (582) 
InChI=1S/C60H92N8O11/c1-17-38(9)46-57(75)65(14)47(36(5)6)52(70)61-42(32-35(3)4)55(73)67(16)50(60(11,12)78)59(77)79-49(39(10)18-2)58(76)66(15)48(37(7)8)53(71)62-43(33-40-26-21-19-22-27-40)54(72)64(13)45(34-41-28-23-20-24-29-41)56(74)68-31-25-30-44(68)51(69)63-46/h19-24,26-29,35-39,42-50,78H,17-18,25,30-34H2,1-16H3,(H,61,70)(H,62,71)(H,63,69)

>  <source>  (582) 
ChEMBL25

>  <source_id>  (582) 
25

>  <optional_reference>  (582) 
10.1021/jm990955w

>  <optional_origin>  (582) 
None

>  <target>  (582) 
MDR1

$$$$

     RDKit          2D

 31 34  0  0  0  0  0  0  0  0999 V2000
   13.8441  -10.5178    0.0000 C   0  0  0  0  0  0  0  0  0  0  0  0
   13.8735  -11.3341    0.0000 C   0  0  0  0  0  0  0  0  0  0  0  0
   13.1840  -11.7697    0.0000 C   0  0  0  0  0  0  0  0  0  0  0  0
   13.2134  -12.5860    0.0000 C   0  0  0  0  0  0  0  0  0  0  0  0
   13.9365  -12.9668    0.0000 C   0  0  0  0  0  0  0  0  0  0  0  0
   14.6301  -12.5312    0.0000 C   0  0  0  0  0  0  0  0  0  0  0  0
   14.5966  -11.7149    0.0000 C   0  0  0  0  0  0  0  0  0  0  0  0
   14.5377  -10.0822    0.0000 O   0  0  0  0  0  0  0  0  0  0  0  0
   13.1210  -10.1329    0.0000 N   0  0  0  0  0  0  0  0  0  0  0  0
   12.4609  -11.3848    0.0000 N   0  0  0  0  0  0  0  0  0  0  0  0
   11.7673  -11.8204    0.0000 O   0  0  0  0  0  0  0  0  0  0  0  0
   12.4315  -10.5684    0.0000 O   0  0  0  0  0  0  0  0  0  0  0  0
   13.0916   -9.3165    0.0000 C   0  0  0  0  0  0  0  0  0  0  0  0
   12.3685   -8.9358    0.0000 C   0  0  0  0  0  0  0  0  0  0  0  0
   12.3391   -8.1194    0.0000 C   0  0  0  0  0  0  0  0  0  0  0  0
   13.0327   -7.6839    0.0000 C   0  0  0  0  0  0  0  0  0  0  0  0
   13.7558   -8.0646    0.0000 C   0  0  0  0  0  0  0  0  0  0  0  0
   13.7852   -8.8851    0.0000 C   0  0  0  0  0  0  0  0  0  0  0  0
   11.6242  -10.1857    0.0000 N   0  0  0  0  0  0  0  0  0  0  0  0
   10.8280  -10.3847    0.0000 N   0  0  0  0  0  0  0  0  0  0  0  0
   10.3965   -9.6911    0.0000 N   0  0  0  0  0  0  0  0  0  0  0  0
   10.9179   -9.0669    0.0000 N   0  0  0  0  0  0  0  0  0  0  0  0
   11.6790   -9.3713    0.0000 C   0  0  0  0  0  0  0  0  0  0  0  0
   10.5276  -11.1417    0.0000 C   0  0  0  0  0  0  0  0  0  0  0  0
   11.0321  -11.7855    0.0000 C   0  0  0  0  0  0  0  0  0  0  0  0
   10.7235  -12.5466    0.0000 C   0  0  0  0  0  0  0  0  0  0  0  0
    9.9146  -12.6597    0.0000 C   0  0  0  0  0  0  0  0  0  0  0  0
    9.4102  -12.0158    0.0000 C   0  0  0  0  0  0  0  0  0  0  0  0
    9.7188  -11.2589    0.0000 C   0  0  0  0  0  0  0  0  0  0  0  0
    9.6102  -13.4166    0.0000 O   0  0  0  0  0  0  0  0  0  0  0  0
    8.8013  -13.5339    0.0000 C   0  0  0  0  0  0  0  0  0  0  0  0
  1  2  1  0
  2  3  2  0
  3  4  1  0
  4  5  2  0
  5  6  1  0
  6  7  2  0
  2  7  1  0
  1  8  2  0
  1  9  1  0
 10 11  2  0
 10 12  1  0
  3 10  1  0
 13 14  1  0
 14 15  2  0
 15 16  1  0
 16 17  2  0
 17 18  1  0
 13 18  2  0
 19 20  1  0
 20 21  1  0
 21 22  2  0
 22 23  1  0
 19 23  2  0
 24 25  2  0
 25 26  1  0
 26 27  2  0
 27 28  1  0
 28 29  2  0
 24 29  1  0
 30 31  1  0
 27 30  1  0
 20 24  1  0
 14 23  1  0
  9 13  1  0
M  CHG  2  10   1  12  -1
M  END
>  <Classification>  (583) 
1

>  <pchembl>  (583) 
5.21

>  <InChI_steorem>  (583) 
InChI=1S/C21H16N6O4/c1-31-15-12-10-14(11-13-15)26-24-20(23-25-26)16-6-2-4-8-18(16)22-21(28)17-7-3-5-9-19(17)27(29)30/h2-13H,1H3,(H,22,28)

>  <source>  (583) 
ChEMBL25

>  <source_id>  (583) 
25

>  <optional_reference>  (583) 
10.1016/j.ejmech.2016.09.010

>  <optional_origin>  (583) 
None

>  <target>  (583) 
MDR1

$$$$

     RDKit          2D

 32 35  0  0  0  0  0  0  0  0999 V2000
   10.6168  -11.3565    0.0000 C   0  0  0  0  0  0  0  0  0  0  0  0
    9.7996  -11.3565    0.0000 C   0  0  0  0  0  0  0  0  0  0  0  0
    9.3910  -10.6474    0.0000 C   0  0  0  0  0  0  0  0  0  0  0  0
    8.5738  -10.6474    0.0000 C   0  0  0  0  0  0  0  0  0  0  0  0
    8.1652  -11.3565    0.0000 C   0  0  0  0  0  0  0  0  0  0  0  0
    8.5738  -12.0615    0.0000 C   0  0  0  0  0  0  0  0  0  0  0  0
    9.3910  -12.0615    0.0000 C   0  0  0  0  0  0  0  0  0  0  0  0
   11.0254  -12.0614    0.0000 O   0  0  0  0  0  0  0  0  0  0  0  0
   11.0254  -10.6474    0.0000 N   0  0  0  0  0  0  0  0  0  0  0  0
    7.3480  -11.3565    0.0000 O   0  0  0  0  0  0  0  0  0  0  0  0
    6.9394  -12.0615    0.0000 C   0  0  0  0  0  0  0  0  0  0  0  0
   10.6168   -9.9424    0.0000 C   0  0  0  0  0  0  0  0  0  0  0  0
   11.0254   -9.2333    0.0000 C   0  0  0  0  0  0  0  0  0  0  0  0
   10.6168   -8.5243    0.0000 C   0  0  0  0  0  0  0  0  0  0  0  0
    9.7996   -8.5243    0.0000 C   0  0  0  0  0  0  0  0  0  0  0  0
    9.3910   -9.2333    0.0000 C   0  0  0  0  0  0  0  0  0  0  0  0
    9.7996   -9.9424    0.0000 C   0  0  0  0  0  0  0  0  0  0  0  0
   12.3227   -9.8925    0.0000 N   0  0  0  0  0  0  0  0  0  0  0  0
   13.1000   -9.6419    0.0000 N   0  0  0  0  0  0  0  0  0  0  0  0
   13.1000   -8.8248    0.0000 N   0  0  0  0  0  0  0  0  0  0  0  0
   12.3227   -8.5701    0.0000 N   0  0  0  0  0  0  0  0  0  0  0  0
   11.8426   -9.2333    0.0000 C   0  0  0  0  0  0  0  0  0  0  0  0
   13.7632  -10.1221    0.0000 C   0  0  0  0  0  0  0  0  0  0  0  0
   13.6751  -10.9366    0.0000 C   0  0  0  0  0  0  0  0  0  0  0  0
   14.3383  -11.4126    0.0000 C   0  0  0  0  0  0  0  0  0  0  0  0
   15.0815  -11.0824    0.0000 C   0  0  0  0  0  0  0  0  0  0  0  0
   15.1697  -10.2720    0.0000 C   0  0  0  0  0  0  0  0  0  0  0  0
   14.5105   -9.7877    0.0000 C   0  0  0  0  0  0  0  0  0  0  0  0
   15.7448  -11.5625    0.0000 O   0  0  0  0  0  0  0  0  0  0  0  0
   16.4921  -11.2323    0.0000 C   0  0  0  0  0  0  0  0  0  0  0  0
   14.2502  -12.2272    0.0000 O   0  0  0  0  0  0  0  0  0  0  0  0
   14.9135  -12.7073    0.0000 C   0  0  0  0  0  0  0  0  0  0  0  0
  1  2  1  0
  2  3  2  0
  3  4  1  0
  4  5  2  0
  5  6  1  0
  6  7  2  0
  2  7  1  0
  1  8  2  0
  1  9  1  0
 10 11  1  0
  5 10  1  0
 12 13  1  0
 13 14  2  0
 14 15  1  0
 15 16  2  0
 16 17  1  0
 12 17  2  0
 18 19  1  0
 19 20  1  0
 20 21  2  0
 21 22  1  0
 18 22  2  0
 23 24  2  0
 24 25  1  0
 25 26  2  0
 26 27  1  0
 27 28  2  0
 23 28  1  0
 29 30  1  0
 26 29  1  0
 31 32  1  0
 25 31  1  0
 19 23  1  0
 13 22  1  0
  9 12  1  0
M  END
>  <Classification>  (584) 
1

>  <pchembl>  (584) 
5.5

>  <InChI_steorem>  (584) 
InChI=1S/C23H21N5O4/c1-30-17-11-8-15(9-12-17)23(29)24-19-7-5-4-6-18(19)22-25-27-28(26-22)16-10-13-20(31-2)21(14-16)32-3/h4-14H,1-3H3,(H,24,29)

>  <source>  (584) 
ChEMBL25

>  <source_id>  (584) 
25

>  <optional_reference>  (584) 
10.1016/j.ejmech.2016.09.010

>  <optional_origin>  (584) 
None

>  <target>  (584) 
MDR1

$$$$

     RDKit          2D

 29 32  0  0  0  0  0  0  0  0999 V2000
   11.6829  -11.6104    0.0000 C   0  0  0  0  0  0  0  0  0  0  0  0
   12.5001  -11.6104    0.0000 C   0  0  0  0  0  0  0  0  0  0  0  0
   12.9087  -10.9013    0.0000 C   0  0  0  0  0  0  0  0  0  0  0  0
   13.7259  -10.9013    0.0000 C   0  0  0  0  0  0  0  0  0  0  0  0
   14.1345  -11.6104    0.0000 C   0  0  0  0  0  0  0  0  0  0  0  0
   13.7259  -12.3195    0.0000 C   0  0  0  0  0  0  0  0  0  0  0  0
   12.9087  -12.3195    0.0000 C   0  0  0  0  0  0  0  0  0  0  0  0
   11.2744  -12.3195    0.0000 O   0  0  0  0  0  0  0  0  0  0  0  0
   11.2744  -10.9013    0.0000 N   0  0  0  0  0  0  0  0  0  0  0  0
   14.9517  -11.6104    0.0000 C   0  0  0  0  0  0  0  0  0  0  0  0
   15.3603  -12.3195    0.0000 C   0  0  0  0  0  0  0  0  0  0  0  0
   16.1775  -12.3195    0.0000 C   0  0  0  0  0  0  0  0  0  0  0  0
   11.6829  -10.1963    0.0000 C   0  0  0  0  0  0  0  0  0  0  0  0
   11.2744   -9.4872    0.0000 C   0  0  0  0  0  0  0  0  0  0  0  0
   11.6829   -8.7782    0.0000 C   0  0  0  0  0  0  0  0  0  0  0  0
   12.5001   -8.7782    0.0000 C   0  0  0  0  0  0  0  0  0  0  0  0
   12.9087   -9.4872    0.0000 C   0  0  0  0  0  0  0  0  0  0  0  0
   12.5001  -10.1963    0.0000 C   0  0  0  0  0  0  0  0  0  0  0  0
    9.9729  -10.1464    0.0000 N   0  0  0  0  0  0  0  0  0  0  0  0
    9.1957   -9.8958    0.0000 N   0  0  0  0  0  0  0  0  0  0  0  0
    9.1957   -9.0786    0.0000 N   0  0  0  0  0  0  0  0  0  0  0  0
    9.9729   -8.8281    0.0000 N   0  0  0  0  0  0  0  0  0  0  0  0
   10.4572   -9.4872    0.0000 C   0  0  0  0  0  0  0  0  0  0  0  0
    8.5365  -10.3760    0.0000 C   0  0  0  0  0  0  0  0  0  0  0  0
    8.6205  -11.1905    0.0000 C   0  0  0  0  0  0  0  0  0  0  0  0
    7.9614  -11.6707    0.0000 C   0  0  0  0  0  0  0  0  0  0  0  0
    7.2141  -11.3363    0.0000 C   0  0  0  0  0  0  0  0  0  0  0  0
    7.1301  -10.5217    0.0000 C   0  0  0  0  0  0  0  0  0  0  0  0
    7.7892  -10.0416    0.0000 C   0  0  0  0  0  0  0  0  0  0  0  0
  1  2  1  0
  2  3  2  0
  3  4  1  0
  4  5  2  0
  5  6  1  0
  6  7  2  0
  2  7  1  0
  1  8  2  0
  1  9  1  0
 10 11  1  0
 11 12  1  0
  5 10  1  0
 13 14  1  0
 14 15  2  0
 15 16  1  0
 16 17  2  0
 17 18  1  0
 13 18  2  0
 19 20  1  0
 20 21  1  0
 21 22  2  0
 22 23  1  0
 19 23  2  0
 24 25  2  0
 25 26  1  0
 26 27  2  0
 27 28  1  0
 28 29  2  0
 24 29  1  0
 20 24  1  0
 14 23  1  0
  9 13  1  0
M  END
>  <Classification>  (585) 
1

>  <pchembl>  (585) 
5.09

>  <InChI_steorem>  (585) 
InChI=1S/C23H21N5O/c1-2-8-17-13-15-18(16-14-17)23(29)24-21-12-7-6-11-20(21)22-25-27-28(26-22)19-9-4-3-5-10-19/h3-7,9-16H,2,8H2,1H3,(H,24,29)

>  <source>  (585) 
ChEMBL25

>  <source_id>  (585) 
25

>  <optional_reference>  (585) 
10.1016/j.ejmech.2016.09.010

>  <optional_origin>  (585) 
None

>  <target>  (585) 
MDR1

$$$$

     RDKit          2D

 30 33  0  0  0  0  0  0  0  0999 V2000
   11.2066  -11.6104    0.0000 C   0  0  0  0  0  0  0  0  0  0  0  0
   10.3895  -11.6104    0.0000 C   0  0  0  0  0  0  0  0  0  0  0  0
    9.9809  -10.9013    0.0000 C   0  0  0  0  0  0  0  0  0  0  0  0
    9.1637  -10.9013    0.0000 C   0  0  0  0  0  0  0  0  0  0  0  0
    8.7551  -11.6104    0.0000 C   0  0  0  0  0  0  0  0  0  0  0  0
    9.1637  -12.3195    0.0000 C   0  0  0  0  0  0  0  0  0  0  0  0
    9.9809  -12.3195    0.0000 C   0  0  0  0  0  0  0  0  0  0  0  0
   11.6152  -12.3195    0.0000 O   0  0  0  0  0  0  0  0  0  0  0  0
   11.6152  -10.9013    0.0000 N   0  0  0  0  0  0  0  0  0  0  0  0
    7.9379  -11.6104    0.0000 C   0  0  0  0  0  0  0  0  0  0  0  0
    7.5293  -12.3195    0.0000 C   0  0  0  0  0  0  0  0  0  0  0  0
    6.7121  -12.3195    0.0000 C   0  0  0  0  0  0  0  0  0  0  0  0
   11.2066  -10.1963    0.0000 C   0  0  0  0  0  0  0  0  0  0  0  0
   11.6152   -9.4872    0.0000 C   0  0  0  0  0  0  0  0  0  0  0  0
   11.2066   -8.7782    0.0000 C   0  0  0  0  0  0  0  0  0  0  0  0
   10.3895   -8.7782    0.0000 C   0  0  0  0  0  0  0  0  0  0  0  0
    9.9809   -9.4872    0.0000 C   0  0  0  0  0  0  0  0  0  0  0  0
   10.3895  -10.1963    0.0000 C   0  0  0  0  0  0  0  0  0  0  0  0
   12.9126  -10.1464    0.0000 N   0  0  0  0  0  0  0  0  0  0  0  0
   13.6898   -9.8958    0.0000 N   0  0  0  0  0  0  0  0  0  0  0  0
   13.6898   -9.0786    0.0000 N   0  0  0  0  0  0  0  0  0  0  0  0
   12.9126   -8.8281    0.0000 N   0  0  0  0  0  0  0  0  0  0  0  0
   12.4324   -9.4872    0.0000 C   0  0  0  0  0  0  0  0  0  0  0  0
   14.3489  -10.3760    0.0000 C   0  0  0  0  0  0  0  0  0  0  0  0
   14.2649  -11.1905    0.0000 C   0  0  0  0  0  0  0  0  0  0  0  0
   14.9282  -11.6707    0.0000 C   0  0  0  0  0  0  0  0  0  0  0  0
   15.6713  -11.3363    0.0000 C   0  0  0  0  0  0  0  0  0  0  0  0
   15.7595  -10.5217    0.0000 C   0  0  0  0  0  0  0  0  0  0  0  0
   15.0962  -10.0416    0.0000 C   0  0  0  0  0  0  0  0  0  0  0  0
   16.3346  -11.8164    0.0000 O   0  0  0  0  0  0  0  0  0  0  0  0
  1  2  1  0
  2  3  2  0
  3  4  1  0
  4  5  2  0
  5  6  1  0
  6  7  2  0
  2  7  1  0
  1  8  2  0
  1  9  1  0
 10 11  1  0
 11 12  1  0
  5 10  1  0
 13 14  1  0
 14 15  2  0
 15 16  1  0
 16 17  2  0
 17 18  1  0
 13 18  2  0
 19 20  1  0
 20 21  1  0
 21 22  2  0
 22 23  1  0
 19 23  2  0
 24 25  2  0
 25 26  1  0
 26 27  2  0
 27 28  1  0
 28 29  2  0
 24 29  1  0
 27 30  1  0
 20 24  1  0
 14 23  1  0
  9 13  1  0
M  END
>  <Classification>  (586) 
1

>  <pchembl>  (586) 
6.36

>  <InChI_steorem>  (586) 
InChI=1S/C23H21N5O2/c1-2-5-16-8-10-17(11-9-16)23(30)24-21-7-4-3-6-20(21)22-25-27-28(26-22)18-12-14-19(29)15-13-18/h3-4,6-15,29H,2,5H2,1H3,(H,24,30)

>  <source>  (586) 
ChEMBL25

>  <source_id>  (586) 
25

>  <optional_reference>  (586) 
10.1016/j.ejmech.2016.09.010

>  <optional_origin>  (586) 
None

>  <target>  (586) 
MDR1

$$$$

     RDKit          2D

 28 31  0  0  0  0  0  0  0  0999 V2000
   10.2218   -8.3953    0.0000 C   0  0  0  0  0  0  0  0  0  0  0  0
   11.0390   -8.3953    0.0000 C   0  0  0  0  0  0  0  0  0  0  0  0
   11.4476   -7.6862    0.0000 C   0  0  0  0  0  0  0  0  0  0  0  0
   12.2648   -7.6862    0.0000 C   0  0  0  0  0  0  0  0  0  0  0  0
   12.6734   -8.3953    0.0000 C   0  0  0  0  0  0  0  0  0  0  0  0
   12.2648   -9.1044    0.0000 C   0  0  0  0  0  0  0  0  0  0  0  0
   11.4476   -9.1044    0.0000 C   0  0  0  0  0  0  0  0  0  0  0  0
    9.8132   -9.1044    0.0000 O   0  0  0  0  0  0  0  0  0  0  0  0
    9.8132   -7.6862    0.0000 N   0  0  0  0  0  0  0  0  0  0  0  0
   10.2218   -6.9812    0.0000 C   0  0  0  0  0  0  0  0  0  0  0  0
    9.8132   -6.2721    0.0000 C   0  0  0  0  0  0  0  0  0  0  0  0
   10.2218   -5.5630    0.0000 C   0  0  0  0  0  0  0  0  0  0  0  0
   11.0390   -5.5630    0.0000 C   0  0  0  0  0  0  0  0  0  0  0  0
   11.4476   -6.2721    0.0000 C   0  0  0  0  0  0  0  0  0  0  0  0
   11.0390   -6.9812    0.0000 C   0  0  0  0  0  0  0  0  0  0  0  0
    8.5158   -6.9313    0.0000 N   0  0  0  0  0  0  0  0  0  0  0  0
    7.7386   -6.6807    0.0000 N   0  0  0  0  0  0  0  0  0  0  0  0
    7.7386   -5.8635    0.0000 N   0  0  0  0  0  0  0  0  0  0  0  0
    8.5158   -5.6130    0.0000 N   0  0  0  0  0  0  0  0  0  0  0  0
    8.9960   -6.2721    0.0000 C   0  0  0  0  0  0  0  0  0  0  0  0
    7.0795   -7.1609    0.0000 C   0  0  0  0  0  0  0  0  0  0  0  0
    7.1635   -7.9754    0.0000 C   0  0  0  0  0  0  0  0  0  0  0  0
    6.5044   -8.4555    0.0000 C   0  0  0  0  0  0  0  0  0  0  0  0
    5.7571   -8.1212    0.0000 C   0  0  0  0  0  0  0  0  0  0  0  0
    5.6731   -7.3066    0.0000 C   0  0  0  0  0  0  0  0  0  0  0  0
    6.3322   -6.8265    0.0000 C   0  0  0  0  0  0  0  0  0  0  0  0
   13.4886   -8.3976    0.0000 O   0  0  0  0  0  0  0  0  0  0  0  0
   13.8972   -7.6899    0.0000 C   0  0  0  0  0  0  0  0  0  0  0  0
  1  2  1  0
  2  3  2  0
  3  4  1  0
  4  5  2  0
  5  6  1  0
  6  7  2  0
  2  7  1  0
  1  8  2  0
  1  9  1  0
 10 11  1  0
 11 12  2  0
 12 13  1  0
 13 14  2  0
 14 15  1  0
 10 15  2  0
 16 17  1  0
 17 18  1  0
 18 19  2  0
 19 20  1  0
 16 20  2  0
 21 22  2  0
 22 23  1  0
 23 24  2  0
 24 25  1  0
 25 26  2  0
 21 26  1  0
 17 21  1  0
 11 20  1  0
  9 10  1  0
 27 28  1  0
  5 27  1  0
M  END
>  <Classification>  (587) 
1

>  <pchembl>  (587) 
5.26

>  <InChI_steorem>  (587) 
InChI=1S/C21H17N5O2/c1-28-17-13-11-15(12-14-17)21(27)22-19-10-6-5-9-18(19)20-23-25-26(24-20)16-7-3-2-4-8-16/h2-14H,1H3,(H,22,27)

>  <source>  (587) 
ChEMBL25

>  <source_id>  (587) 
25

>  <optional_reference>  (587) 
10.1016/j.ejmech.2016.09.010

>  <optional_origin>  (587) 
None

>  <target>  (587) 
MDR1

$$$$

     RDKit          2D

 26 29  0  0  0  0  0  0  0  0999 V2000
    7.7042   -6.5513    0.0000 C   0  0  0  0  0  0  0  0  0  0  0  0
    6.8871   -6.5513    0.0000 C   0  0  0  0  0  0  0  0  0  0  0  0
    6.4785   -7.2604    0.0000 C   0  0  0  0  0  0  0  0  0  0  0  0
    5.6613   -7.2604    0.0000 C   0  0  0  0  0  0  0  0  0  0  0  0
    5.2527   -6.5513    0.0000 C   0  0  0  0  0  0  0  0  0  0  0  0
    5.6613   -5.8464    0.0000 C   0  0  0  0  0  0  0  0  0  0  0  0
    6.4785   -5.8464    0.0000 C   0  0  0  0  0  0  0  0  0  0  0  0
    8.1128   -5.8464    0.0000 O   0  0  0  0  0  0  0  0  0  0  0  0
    8.1128   -7.2604    0.0000 N   0  0  0  0  0  0  0  0  0  0  0  0
    7.7042   -7.9695    0.0000 C   0  0  0  0  0  0  0  0  0  0  0  0
    8.1128   -8.6745    0.0000 C   0  0  0  0  0  0  0  0  0  0  0  0
    7.7042   -9.3835    0.0000 C   0  0  0  0  0  0  0  0  0  0  0  0
    6.8871   -9.3835    0.0000 C   0  0  0  0  0  0  0  0  0  0  0  0
    6.4785   -8.6745    0.0000 C   0  0  0  0  0  0  0  0  0  0  0  0
    6.8870   -7.9695    0.0000 C   0  0  0  0  0  0  0  0  0  0  0  0
    9.4102   -8.0153    0.0000 N   0  0  0  0  0  0  0  0  0  0  0  0
   10.1874   -8.2659    0.0000 N   0  0  0  0  0  0  0  0  0  0  0  0
   10.1874   -9.0831    0.0000 N   0  0  0  0  0  0  0  0  0  0  0  0
    9.4102   -9.3377    0.0000 N   0  0  0  0  0  0  0  0  0  0  0  0
    8.9300   -8.6745    0.0000 C   0  0  0  0  0  0  0  0  0  0  0  0
   10.8507   -7.7857    0.0000 C   0  0  0  0  0  0  0  0  0  0  0  0
   10.7625   -6.9753    0.0000 C   0  0  0  0  0  0  0  0  0  0  0  0
   11.4258   -6.4952    0.0000 C   0  0  0  0  0  0  0  0  0  0  0  0
   12.1731   -6.8254    0.0000 C   0  0  0  0  0  0  0  0  0  0  0  0
   12.2571   -7.6400    0.0000 C   0  0  0  0  0  0  0  0  0  0  0  0
   11.5938   -8.1201    0.0000 C   0  0  0  0  0  0  0  0  0  0  0  0
  1  2  1  0
  2  3  2  0
  3  4  1  0
  4  5  2  0
  5  6  1  0
  6  7  2  0
  2  7  1  0
  1  8  2  0
  1  9  1  0
 10 11  1  0
 11 12  2  0
 12 13  1  0
 13 14  2  0
 14 15  1  0
 10 15  2  0
 16 17  1  0
 17 18  1  0
 18 19  2  0
 19 20  1  0
 16 20  2  0
 21 22  2  0
 22 23  1  0
 23 24  2  0
 24 25  1  0
 25 26  2  0
 21 26  1  0
 17 21  1  0
 11 20  1  0
  9 10  1  0
M  END
>  <Classification>  (588) 
0

>  <pchembl>  (588) 
4.66

>  <InChI_steorem>  (588) 
InChI=1S/C20H15N5O/c26-20(15-9-3-1-4-10-15)21-18-14-8-7-13-17(18)19-22-24-25(23-19)16-11-5-2-6-12-16/h1-14H,(H,21,26)

>  <source>  (588) 
ChEMBL25

>  <source_id>  (588) 
25

>  <optional_reference>  (588) 
10.1016/j.ejmech.2016.09.010

>  <optional_origin>  (588) 
None

>  <target>  (588) 
MDR1

$$$$

     RDKit          2D

 34 37  0  0  0  0  0  0  0  0999 V2000
    7.5124   -6.0613    0.0000 C   0  0  0  0  0  0  0  0  0  0  0  0
    6.6952   -6.0613    0.0000 C   0  0  0  0  0  0  0  0  0  0  0  0
    6.2866   -5.3522    0.0000 C   0  0  0  0  0  0  0  0  0  0  0  0
    5.4694   -5.3522    0.0000 C   0  0  0  0  0  0  0  0  0  0  0  0
    5.0608   -6.0613    0.0000 C   0  0  0  0  0  0  0  0  0  0  0  0
    5.4694   -6.7662    0.0000 C   0  0  0  0  0  0  0  0  0  0  0  0
    6.2866   -6.7662    0.0000 C   0  0  0  0  0  0  0  0  0  0  0  0
    7.9210   -6.7662    0.0000 O   0  0  0  0  0  0  0  0  0  0  0  0
    7.9210   -5.3522    0.0000 N   0  0  0  0  0  0  0  0  0  0  0  0
    7.5124   -4.6472    0.0000 C   0  0  0  0  0  0  0  0  0  0  0  0
    7.9210   -3.9381    0.0000 C   0  0  0  0  0  0  0  0  0  0  0  0
    7.5124   -3.2290    0.0000 C   0  0  0  0  0  0  0  0  0  0  0  0
    6.6952   -3.2290    0.0000 C   0  0  0  0  0  0  0  0  0  0  0  0
    6.2866   -3.9381    0.0000 C   0  0  0  0  0  0  0  0  0  0  0  0
    6.6952   -4.6472    0.0000 C   0  0  0  0  0  0  0  0  0  0  0  0
    9.2183   -4.5973    0.0000 N   0  0  0  0  0  0  0  0  0  0  0  0
    9.9955   -4.3467    0.0000 N   0  0  0  0  0  0  0  0  0  0  0  0
    9.9955   -3.5295    0.0000 N   0  0  0  0  0  0  0  0  0  0  0  0
    9.2183   -3.2748    0.0000 N   0  0  0  0  0  0  0  0  0  0  0  0
    8.7382   -3.9381    0.0000 C   0  0  0  0  0  0  0  0  0  0  0  0
   10.6547   -4.8269    0.0000 C   0  0  0  0  0  0  0  0  0  0  0  0
   10.5707   -5.6414    0.0000 C   0  0  0  0  0  0  0  0  0  0  0  0
   11.2298   -6.1174    0.0000 C   0  0  0  0  0  0  0  0  0  0  0  0
   11.9771   -5.7871    0.0000 C   0  0  0  0  0  0  0  0  0  0  0  0
   12.0611   -4.9767    0.0000 C   0  0  0  0  0  0  0  0  0  0  0  0
   11.4020   -4.4925    0.0000 C   0  0  0  0  0  0  0  0  0  0  0  0
   12.6403   -6.2673    0.0000 O   0  0  0  0  0  0  0  0  0  0  0  0
   13.3835   -5.9370    0.0000 C   0  0  0  0  0  0  0  0  0  0  0  0
   11.1458   -6.9319    0.0000 O   0  0  0  0  0  0  0  0  0  0  0  0
   11.8049   -7.4121    0.0000 C   0  0  0  0  0  0  0  0  0  0  0  0
    4.2397   -6.0587    0.0000 C   0  0  0  0  0  0  0  0  0  0  0  0
    3.4962   -6.0596    0.0000 F   0  0  0  0  0  0  0  0  0  0  0  0
    3.6994   -5.3974    0.0000 F   0  0  0  0  0  0  0  0  0  0  0  0
    3.7010   -6.7213    0.0000 F   0  0  0  0  0  0  0  0  0  0  0  0
  1  2  1  0
  2  3  2  0
  3  4  1  0
  4  5  2  0
  5  6  1  0
  6  7  2  0
  2  7  1  0
  1  8  2  0
  1  9  1  0
 10 11  1  0
 11 12  2  0
 12 13  1  0
 13 14  2  0
 14 15  1  0
 10 15  2  0
 16 17  1  0
 17 18  1  0
 18 19  2  0
 19 20  1  0
 16 20  2  0
 21 22  2  0
 22 23  1  0
 23 24  2  0
 24 25  1  0
 25 26  2  0
 21 26  1  0
 27 28  1  0
 24 27  1  0
 29 30  1  0
 23 29  1  0
 17 21  1  0
 11 20  1  0
  9 10  1  0
 31 32  1  0
 31 33  1  0
 31 34  1  0
  5 31  1  0
M  END
>  <Classification>  (589) 
0

>  <pchembl>  (589) 
4.99

>  <InChI_steorem>  (589) 
InChI=1S/C23H18F3N5O3/c1-33-19-12-11-16(13-20(19)34-2)31-29-21(28-30-31)17-5-3-4-6-18(17)27-22(32)14-7-9-15(10-8-14)23(24,25)26/h3-13H,1-2H3,(H,27,32)

>  <source>  (589) 
ChEMBL25

>  <source_id>  (589) 
25

>  <optional_reference>  (589) 
10.1016/j.ejmech.2016.09.010

>  <optional_origin>  (589) 
None

>  <target>  (589) 
MDR1

$$$$

     RDKit          2D

 29 32  0  0  0  0  0  0  0  0999 V2000
   10.2218   -8.3953    0.0000 C   0  0  0  0  0  0  0  0  0  0  0  0
   11.0390   -8.3953    0.0000 C   0  0  0  0  0  0  0  0  0  0  0  0
   11.4476   -7.6862    0.0000 C   0  0  0  0  0  0  0  0  0  0  0  0
   12.2648   -7.6862    0.0000 C   0  0  0  0  0  0  0  0  0  0  0  0
   12.6734   -8.3953    0.0000 C   0  0  0  0  0  0  0  0  0  0  0  0
   12.2648   -9.1044    0.0000 C   0  0  0  0  0  0  0  0  0  0  0  0
   11.4476   -9.1044    0.0000 C   0  0  0  0  0  0  0  0  0  0  0  0
    9.8132   -9.1044    0.0000 O   0  0  0  0  0  0  0  0  0  0  0  0
    9.8132   -7.6862    0.0000 N   0  0  0  0  0  0  0  0  0  0  0  0
   10.2218   -6.9812    0.0000 C   0  0  0  0  0  0  0  0  0  0  0  0
    9.8132   -6.2721    0.0000 C   0  0  0  0  0  0  0  0  0  0  0  0
   10.2218   -5.5630    0.0000 C   0  0  0  0  0  0  0  0  0  0  0  0
   11.0390   -5.5630    0.0000 C   0  0  0  0  0  0  0  0  0  0  0  0
   11.4476   -6.2721    0.0000 C   0  0  0  0  0  0  0  0  0  0  0  0
   11.0390   -6.9812    0.0000 C   0  0  0  0  0  0  0  0  0  0  0  0
    8.5158   -6.9313    0.0000 N   0  0  0  0  0  0  0  0  0  0  0  0
    7.7386   -6.6807    0.0000 N   0  0  0  0  0  0  0  0  0  0  0  0
    7.7386   -5.8635    0.0000 N   0  0  0  0  0  0  0  0  0  0  0  0
    8.5158   -5.6130    0.0000 N   0  0  0  0  0  0  0  0  0  0  0  0
    8.9960   -6.2721    0.0000 C   0  0  0  0  0  0  0  0  0  0  0  0
    7.0795   -7.1609    0.0000 C   0  0  0  0  0  0  0  0  0  0  0  0
    7.1635   -7.9754    0.0000 C   0  0  0  0  0  0  0  0  0  0  0  0
    6.5044   -8.4555    0.0000 C   0  0  0  0  0  0  0  0  0  0  0  0
    5.7571   -8.1212    0.0000 C   0  0  0  0  0  0  0  0  0  0  0  0
    5.6731   -7.3066    0.0000 C   0  0  0  0  0  0  0  0  0  0  0  0
    6.3322   -6.8265    0.0000 C   0  0  0  0  0  0  0  0  0  0  0  0
   12.6770   -9.8135    0.0000 N   0  0  0  0  0  0  0  0  0  0  0  0
   13.4942   -9.8132    0.0000 O   0  0  0  0  0  0  0  0  0  0  0  0
   12.2687  -10.5214    0.0000 O   0  0  0  0  0  0  0  0  0  0  0  0
  1  2  1  0
  2  3  2  0
  3  4  1  0
  4  5  2  0
  5  6  1  0
  6  7  2  0
  2  7  1  0
  1  8  2  0
  1  9  1  0
 10 11  1  0
 11 12  2  0
 12 13  1  0
 13 14  2  0
 14 15  1  0
 10 15  2  0
 16 17  1  0
 17 18  1  0
 18 19  2  0
 19 20  1  0
 16 20  2  0
 21 22  2  0
 22 23  1  0
 23 24  2  0
 24 25  1  0
 25 26  2  0
 21 26  1  0
 17 21  1  0
 11 20  1  0
  9 10  1  0
 27 28  2  0
 27 29  1  0
  6 27  1  0
M  CHG  2  27   1  29  -1
M  END
>  <Classification>  (590) 
1

>  <pchembl>  (590) 
5.03

>  <InChI_steorem>  (590) 
InChI=1S/C20H14N6O3/c27-20(14-7-6-10-16(13-14)26(28)29)21-18-12-5-4-11-17(18)19-22-24-25(23-19)15-8-2-1-3-9-15/h1-13H,(H,21,27)

>  <source>  (590) 
ChEMBL25

>  <source_id>  (590) 
25

>  <optional_reference>  (590) 
10.1016/j.ejmech.2016.09.010

>  <optional_origin>  (590) 
None

>  <target>  (590) 
MDR1

$$$$

     RDKit          2D

 30 33  0  0  0  0  0  0  0  0999 V2000
   10.0028  -11.3586    0.0000 C   0  0  0  0  0  0  0  0  0  0  0  0
    9.1856  -11.3586    0.0000 C   0  0  0  0  0  0  0  0  0  0  0  0
    8.7770  -10.6495    0.0000 C   0  0  0  0  0  0  0  0  0  0  0  0
    7.9598  -10.6495    0.0000 C   0  0  0  0  0  0  0  0  0  0  0  0
    7.5512  -11.3586    0.0000 C   0  0  0  0  0  0  0  0  0  0  0  0
    7.9598  -12.0635    0.0000 C   0  0  0  0  0  0  0  0  0  0  0  0
    8.7770  -12.0635    0.0000 C   0  0  0  0  0  0  0  0  0  0  0  0
   10.4114  -12.0635    0.0000 O   0  0  0  0  0  0  0  0  0  0  0  0
   10.4114  -10.6495    0.0000 N   0  0  0  0  0  0  0  0  0  0  0  0
   10.0028   -9.9404    0.0000 C   0  0  0  0  0  0  0  0  0  0  0  0
   10.4114   -9.2354    0.0000 C   0  0  0  0  0  0  0  0  0  0  0  0
   10.0028   -8.5263    0.0000 C   0  0  0  0  0  0  0  0  0  0  0  0
    9.1856   -8.5263    0.0000 C   0  0  0  0  0  0  0  0  0  0  0  0
    8.7770   -9.2354    0.0000 C   0  0  0  0  0  0  0  0  0  0  0  0
    9.1856   -9.9404    0.0000 C   0  0  0  0  0  0  0  0  0  0  0  0
   11.7087   -9.8945    0.0000 N   0  0  0  0  0  0  0  0  0  0  0  0
   12.4859   -9.6440    0.0000 N   0  0  0  0  0  0  0  0  0  0  0  0
   12.4859   -8.8268    0.0000 N   0  0  0  0  0  0  0  0  0  0  0  0
   11.7087   -8.5721    0.0000 N   0  0  0  0  0  0  0  0  0  0  0  0
   11.2285   -9.2354    0.0000 C   0  0  0  0  0  0  0  0  0  0  0  0
   13.1492  -10.1241    0.0000 C   0  0  0  0  0  0  0  0  0  0  0  0
   13.0610  -10.9346    0.0000 C   0  0  0  0  0  0  0  0  0  0  0  0
   13.7202  -11.4147    0.0000 C   0  0  0  0  0  0  0  0  0  0  0  0
   14.4675  -11.0844    0.0000 C   0  0  0  0  0  0  0  0  0  0  0  0
   14.5556  -10.2699    0.0000 C   0  0  0  0  0  0  0  0  0  0  0  0
   13.8923   -9.7898    0.0000 C   0  0  0  0  0  0  0  0  0  0  0  0
   15.1307  -11.5646    0.0000 O   0  0  0  0  0  0  0  0  0  0  0  0
   15.8739  -11.2343    0.0000 C   0  0  0  0  0  0  0  0  0  0  0  0
   13.6361  -12.2292    0.0000 O   0  0  0  0  0  0  0  0  0  0  0  0
   14.2994  -12.7094    0.0000 C   0  0  0  0  0  0  0  0  0  0  0  0
  1  2  1  0
  2  3  2  0
  3  4  1  0
  4  5  2  0
  5  6  1  0
  6  7  2  0
  2  7  1  0
  1  8  2  0
  1  9  1  0
 10 11  1  0
 11 12  2  0
 12 13  1  0
 13 14  2  0
 14 15  1  0
 10 15  2  0
 16 17  1  0
 17 18  1  0
 18 19  2  0
 19 20  1  0
 16 20  2  0
 21 22  2  0
 22 23  1  0
 23 24  2  0
 24 25  1  0
 25 26  2  0
 21 26  1  0
 27 28  1  0
 24 27  1  0
 29 30  1  0
 23 29  1  0
 17 21  1  0
 11 20  1  0
  9 10  1  0
M  END
>  <Classification>  (591) 
1

>  <pchembl>  (591) 
5.39

>  <InChI_steorem>  (591) 
InChI=1S/C22H19N5O3/c1-29-19-13-12-16(14-20(19)30-2)27-25-21(24-26-27)17-10-6-7-11-18(17)23-22(28)15-8-4-3-5-9-15/h3-14H,1-2H3,(H,23,28)

>  <source>  (591) 
ChEMBL25

>  <source_id>  (591) 
25

>  <optional_reference>  (591) 
10.1016/j.ejmech.2016.09.010

>  <optional_origin>  (591) 
None

>  <target>  (591) 
MDR1

$$$$

     RDKit          2D

 31 34  0  0  0  0  0  0  0  0999 V2000
   10.6147  -11.5227    0.0000 C   0  0  0  0  0  0  0  0  0  0  0  0
    9.7975  -11.5227    0.0000 C   0  0  0  0  0  0  0  0  0  0  0  0
    9.3889  -10.8136    0.0000 C   0  0  0  0  0  0  0  0  0  0  0  0
    8.5718  -10.8136    0.0000 C   0  0  0  0  0  0  0  0  0  0  0  0
    8.1632  -11.5227    0.0000 C   0  0  0  0  0  0  0  0  0  0  0  0
    8.5718  -12.2318    0.0000 C   0  0  0  0  0  0  0  0  0  0  0  0
    9.3889  -12.2318    0.0000 C   0  0  0  0  0  0  0  0  0  0  0  0
   11.0233  -12.2318    0.0000 O   0  0  0  0  0  0  0  0  0  0  0  0
   11.0233  -10.8136    0.0000 N   0  0  0  0  0  0  0  0  0  0  0  0
    7.3460  -11.5227    0.0000 O   0  0  0  0  0  0  0  0  0  0  0  0
    6.9374  -12.2318    0.0000 C   0  0  0  0  0  0  0  0  0  0  0  0
   10.6147  -10.1086    0.0000 C   0  0  0  0  0  0  0  0  0  0  0  0
   11.0233   -9.3996    0.0000 C   0  0  0  0  0  0  0  0  0  0  0  0
   10.6147   -8.6905    0.0000 C   0  0  0  0  0  0  0  0  0  0  0  0
    9.7975   -8.6905    0.0000 C   0  0  0  0  0  0  0  0  0  0  0  0
    9.3889   -9.3996    0.0000 C   0  0  0  0  0  0  0  0  0  0  0  0
    9.7975  -10.1086    0.0000 C   0  0  0  0  0  0  0  0  0  0  0  0
   12.3207  -10.0587    0.0000 N   0  0  0  0  0  0  0  0  0  0  0  0
   13.0979   -9.8082    0.0000 N   0  0  0  0  0  0  0  0  0  0  0  0
   13.0979   -8.9910    0.0000 N   0  0  0  0  0  0  0  0  0  0  0  0
   12.3207   -8.7404    0.0000 N   0  0  0  0  0  0  0  0  0  0  0  0
   11.8405   -9.3996    0.0000 C   0  0  0  0  0  0  0  0  0  0  0  0
   13.7612  -10.2883    0.0000 C   0  0  0  0  0  0  0  0  0  0  0  0
   13.6771  -11.0987    0.0000 C   0  0  0  0  0  0  0  0  0  0  0  0
   14.3363  -11.5830    0.0000 C   0  0  0  0  0  0  0  0  0  0  0  0
   15.0836  -11.2486    0.0000 C   0  0  0  0  0  0  0  0  0  0  0  0
   15.1676  -10.4340    0.0000 C   0  0  0  0  0  0  0  0  0  0  0  0
   14.5085   -9.9580    0.0000 C   0  0  0  0  0  0  0  0  0  0  0  0
   15.7427  -11.7287    0.0000 C   0  0  0  0  0  0  0  0  0  0  0  0
   15.6587  -12.5433    0.0000 C   0  0  0  0  0  0  0  0  0  0  0  0
   16.4900  -11.3985    0.0000 C   0  0  0  0  0  0  0  0  0  0  0  0
  1  2  1  0
  2  3  2  0
  3  4  1  0
  4  5  2  0
  5  6  1  0
  6  7  2  0
  2  7  1  0
  1  8  2  0
  1  9  1  0
 10 11  1  0
  5 10  1  0
 12 13  1  0
 13 14  2  0
 14 15  1  0
 15 16  2  0
 16 17  1  0
 12 17  2  0
 18 19  1  0
 19 20  1  0
 20 21  2  0
 21 22  1  0
 18 22  2  0
 23 24  2  0
 24 25  1  0
 25 26  2  0
 26 27  1  0
 27 28  2  0
 23 28  1  0
 29 30  1  0
 29 31  1  0
 26 29  1  0
 19 23  1  0
 13 22  1  0
  9 12  1  0
M  END
>  <Classification>  (592) 
0

>  <pchembl>  (592) 
4.71

>  <InChI_steorem>  (592) 
InChI=1S/C24H23N5O2/c1-16(2)17-8-12-19(13-9-17)29-27-23(26-28-29)21-6-4-5-7-22(21)25-24(30)18-10-14-20(31-3)15-11-18/h4-16H,1-3H3,(H,25,30)

>  <source>  (592) 
ChEMBL25

>  <source_id>  (592) 
25

>  <optional_reference>  (592) 
10.1016/j.ejmech.2016.09.010

>  <optional_origin>  (592) 
None

>  <target>  (592) 
MDR1

$$$$

     RDKit          2D

 31 34  0  0  0  0  0  0  0  0999 V2000
    9.9846   -8.9242    0.0000 C   0  0  0  0  0  0  0  0  0  0  0  0
    9.1674   -8.9242    0.0000 C   0  0  0  0  0  0  0  0  0  0  0  0
    8.7588   -8.2151    0.0000 C   0  0  0  0  0  0  0  0  0  0  0  0
    7.9416   -8.2151    0.0000 C   0  0  0  0  0  0  0  0  0  0  0  0
    7.5330   -8.9242    0.0000 C   0  0  0  0  0  0  0  0  0  0  0  0
    7.9416   -9.6333    0.0000 C   0  0  0  0  0  0  0  0  0  0  0  0
    8.7588   -9.6333    0.0000 C   0  0  0  0  0  0  0  0  0  0  0  0
   10.3932   -9.6333    0.0000 O   0  0  0  0  0  0  0  0  0  0  0  0
   10.3932   -8.2151    0.0000 N   0  0  0  0  0  0  0  0  0  0  0  0
    9.9846   -7.5101    0.0000 C   0  0  0  0  0  0  0  0  0  0  0  0
   10.3932   -6.8011    0.0000 C   0  0  0  0  0  0  0  0  0  0  0  0
    9.9846   -6.0920    0.0000 C   0  0  0  0  0  0  0  0  0  0  0  0
    9.1674   -6.0920    0.0000 C   0  0  0  0  0  0  0  0  0  0  0  0
    8.7588   -6.8011    0.0000 C   0  0  0  0  0  0  0  0  0  0  0  0
    9.1674   -7.5101    0.0000 C   0  0  0  0  0  0  0  0  0  0  0  0
   11.6905   -7.4643    0.0000 N   0  0  0  0  0  0  0  0  0  0  0  0
   12.4677   -7.2096    0.0000 N   0  0  0  0  0  0  0  0  0  0  0  0
   12.4677   -6.3925    0.0000 N   0  0  0  0  0  0  0  0  0  0  0  0
   11.6905   -6.1378    0.0000 N   0  0  0  0  0  0  0  0  0  0  0  0
   11.2104   -6.8011    0.0000 C   0  0  0  0  0  0  0  0  0  0  0  0
   13.1269   -7.6898    0.0000 C   0  0  0  0  0  0  0  0  0  0  0  0
   13.0429   -8.5043    0.0000 C   0  0  0  0  0  0  0  0  0  0  0  0
   13.7020   -8.9845    0.0000 C   0  0  0  0  0  0  0  0  0  0  0  0
   14.4493   -8.6501    0.0000 C   0  0  0  0  0  0  0  0  0  0  0  0
   14.5333   -7.8397    0.0000 C   0  0  0  0  0  0  0  0  0  0  0  0
   13.8742   -7.3554    0.0000 C   0  0  0  0  0  0  0  0  0  0  0  0
   15.1126   -9.1302    0.0000 S   0  0  0  0  0  0  0  0  0  0  0  0
   15.8557   -8.8000    0.0000 C   0  0  0  0  0  0  0  0  0  0  0  0
    9.1689  -10.3431    0.0000 N   0  0  0  0  0  0  0  0  0  0  0  0
    9.9861  -10.3428    0.0000 O   0  0  0  0  0  0  0  0  0  0  0  0
    8.7606  -11.0510    0.0000 O   0  0  0  0  0  0  0  0  0  0  0  0
  1  2  1  0
  2  3  2  0
  3  4  1  0
  4  5  2  0
  5  6  1  0
  6  7  2  0
  2  7  1  0
  1  8  2  0
  1  9  1  0
 10 11  1  0
 11 12  2  0
 12 13  1  0
 13 14  2  0
 14 15  1  0
 10 15  2  0
 16 17  1  0
 17 18  1  0
 18 19  2  0
 19 20  1  0
 16 20  2  0
 21 22  2  0
 22 23  1  0
 23 24  2  0
 24 25  1  0
 25 26  2  0
 21 26  1  0
 27 28  1  0
 24 27  1  0
 17 21  1  0
 11 20  1  0
  9 10  1  0
 29 30  2  0
 29 31  1  0
  7 29  1  0
M  CHG  2  29   1  31  -1
M  END
>  <Classification>  (593) 
1

>  <pchembl>  (593) 
5.01

>  <InChI_steorem>  (593) 
InChI=1S/C21H16N6O3S/c1-31-15-12-10-14(11-13-15)26-24-20(23-25-26)16-6-2-4-8-18(16)22-21(28)17-7-3-5-9-19(17)27(29)30/h2-13H,1H3,(H,22,28)

>  <source>  (593) 
ChEMBL25

>  <source_id>  (593) 
25

>  <optional_reference>  (593) 
10.1016/j.ejmech.2016.09.010

>  <optional_origin>  (593) 
None

>  <target>  (593) 
MDR1

$$$$

     RDKit          2D

 30 33  0  0  0  0  0  0  0  0999 V2000
    9.9846   -8.9242    0.0000 C   0  0  0  0  0  0  0  0  0  0  0  0
    9.1674   -8.9242    0.0000 C   0  0  0  0  0  0  0  0  0  0  0  0
    8.7588   -8.2151    0.0000 C   0  0  0  0  0  0  0  0  0  0  0  0
    7.9416   -8.2151    0.0000 C   0  0  0  0  0  0  0  0  0  0  0  0
    7.5330   -8.9242    0.0000 C   0  0  0  0  0  0  0  0  0  0  0  0
    7.9416   -9.6333    0.0000 C   0  0  0  0  0  0  0  0  0  0  0  0
    8.7588   -9.6333    0.0000 C   0  0  0  0  0  0  0  0  0  0  0  0
   10.3932   -9.6333    0.0000 O   0  0  0  0  0  0  0  0  0  0  0  0
   10.3932   -8.2151    0.0000 N   0  0  0  0  0  0  0  0  0  0  0  0
    9.9846   -7.5101    0.0000 C   0  0  0  0  0  0  0  0  0  0  0  0
   10.3932   -6.8011    0.0000 C   0  0  0  0  0  0  0  0  0  0  0  0
    9.9846   -6.0920    0.0000 C   0  0  0  0  0  0  0  0  0  0  0  0
    9.1674   -6.0920    0.0000 C   0  0  0  0  0  0  0  0  0  0  0  0
    8.7588   -6.8011    0.0000 C   0  0  0  0  0  0  0  0  0  0  0  0
    9.1674   -7.5101    0.0000 C   0  0  0  0  0  0  0  0  0  0  0  0
   11.6905   -7.4643    0.0000 N   0  0  0  0  0  0  0  0  0  0  0  0
   12.4677   -7.2096    0.0000 N   0  0  0  0  0  0  0  0  0  0  0  0
   12.4677   -6.3925    0.0000 N   0  0  0  0  0  0  0  0  0  0  0  0
   11.6905   -6.1378    0.0000 N   0  0  0  0  0  0  0  0  0  0  0  0
   11.2104   -6.8011    0.0000 C   0  0  0  0  0  0  0  0  0  0  0  0
   13.1269   -7.6898    0.0000 C   0  0  0  0  0  0  0  0  0  0  0  0
   13.0429   -8.5043    0.0000 C   0  0  0  0  0  0  0  0  0  0  0  0
   13.7020   -8.9845    0.0000 C   0  0  0  0  0  0  0  0  0  0  0  0
   14.4493   -8.6501    0.0000 C   0  0  0  0  0  0  0  0  0  0  0  0
   14.5333   -7.8397    0.0000 C   0  0  0  0  0  0  0  0  0  0  0  0
   13.8742   -7.3554    0.0000 C   0  0  0  0  0  0  0  0  0  0  0  0
   15.1126   -9.1302    0.0000 S   0  0  0  0  0  0  0  0  0  0  0  0
   15.8557   -8.8000    0.0000 C   0  0  0  0  0  0  0  0  0  0  0  0
    6.7173   -8.9240    0.0000 O   0  0  0  0  0  0  0  0  0  0  0  0
    6.3088   -9.6317    0.0000 C   0  0  0  0  0  0  0  0  0  0  0  0
  1  2  1  0
  2  3  2  0
  3  4  1  0
  4  5  2  0
  5  6  1  0
  6  7  2  0
  2  7  1  0
  1  8  2  0
  1  9  1  0
 10 11  1  0
 11 12  2  0
 12 13  1  0
 13 14  2  0
 14 15  1  0
 10 15  2  0
 16 17  1  0
 17 18  1  0
 18 19  2  0
 19 20  1  0
 16 20  2  0
 21 22  2  0
 22 23  1  0
 23 24  2  0
 24 25  1  0
 25 26  2  0
 21 26  1  0
 27 28  1  0
 24 27  1  0
 17 21  1  0
 11 20  1  0
  9 10  1  0
 29 30  1  0
  5 29  1  0
M  END
>  <Classification>  (594) 
1

>  <pchembl>  (594) 
5.38

>  <InChI_steorem>  (594) 
InChI=1S/C22H19N5O2S/c1-29-17-11-7-15(8-12-17)22(28)23-20-6-4-3-5-19(20)21-24-26-27(25-21)16-9-13-18(30-2)14-10-16/h3-14H,1-2H3,(H,23,28)

>  <source>  (594) 
ChEMBL25

>  <source_id>  (594) 
25

>  <optional_reference>  (594) 
10.1016/j.ejmech.2016.09.010

>  <optional_origin>  (594) 
None

>  <target>  (594) 
MDR1

$$$$

     RDKit          2D

 30 33  0  0  0  0  0  0  0  0999 V2000
   10.9099  -10.5988    0.0000 C   0  0  0  0  0  0  0  0  0  0  0  0
   10.2004  -11.0067    0.0000 C   0  0  0  0  0  0  0  0  0  0  0  0
   10.1995  -11.8239    0.0000 C   0  0  0  0  0  0  0  0  0  0  0  0
    9.4900  -12.2317    0.0000 C   0  0  0  0  0  0  0  0  0  0  0  0
    8.7855  -11.8224    0.0000 C   0  0  0  0  0  0  0  0  0  0  0  0
    8.7863  -11.0052    0.0000 C   0  0  0  0  0  0  0  0  0  0  0  0
    9.4917  -10.5974    0.0000 C   0  0  0  0  0  0  0  0  0  0  0  0
   10.9107   -9.7816    0.0000 O   0  0  0  0  0  0  0  0  0  0  0  0
   11.6144  -11.0081    0.0000 N   0  0  0  0  0  0  0  0  0  0  0  0
   11.6177  -11.8253    0.0000 C   0  0  0  0  0  0  0  0  0  0  0  0
   12.3223  -12.2346    0.0000 C   0  0  0  0  0  0  0  0  0  0  0  0
   12.3214  -13.0518    0.0000 C   0  0  0  0  0  0  0  0  0  0  0  0
   11.6161  -13.4597    0.0000 C   0  0  0  0  0  0  0  0  0  0  0  0
   10.9074  -13.0504    0.0000 C   0  0  0  0  0  0  0  0  0  0  0  0
   10.9082  -12.2332    0.0000 C   0  0  0  0  0  0  0  0  0  0  0  0
   13.1166  -11.0123    0.0000 N   0  0  0  0  0  0  0  0  0  0  0  0
   13.9152  -10.8423    0.0000 N   0  0  0  0  0  0  0  0  0  0  0  0
   14.3230  -11.5518    0.0000 N   0  0  0  0  0  0  0  0  0  0  0  0
   13.7787  -12.1619    0.0000 N   0  0  0  0  0  0  0  0  0  0  0  0
   13.0318  -11.8267    0.0000 C   0  0  0  0  0  0  0  0  0  0  0  0
   14.2503  -10.0995    0.0000 C   0  0  0  0  0  0  0  0  0  0  0  0
   13.7708   -9.4357    0.0000 C   0  0  0  0  0  0  0  0  0  0  0  0
   14.1019   -8.6888    0.0000 C   0  0  0  0  0  0  0  0  0  0  0  0
   14.9165   -8.6056    0.0000 C   0  0  0  0  0  0  0  0  0  0  0  0
   15.3960   -9.2693    0.0000 C   0  0  0  0  0  0  0  0  0  0  0  0
   15.0608  -10.0122    0.0000 C   0  0  0  0  0  0  0  0  0  0  0  0
   15.2475   -7.8586    0.0000 O   0  0  0  0  0  0  0  0  0  0  0  0
   16.0621   -7.7754    0.0000 C   0  0  0  0  0  0  0  0  0  0  0  0
    8.0760  -12.2303    0.0000 O   0  0  0  0  0  0  0  0  0  0  0  0
    7.3673  -11.8210    0.0000 C   0  0  0  0  0  0  0  0  0  0  0  0
  1  2  1  0
  2  3  2  0
  3  4  1  0
  4  5  2  0
  5  6  1  0
  6  7  2  0
  2  7  1  0
  1  8  2  0
  1  9  1  0
 10 11  1  0
 11 12  2  0
 12 13  1  0
 13 14  2  0
 14 15  1  0
 10 15  2  0
 16 17  1  0
 17 18  1  0
 18 19  2  0
 19 20  1  0
 16 20  2  0
 21 22  2  0
 22 23  1  0
 23 24  2  0
 24 25  1  0
 25 26  2  0
 21 26  1  0
 27 28  1  0
 24 27  1  0
 17 21  1  0
 11 20  1  0
  9 10  1  0
 29 30  1  0
  5 29  1  0
M  END
>  <Classification>  (595) 
1

>  <pchembl>  (595) 
5.54

>  <InChI_steorem>  (595) 
InChI=1S/C22H19N5O3/c1-29-17-11-7-15(8-12-17)22(28)23-20-6-4-3-5-19(20)21-24-26-27(25-21)16-9-13-18(30-2)14-10-16/h3-14H,1-2H3,(H,23,28)

>  <source>  (595) 
ChEMBL25

>  <source_id>  (595) 
25

>  <optional_reference>  (595) 
10.1016/j.ejmech.2016.09.010

>  <optional_origin>  (595) 
None

>  <target>  (595) 
MDR1

$$$$

     RDKit          2D

 84 84  0  0  0  0  0  0  0  0999 V2000
    4.0667   -3.3125    0.0000 N   0  0  0  0  0  0  0  0  0  0  0  0
    3.2417   -3.3167    0.0000 C   0  0  0  0  0  0  0  0  0  0  0  0
    1.3500   -3.1292    0.0000 N   0  0  0  0  0  0  0  0  0  0  0  0
    1.2875   -4.0292    0.0000 C   0  0  0  0  0  0  0  0  0  0  0  0
    7.0292   -2.8875    0.0000 C   0  0  0  0  0  0  0  0  0  0  0  0
    1.1417   -5.1125    0.0000 N   0  0  0  0  0  0  0  0  0  0  0  0
    6.3167   -3.3042    0.0000 N   0  0  0  0  0  0  0  0  0  0  0  0
    6.9292   -5.5292    0.0000 N   0  0  0  0  0  0  0  0  0  0  0  0
    7.7625   -5.5292    0.0000 C   0  0  0  0  0  0  0  0  0  0  0  0
    5.5000   -3.3042    0.0000 C   0  0  0  0  0  0  0  0  0  0  0  0
    2.5292   -2.9042    0.0000 C   0  0  0  0  0  0  0  0  0  0  0  0
    0.8542   -4.4667    0.0000 C   0  0  0  0  0  0  0  0  0  0  0  0
    9.1875   -5.5375    0.0000 N   0  0  0  0  0  0  0  0  0  0  0  0
   11.5292   -5.3500    0.0000 N   0  0  0  0  0  0  0  0  0  0  0  0
    7.7542   -3.2917    0.0000 C   0  0  0  0  0  0  0  0  0  0  0  0
    0.9375   -5.9125    0.0000 C   0  0  0  0  0  0  0  0  0  0  0  0
   10.0125   -5.5417    0.0000 C   0  0  0  0  0  0  0  0  0  0  0  0
    5.4167   -5.7167    0.0000 C   0  0  0  0  0  0  0  0  0  0  0  0
   11.6875   -4.4542    0.0000 C   0  0  0  0  0  0  0  0  0  0  0  0
   10.8292   -3.2875    0.0000 N   0  0  0  0  0  0  0  0  0  0  0  0
    6.2167   -5.9375    0.0000 C   0  0  0  0  0  0  0  0  0  0  0  0
    8.5750   -3.2917    0.0000 N   0  0  0  0  0  0  0  0  0  0  0  0
    8.4667   -5.9417    0.0000 C   0  0  0  0  0  0  0  0  0  0  0  0
   10.8167   -5.7625    0.0000 C   0  0  0  0  0  0  0  0  0  0  0  0
   10.0042   -3.2875    0.0000 C   0  0  0  0  0  0  0  0  0  0  0  0
    4.6167   -5.9292    0.0000 N   0  0  0  0  0  0  0  0  0  0  0  0
    2.3625   -5.9167    0.0000 N   0  0  0  0  0  0  0  0  0  0  0  0
    4.7792   -2.8917    0.0000 C   0  0  0  0  0  0  0  0  0  0  0  0
    3.1917   -5.9250    0.0000 C   0  0  0  0  0  0  0  0  0  0  0  0
    1.6417   -6.3292    0.0000 C   0  0  0  0  0  0  0  0  0  0  0  0
    9.2875   -2.8792    0.0000 C   0  0  0  0  0  0  0  0  0  0  0  0
   10.8167   -4.1125    0.0000 C   0  0  0  0  0  0  0  0  0  0  0  0
    7.0292   -2.0625    0.0000 C   0  0  0  0  0  0  0  0  0  0  0  0
    3.9000   -6.3417    0.0000 C   0  0  0  0  0  0  0  0  0  0  0  0
    3.2417   -4.1417    0.0000 O   0  0  0  0  0  0  0  0  0  0  0  0
    2.0417   -4.3667    0.0000 O   0  0  0  0  0  0  0  0  0  0  0  0
    7.7667   -4.7042    0.0000 O   0  0  0  0  0  0  0  0  0  0  0  0
    5.5042   -4.1292    0.0000 O   0  0  0  0  0  0  0  0  0  0  0  0
    0.0417   -4.3167    0.0000 C   0  0  0  0  0  0  0  0  0  0  0  0
    0.1750   -6.2250    0.0000 O   0  0  0  0  0  0  0  0  0  0  0  0
    2.5292   -2.0792    0.0000 C   0  0  0  0  0  0  0  0  0  0  0  0
    7.7542   -4.1167    0.0000 O   0  0  0  0  0  0  0  0  0  0  0  0
   10.0042   -4.7167    0.0000 O   0  0  0  0  0  0  0  0  0  0  0  0
    5.4125   -4.8917    0.0000 O   0  0  0  0  0  0  0  0  0  0  0  0
   12.5042   -4.0000    0.0000 O   0  0  0  0  0  0  0  0  0  0  0  0
   10.0125   -4.1125    0.0000 O   0  0  0  0  0  0  0  0  0  0  0  0
    6.2125   -6.7625    0.0000 C   0  0  0  0  0  0  0  0  0  0  0  0
   10.8125   -6.5875    0.0000 C   0  0  0  0  0  0  0  0  0  0  0  0
    3.1917   -5.1000    0.0000 O   0  0  0  0  0  0  0  0  0  0  0  0
    8.4667   -6.7667    0.0000 C   0  0  0  0  0  0  0  0  0  0  0  0
    7.0167   -0.4125    0.0000 C   0  0  0  0  0  0  0  0  0  0  0  0
    7.0167    0.4125    0.0000 C   0  0  0  0  0  0  0  0  0  0  0  0
    4.0625   -4.1292    0.0000 C   0  0  0  0  0  0  0  0  0  0  0  0
    4.7750   -2.0667    0.0000 C   0  0  0  0  0  0  0  0  0  0  0  0
    0.6292   -2.6625    0.0000 C   0  0  0  0  0  0  0  0  0  0  0  0
    1.9417   -4.8917    0.0000 C   0  0  0  0  0  0  0  0  0  0  0  0
    6.5250   -4.8125    0.0000 C   0  0  0  0  0  0  0  0  0  0  0  0
    7.7417   -1.6417    0.0000 C   0  0  0  0  0  0  0  0  0  0  0  0
   12.2417   -5.7667    0.0000 C   0  0  0  0  0  0  0  0  0  0  0  0
    6.3125   -1.6500    0.0000 O   0  0  0  0  0  0  0  0  0  0  0  0
   11.3167   -2.6125    0.0000 C   0  0  0  0  0  0  0  0  0  0  0  0
    9.2792   -2.0542    0.0000 C   0  0  0  0  0  0  0  0  0  0  0  0
    1.6417   -7.1542    0.0000 C   0  0  0  0  0  0  0  0  0  0  0  0
    7.7375   -0.8167    0.0000 C   0  0  0  0  0  0  0  0  0  0  0  0
    1.8167   -1.6667    0.0000 C   0  0  0  0  0  0  0  0  0  0  0  0
   -0.2375   -3.5500    0.0000 C   0  0  0  0  0  0  0  0  0  0  0  0
   11.5250   -7.0000    0.0000 C   0  0  0  0  0  0  0  0  0  0  0  0
    5.4917   -7.1667    0.0000 C   0  0  0  0  0  0  0  0  0  0  0  0
    3.8917   -7.1667    0.0000 C   0  0  0  0  0  0  0  0  0  0  0  0
    6.3000    0.8250    0.0000 C   0  0  0  0  0  0  0  0  0  0  0  0
    9.1792   -7.1792    0.0000 C   0  0  0  0  0  0  0  0  0  0  0  0
    7.7500   -7.1792    0.0000 C   0  0  0  0  0  0  0  0  0  0  0  0
    5.4875   -1.6542    0.0000 C   0  0  0  0  0  0  0  0  0  0  0  0
    4.0542   -1.6542    0.0000 C   0  0  0  0  0  0  0  0  0  0  0  0
    8.4542   -2.0542    0.0000 C   0  0  0  0  0  0  0  0  0  0  0  0
   -1.0500   -3.4042    0.0000 C   0  0  0  0  0  0  0  0  0  0  0  0
   11.5167   -7.8250    0.0000 C   0  0  0  0  0  0  0  0  0  0  0  0
   12.2417   -6.5917    0.0000 C   0  0  0  0  0  0  0  0  0  0  0  0
    0.2917   -2.9167    0.0000 C   0  0  0  0  0  0  0  0  0  0  0  0
    5.4917   -7.9917    0.0000 C   0  0  0  0  0  0  0  0  0  0  0  0
    4.7792   -6.7542    0.0000 C   0  0  0  0  0  0  0  0  0  0  0  0
    1.8167   -0.8417    0.0000 C   0  0  0  0  0  0  0  0  0  0  0  0
    1.1042   -2.0792    0.0000 C   0  0  0  0  0  0  0  0  0  0  0  0
    9.9917   -1.6375    0.0000 C   0  0  0  0  0  0  0  0  0  0  0  0
  2  1  1  0
  3 11  1  0
  4  3  1  0
  7  5  1  0
  6 12  1  0
  7 10  1  0
  8 21  1  0
  9  8  1  0
 10 28  1  0
 11  2  1  0
 12  4  1  0
 13 17  1  0
 14 19  1  0
 15  5  1  0
 16  6  1  0
 17 24  1  0
 18 26  1  0
 19 32  1  0
 20 25  1  0
 21 18  1  0
 22 15  1  0
 23 13  1  0
 24 14  1  0
 25 31  1  0
 26 34  1  0
 27 30  1  0
 28  1  1  0
 29 27  1  0
 30 16  1  0
 22 31  1  0
 32 20  1  0
 33  5  1  0
 34 29  1  0
 35  2  2  0
 36  4  2  0
 37  9  2  0
 38 10  2  0
 12 39  1  0
 40 16  2  0
 11 41  1  0
 42 15  2  0
 43 17  2  0
 44 18  2  0
 45 19  2  0
 46 25  2  0
 21 47  1  0
 24 48  1  0
 49 29  2  0
 23 50  1  0
 51 64  1  0
 52 51  2  3
 53  1  1  0
 28 54  1  0
 55  3  1  0
 56  6  1  0
 57  8  1  0
 58 33  1  0
 59 14  1  0
 33 60  1  0
 61 20  1  0
 31 62  1  0
 30 63  1  0
 64 58  1  0
 65 41  1  0
 66 39  1  0
 67 48  1  0
 68 47  1  0
 34 69  1  0
 70 52  1  0
 71 50  1  0
 72 50  1  0
 73 54  1  0
 74 54  1  0
 58 75  1  0
 76 66  1  0
 77 67  1  0
 78 67  1  0
 79 66  1  0
 80 68  1  0
 81 68  1  0
 82 65  1  0
 83 65  1  0
 84 62  1  0
 23  9  1  0
M  END
>  <Classification>  (596) 
1

>  <pchembl>  (596) 
5.64

>  <InChI_steorem>  (596) 
InChI=1S/C61H109N11O12/c1-24-26-27-39(15)51(74)49-55(78)64-42(25-2)58(81)67(18)32-47(73)68(19)43(28-33(3)4)54(77)65-48(37(11)12)61(84)69(20)44(29-34(5)6)53(76)62-40(16)52(75)63-41(17)57(80)70(21)45(30-35(7)8)59(82)71(22)46(31-36(9)10)60(83)72(23)50(38(13)14)56(79)66-49/h24,26,33-46,48-51,74H,25,27-32H2,1-23H3,(H,62,76)(H,63,75)(H,64,78)(H,65,77)(H,66,79)

>  <source>  (596) 
ChEMBL25

>  <source_id>  (596) 
25

>  <optional_reference>  (596) 
10.1021/jm0109863

>  <optional_origin>  (596) 
None

>  <target>  (596) 
MDR1

$$$$

     RDKit          2D

 85 85  0  0  0  0  0  0  0  0999 V2000
    1.8125   -2.7875    0.0000 N   0  0  0  0  0  0  0  0  0  0  0  0
    0.9917   -2.7917    0.0000 C   0  0  0  0  0  0  0  0  0  0  0  0
   -0.9000   -2.6042    0.0000 N   0  0  0  0  0  0  0  0  0  0  0  0
   -0.9625   -3.5042    0.0000 C   0  0  0  0  0  0  0  0  0  0  0  0
    4.7792   -2.3625    0.0000 C   0  0  0  0  0  0  0  0  0  0  0  0
   -1.1083   -4.5875    0.0000 N   0  0  0  0  0  0  0  0  0  0  0  0
    4.0667   -2.7792    0.0000 N   0  0  0  0  0  0  0  0  0  0  0  0
    4.6792   -5.0042    0.0000 N   0  0  0  0  0  0  0  0  0  0  0  0
    5.5042   -5.0042    0.0000 C   0  0  0  0  0  0  0  0  0  0  0  0
    3.2417   -2.7792    0.0000 C   0  0  0  0  0  0  0  0  0  0  0  0
    0.2792   -2.3792    0.0000 C   0  0  0  0  0  0  0  0  0  0  0  0
   -1.4000   -3.9417    0.0000 C   0  0  0  0  0  0  0  0  0  0  0  0
    6.3250   -2.7667    0.0000 N   0  0  0  0  0  0  0  0  0  0  0  0
    6.9375   -5.0125    0.0000 N   0  0  0  0  0  0  0  0  0  0  0  0
    5.5000   -2.7667    0.0000 C   0  0  0  0  0  0  0  0  0  0  0  0
    9.2792   -4.8250    0.0000 N   0  0  0  0  0  0  0  0  0  0  0  0
   -1.3208   -5.3875    0.0000 C   0  0  0  0  0  0  0  0  0  0  0  0
    7.7542   -2.7625    0.0000 C   0  0  0  0  0  0  0  0  0  0  0  0
    7.7625   -5.0167    0.0000 C   0  0  0  0  0  0  0  0  0  0  0  0
    3.1625   -5.1917    0.0000 C   0  0  0  0  0  0  0  0  0  0  0  0
    8.5750   -2.7625    0.0000 N   0  0  0  0  0  0  0  0  0  0  0  0
    9.4375   -3.9292    0.0000 C   0  0  0  0  0  0  0  0  0  0  0  0
    3.9625   -5.4125    0.0000 C   0  0  0  0  0  0  0  0  0  0  0  0
    6.2167   -5.4167    0.0000 C   0  0  0  0  0  0  0  0  0  0  0  0
    8.5625   -5.2375    0.0000 C   0  0  0  0  0  0  0  0  0  0  0  0
    2.3625   -5.4042    0.0000 N   0  0  0  0  0  0  0  0  0  0  0  0
    7.0375   -2.3542    0.0000 C   0  0  0  0  0  0  0  0  0  0  0  0
    0.1125   -5.3917    0.0000 N   0  0  0  0  0  0  0  0  0  0  0  0
    2.5250   -2.3667    0.0000 C   0  0  0  0  0  0  0  0  0  0  0  0
    0.9375   -5.4000    0.0000 C   0  0  0  0  0  0  0  0  0  0  0  0
   -0.6083   -5.8042    0.0000 C   0  0  0  0  0  0  0  0  0  0  0  0
    8.5667   -3.5875    0.0000 C   0  0  0  0  0  0  0  0  0  0  0  0
    4.7750   -1.5375    0.0000 C   0  0  0  0  0  0  0  0  0  0  0  0
    1.6500   -5.8167    0.0000 C   0  0  0  0  0  0  0  0  0  0  0  0
    0.9917   -3.6167    0.0000 O   0  0  0  0  0  0  0  0  0  0  0  0
   -0.2125   -3.8417    0.0000 O   0  0  0  0  0  0  0  0  0  0  0  0
    5.5125   -4.1792    0.0000 O   0  0  0  0  0  0  0  0  0  0  0  0
    3.2500   -3.6042    0.0000 O   0  0  0  0  0  0  0  0  0  0  0  0
   -2.0833   -5.7000    0.0000 O   0  0  0  0  0  0  0  0  0  0  0  0
   -2.2125   -3.8000    0.0000 C   0  0  0  0  0  0  0  0  0  0  0  0
    0.2792   -1.5542    0.0000 C   0  0  0  0  0  0  0  0  0  0  0  0
    7.7542   -3.5875    0.0000 O   0  0  0  0  0  0  0  0  0  0  0  0
    5.5042   -3.5917    0.0000 O   0  0  0  0  0  0  0  0  0  0  0  0
    7.7542   -4.1917    0.0000 O   0  0  0  0  0  0  0  0  0  0  0  0
    3.1625   -4.3667    0.0000 O   0  0  0  0  0  0  0  0  0  0  0  0
   10.2500   -3.4750    0.0000 O   0  0  0  0  0  0  0  0  0  0  0  0
    3.9542   -6.2375    0.0000 C   0  0  0  0  0  0  0  0  0  0  0  0
    8.5625   -6.0625    0.0000 C   0  0  0  0  0  0  0  0  0  0  0  0
    0.9417   -4.5750    0.0000 O   0  0  0  0  0  0  0  0  0  0  0  0
    6.2125   -6.2417    0.0000 C   0  0  0  0  0  0  0  0  0  0  0  0
    7.0292   -1.5292    0.0000 C   0  0  0  0  0  0  0  0  0  0  0  0
    4.7667    0.1125    0.0000 C   0  0  0  0  0  0  0  0  0  0  0  0
    4.7625    0.9375    0.0000 C   0  0  0  0  0  0  0  0  0  0  0  0
    2.0292   -3.5792    0.0000 C   0  0  0  0  0  0  0  0  0  0  0  0
    2.5167   -1.5417    0.0000 C   0  0  0  0  0  0  0  0  0  0  0  0
   -1.5208   -2.0542    0.0000 C   0  0  0  0  0  0  0  0  0  0  0  0
   -0.3125   -4.3667    0.0000 C   0  0  0  0  0  0  0  0  0  0  0  0
    4.4667   -4.2042    0.0000 C   0  0  0  0  0  0  0  0  0  0  0  0
    5.4875   -1.1167    0.0000 C   0  0  0  0  0  0  0  0  0  0  0  0
    9.9542   -5.3000    0.0000 C   0  0  0  0  0  0  0  0  0  0  0  0
    4.0542   -1.1250    0.0000 O   0  0  0  0  0  0  0  0  0  0  0  0
    9.0625   -2.0875    0.0000 C   0  0  0  0  0  0  0  0  0  0  0  0
   -0.6125   -6.6292    0.0000 C   0  0  0  0  0  0  0  0  0  0  0  0
    5.4792   -0.2917    0.0000 C   0  0  0  0  0  0  0  0  0  0  0  0
   -0.4375   -1.1417    0.0000 C   0  0  0  0  0  0  0  0  0  0  0  0
   -2.4958   -3.0250    0.0000 C   0  0  0  0  0  0  0  0  0  0  0  0
    9.2667   -6.4750    0.0000 C   0  0  0  0  0  0  0  0  0  0  0  0
    3.2417   -6.6417    0.0000 C   0  0  0  0  0  0  0  0  0  0  0  0
    1.6417   -6.6417    0.0000 C   0  0  0  0  0  0  0  0  0  0  0  0
    4.0417    1.3500    0.0000 C   0  0  0  0  0  0  0  0  0  0  0  0
    6.9250   -6.6542    0.0000 C   0  0  0  0  0  0  0  0  0  0  0  0
    6.3125   -1.1167    0.0000 C   0  0  0  0  0  0  0  0  0  0  0  0
    5.4917   -6.6542    0.0000 C   0  0  0  0  0  0  0  0  0  0  0  0
    7.7417   -1.1125    0.0000 C   0  0  0  0  0  0  0  0  0  0  0  0
    3.2292   -1.1292    0.0000 C   0  0  0  0  0  0  0  0  0  0  0  0
    1.8042   -1.1292    0.0000 C   0  0  0  0  0  0  0  0  0  0  0  0
    6.2042   -1.5292    0.0000 C   0  0  0  0  0  0  0  0  0  0  0  0
    2.5292   -6.2292    0.0000 C   0  0  0  0  0  0  0  0  0  0  0  0
   -1.9708   -2.3917    0.0000 C   0  0  0  0  0  0  0  0  0  0  0  0
   -1.1500   -1.5542    0.0000 C   0  0  0  0  0  0  0  0  0  0  0  0
   -0.4375   -0.3167    0.0000 C   0  0  0  0  0  0  0  0  0  0  0  0
   -3.3083   -2.8792    0.0000 C   0  0  0  0  0  0  0  0  0  0  0  0
    9.2667   -7.3000    0.0000 C   0  0  0  0  0  0  0  0  0  0  0  0
    9.9875   -6.0667    0.0000 C   0  0  0  0  0  0  0  0  0  0  0  0
    3.2375   -7.4667    0.0000 C   0  0  0  0  0  0  0  0  0  0  0  0
  2  1  1  0
  3 11  1  0
  4  3  1  0
  7  5  1  0
  6 12  1  0
  7 10  1  0
  8 23  1  0
  9  8  1  0
 10 29  1  0
 11  2  1  0
 12  4  1  0
 13 15  1  0
 14 19  1  0
 15  5  1  0
 16 22  1  0
 17  6  1  0
 18 27  1  0
 19 25  1  0
 20 26  1  0
 21 18  1  0
 22 32  1  0
 23 20  1  0
 24 14  1  0
 25 16  1  0
 26 34  1  0
 13 27  1  0
 28 31  1  0
 29  1  1  0
 30 28  1  0
 31 17  1  0
 32 21  1  0
 33  5  1  0
 34 30  1  0
 35  2  2  0
 36  4  2  0
 37  9  2  0
 38 10  2  0
 39 17  2  0
 12 40  1  0
 11 41  1  0
 42 18  2  0
 43 15  2  0
 44 19  2  0
 45 20  2  0
 46 22  2  0
 23 47  1  0
 25 48  1  0
 49 30  2  0
 24 50  1  0
 27 51  1  0
 52 64  1  0
 53 52  2  3
 54  1  1  0
 29 55  1  0
 56  3  1  0
 57  6  1  0
 58  8  1  0
 59 33  1  0
 60 16  1  0
 33 61  1  0
 62 21  1  0
 31 63  1  0
 64 59  1  0
 65 41  1  0
 66 40  1  0
 67 48  1  0
 68 47  1  0
 34 69  1  0
 70 53  1  0
 71 50  1  0
 72 51  1  0
 73 50  1  0
 74 51  1  0
 75 55  1  0
 76 55  1  0
 59 77  1  0
 78 68  1  0
 79 66  1  0
 80 65  1  0
 81 65  1  0
 82 66  1  0
 83 67  1  0
 84 67  1  0
 85 68  1  0
 24  9  1  0
M  END
>  <Classification>  (597) 
1

>  <pchembl>  (597) 
5.68

>  <InChI_steorem>  (597) 
InChI=1S/C62H111N11O12/c1-25-26-27-40(16)52(75)50-56(79)66-48(37(10)11)61(84)68(19)32-47(74)69(20)43(28-33(2)3)55(78)65-49(38(12)13)62(85)70(21)44(29-34(4)5)54(77)63-41(17)53(76)64-42(18)58(81)71(22)45(30-35(6)7)59(82)72(23)46(31-36(8)9)60(83)73(24)51(39(14)15)57(80)67-50/h25-26,33-46,48-52,75H,27-32H2,1-24H3,(H,63,77)(H,64,76)(H,65,78)(H,66,79)(H,67,80)

>  <source>  (597) 
ChEMBL25

>  <source_id>  (597) 
25

>  <optional_reference>  (597) 
10.1021/jm0109863

>  <optional_origin>  (597) 
None

>  <target>  (597) 
MDR1

$$$$

     RDKit          2D

 39 45  0  0  0  0  0  0  0  0999 V2000
   -0.2828    2.3084    0.0000 Cl  0  0  0  0  0  0  0  0  0  0  0  0
   -0.0666    1.5098    0.0000 C   0  0  0  0  0  0  0  0  0  0  0  0
    0.5168    2.0964    0.0000 Cl  0  0  0  0  0  0  0  0  0  0  0  0
   -2.6925    0.3618    0.0000 C   0  0  0  0  0  0  0  0  0  0  0  0
   -2.6936   -0.4639    0.0000 C   0  0  0  0  0  0  0  0  0  0  0  0
   -1.9801   -0.8762    0.0000 C   0  0  0  0  0  0  0  0  0  0  0  0
   -1.9819    0.7739    0.0000 C   0  0  0  0  0  0  0  0  0  0  0  0
   -1.2629   -0.4610    0.0000 C   0  0  0  0  0  0  0  0  0  0  0  0
   -1.2677    0.3655    0.0000 C   0  0  0  0  0  0  0  0  0  0  0  0
   -0.6079   -0.9747    0.0000 C   0  0  0  0  0  0  0  0  0  0  0  0
    0.5530   -0.0285    0.0000 C   0  0  0  0  0  0  0  0  0  0  0  0
    0.2020   -0.7802    0.0000 C   0  0  0  0  0  0  0  0  0  0  0  0
    0.6772   -1.4579    0.0000 C   0  0  0  0  0  0  0  0  0  0  0  0
    1.5033   -1.3852    0.0000 C   0  0  0  0  0  0  0  0  0  0  0  0
    1.8520   -0.6289    0.0000 C   0  0  0  0  0  0  0  0  0  0  0  0
    1.3747    0.0456    0.0000 C   0  0  0  0  0  0  0  0  0  0  0  0
   -0.7801   -1.7782    0.0000 N   0  0  0  0  0  0  0  0  0  0  0  0
   -1.5661   -2.0277    0.0000 C   0  0  0  0  0  0  0  0  0  0  0  0
   -1.7416   -2.8314    0.0000 C   0  0  0  0  0  0  0  0  0  0  0  0
   -1.1322   -3.3867    0.0000 N   0  0  0  0  0  0  0  0  0  0  0  0
   -0.3445   -3.1323    0.0000 C   0  0  0  0  0  0  0  0  0  0  0  0
   -0.1726   -2.3291    0.0000 C   0  0  0  0  0  0  0  0  0  0  0  0
   -0.6231    0.8950    0.0000 C   0  0  0  0  0  0  0  0  0  0  0  0
    0.1888    0.7166    0.0000 C   0  0  0  0  0  0  0  0  0  0  0  0
   -1.3066   -4.1914    0.0000 C   0  0  0  0  0  0  0  0  0  0  0  0
   -0.6967   -4.7449    0.0000 C   0  0  0  0  0  0  0  0  0  0  0  0
    0.0875   -4.4935    0.0000 C   0  0  0  0  0  0  0  0  0  0  0  0
    0.6974   -5.0468    0.0000 O   0  0  0  0  0  0  0  0  0  0  0  0
    1.4815   -4.7954    0.0000 C   0  0  0  0  0  0  0  0  0  0  0  0
   -0.8711   -5.5497    0.0000 O   0  0  0  0  0  0  0  0  0  0  0  0
    3.0453   -4.2930    0.0000 C   0  0  0  0  0  0  0  0  0  0  0  0
    2.4305   -3.7387    0.0000 C   0  0  0  0  0  0  0  0  0  0  0  0
    1.6493   -3.9925    0.0000 C   0  0  0  0  0  0  0  0  0  0  0  0
    2.8704   -5.0986    0.0000 C   0  0  0  0  0  0  0  0  0  0  0  0
    2.0889   -5.3473    0.0000 C   0  0  0  0  0  0  0  0  0  0  0  0
    1.9149   -6.1469    0.0000 C   0  0  0  0  0  0  0  0  0  0  0  0
    2.5214   -6.6985    0.0000 C   0  0  0  0  0  0  0  0  0  0  0  0
    3.3047   -6.4451    0.0000 C   0  0  0  0  0  0  0  0  0  0  0  0
    3.4750   -5.6461    0.0000 N   0  0  0  0  0  0  0  0  0  0  0  0
 19 20  1  0
  8 10  1  0
 20 21  1  0
 10 12  1  0
 21 22  1  0
 22 17  1  0
 10 17  1  0
 24 23  1  0
  2 24  1  0
 23  2  1  0
 24 11  1  0
  5  6  1  0
  6  8  2  0
 20 25  1  0
 11 12  2  0
 25 26  1  0
 26 27  1  0
 12 13  1  0
 27 28  1  0
  9  7  2  0
 28 29  1  0
 13 14  2  0
 26 30  1  0
 29 35  2  0
  7  4  1  0
 34 31  2  0
 14 15  1  0
 31 32  1  0
  2  1  1  0
 32 33  2  0
 33 29  1  0
 15 16  2  0
 16 11  1  0
 34 35  1  0
  4  5  2  0
 35 36  1  0
  8  9  1  0
 36 37  2  0
 17 18  1  0
 37 38  1  0
  9 23  1  0
 38 39  2  0
 39 34  1  0
 18 19  1  0
  3  2  1  0
M  END
>  <Classification>  (598) 
1

>  <pchembl>  (598) 
6.03

>  <InChI_steorem>  (598) 
InChI=1S/C32H31Cl2N3O2/c33-32(34)29-22-7-1-3-9-24(22)31(25-10-4-2-8-23(25)30(29)32)37-17-15-36(16-18-37)19-21(38)20-39-28-13-5-12-27-26(28)11-6-14-35-27/h1-14,21,29-31,38H,15-20H2

>  <source>  (598) 
ChEMBL25

>  <source_id>  (598) 
25

>  <optional_reference>  (598) 
10.1021/jm900253g

>  <optional_origin>  (598) 
None

>  <target>  (598) 
MDR1

$$$$

     RDKit          2D

 24 27  0  0  0  0  0  0  0  0999 V2000
   17.7062  -13.3594    0.0000 N   0  0  0  0  0  0  0  0  0  0  0  0
   18.2056  -12.7085    0.0000 C   0  0  0  0  0  0  0  0  0  0  0  0
   17.7413  -12.0345    0.0000 C   0  0  0  0  0  0  0  0  0  0  0  0
   16.9581  -12.2682    0.0000 C   0  0  0  0  0  0  0  0  0  0  0  0
   16.2590  -11.8419    0.0000 C   0  0  0  0  0  0  0  0  0  0  0  0
   15.5419  -12.2303    0.0000 C   0  0  0  0  0  0  0  0  0  0  0  0
   15.5186  -13.0470    0.0000 C   0  0  0  0  0  0  0  0  0  0  0  0
   16.2177  -13.4733    0.0000 C   0  0  0  0  0  0  0  0  0  0  0  0
   16.9347  -13.0848    0.0000 C   0  0  0  0  0  0  0  0  0  0  0  0
   19.3694  -11.9052    0.0000 C   0  0  0  0  0  0  0  0  0  0  0  0
   19.0178  -12.6429    0.0000 N   0  0  0  0  0  0  0  0  0  0  0  0
   18.0929  -11.2968    0.0000 C   0  0  0  0  0  0  0  0  0  0  0  0
   18.9088  -11.2331    0.0000 N   0  0  0  0  0  0  0  0  0  0  0  0
   20.1853  -11.8414    0.0000 N   0  0  0  0  0  0  0  0  0  0  0  0
   17.6285  -10.6229    0.0000 N   0  0  0  0  0  0  0  0  0  0  0  0
   16.8126  -10.6867    0.0000 C   0  0  0  0  0  0  0  0  0  0  0  0
   17.9801   -9.8852    0.0000 C   0  0  0  0  0  0  0  0  0  0  0  0
   18.7960   -9.8214    0.0000 C   0  0  0  0  0  0  0  0  0  0  0  0
   19.1476   -9.0838    0.0000 C   0  0  0  0  0  0  0  0  0  0  0  0
   18.6833   -8.4098    0.0000 C   0  0  0  0  0  0  0  0  0  0  0  0
   17.8674   -8.4736    0.0000 C   0  0  0  0  0  0  0  0  0  0  0  0
   17.5158   -9.2113    0.0000 C   0  0  0  0  0  0  0  0  0  0  0  0
   19.0349   -7.6721    0.0000 O   0  0  0  0  0  0  0  0  0  0  0  0
   18.5705   -6.9982    0.0000 C   0  0  0  0  0  0  0  0  0  0  0  0
  1  2  1  0
  2  3  2  0
  3  4  1  0
  4  5  2  0
  5  6  1  0
  6  7  2  0
  7  8  1  0
  8  9  2  0
  1  9  1  0
  4  9  1  0
 10 11  2  0
 12 13  2  0
 10 13  1  0
  2 11  1  0
  3 12  1  0
 10 14  1  0
 12 15  1  0
 15 16  1  0
 17 18  2  0
 18 19  1  0
 19 20  2  0
 20 21  1  0
 21 22  2  0
 17 22  1  0
 23 24  1  0
 20 23  1  0
 15 17  1  0
M  END
>  <Classification>  (599) 
1

>  <pchembl>  (599) 
7.46

>  <InChI_steorem>  (599) 
InChI=1S/C18H17N5O/c1-23(11-7-9-12(24-2)10-8-11)17-15-13-5-3-4-6-14(13)20-16(15)21-18(19)22-17/h3-10H,1-2H3,(H3,19,20,21,22)

>  <source>  (599) 
ChEMBL25

>  <source_id>  (599) 
25

>  <optional_reference>  (599) 
10.1016/j.bmc.2012.12.010

>  <optional_origin>  (599) 
None

>  <target>  (599) 
MDR1

$$$$

     RDKit          2D

 25 28  0  0  0  0  0  0  0  0999 V2000
   10.8833  -13.4099    0.0000 N   0  0  0  0  0  0  0  0  0  0  0  0
   11.3905  -12.7701    0.0000 C   0  0  0  0  0  0  0  0  0  0  0  0
   10.9363  -12.0893    0.0000 C   0  0  0  0  0  0  0  0  0  0  0  0
   10.1498  -12.3112    0.0000 C   0  0  0  0  0  0  0  0  0  0  0  0
    9.4571  -11.8745    0.0000 C   0  0  0  0  0  0  0  0  0  0  0  0
    8.7343  -12.2522    0.0000 C   0  0  0  0  0  0  0  0  0  0  0  0
    8.6987  -13.0685    0.0000 C   0  0  0  0  0  0  0  0  0  0  0  0
    9.3914  -13.5052    0.0000 C   0  0  0  0  0  0  0  0  0  0  0  0
   10.1142  -13.1275    0.0000 C   0  0  0  0  0  0  0  0  0  0  0  0
   12.5662  -11.9844    0.0000 C   0  0  0  0  0  0  0  0  0  0  0  0
   12.2036  -12.7167    0.0000 N   0  0  0  0  0  0  0  0  0  0  0  0
   11.2989  -11.3570    0.0000 C   0  0  0  0  0  0  0  0  0  0  0  0
   12.1157  -11.3054    0.0000 N   0  0  0  0  0  0  0  0  0  0  0  0
   13.3829  -11.9328    0.0000 N   0  0  0  0  0  0  0  0  0  0  0  0
   10.8447  -10.6762    0.0000 N   0  0  0  0  0  0  0  0  0  0  0  0
   10.0280  -10.7278    0.0000 C   0  0  0  0  0  0  0  0  0  0  0  0
   11.2073   -9.9439    0.0000 C   0  0  0  0  0  0  0  0  0  0  0  0
   12.0241   -9.8923    0.0000 C   0  0  0  0  0  0  0  0  0  0  0  0
   12.3867   -9.1599    0.0000 C   0  0  0  0  0  0  0  0  0  0  0  0
   11.9325   -8.4791    0.0000 C   0  0  0  0  0  0  0  0  0  0  0  0
   11.1157   -8.5307    0.0000 C   0  0  0  0  0  0  0  0  0  0  0  0
   10.7531   -9.2631    0.0000 C   0  0  0  0  0  0  0  0  0  0  0  0
   12.2950   -7.7468    0.0000 O   0  0  0  0  0  0  0  0  0  0  0  0
   11.8409   -7.0660    0.0000 C   0  0  0  0  0  0  0  0  0  0  0  0
   12.2034   -6.3337    0.0000 C   0  0  0  0  0  0  0  0  0  0  0  0
  1  2  1  0
  2  3  2  0
  3  4  1  0
  4  5  2  0
  5  6  1  0
  6  7  2  0
  7  8  1  0
  8  9  2  0
  1  9  1  0
  4  9  1  0
 10 11  2  0
 12 13  2  0
 10 13  1  0
  2 11  1  0
  3 12  1  0
 10 14  1  0
 12 15  1  0
 15 16  1  0
 17 18  2  0
 18 19  1  0
 19 20  2  0
 20 21  1  0
 21 22  2  0
 17 22  1  0
 24 25  1  0
 23 24  1  0
 20 23  1  0
 15 17  1  0
M  END
>  <Classification>  (600) 
1

>  <pchembl>  (600) 
7.54

>  <InChI_steorem>  (600) 
InChI=1S/C19H19N5O/c1-3-25-13-10-8-12(9-11-13)24(2)18-16-14-6-4-5-7-15(14)21-17(16)22-19(20)23-18/h4-11H,3H2,1-2H3,(H3,20,21,22,23)

>  <source>  (600) 
ChEMBL25

>  <source_id>  (600) 
25

>  <optional_reference>  (600) 
10.1016/j.bmc.2012.12.010

>  <optional_origin>  (600) 
None

>  <target>  (600) 
MDR1

$$$$

     RDKit          2D

 25 28  0  0  0  0  0  0  0  0999 V2000
   11.3889  -13.1778    0.0000 N   0  0  0  0  0  0  0  0  0  0  0  0
   11.8718  -12.5155    0.0000 C   0  0  0  0  0  0  0  0  0  0  0  0
   11.3945  -11.8508    0.0000 C   0  0  0  0  0  0  0  0  0  0  0  0
   10.6160  -12.0996    0.0000 C   0  0  0  0  0  0  0  0  0  0  0  0
    9.9124  -11.6887    0.0000 C   0  0  0  0  0  0  0  0  0  0  0  0
    9.2031  -12.0910    0.0000 C   0  0  0  0  0  0  0  0  0  0  0  0
    9.1956  -12.9080    0.0000 C   0  0  0  0  0  0  0  0  0  0  0  0
    9.9029  -13.3206    0.0000 C   0  0  0  0  0  0  0  0  0  0  0  0
   10.6123  -12.9183    0.0000 C   0  0  0  0  0  0  0  0  0  0  0  0
   13.0235  -11.6915    0.0000 C   0  0  0  0  0  0  0  0  0  0  0  0
   12.6863  -12.4359    0.0000 N   0  0  0  0  0  0  0  0  0  0  0  0
   11.7316  -11.1064    0.0000 C   0  0  0  0  0  0  0  0  0  0  0  0
   12.5461  -11.0268    0.0000 N   0  0  0  0  0  0  0  0  0  0  0  0
   13.8380  -11.6119    0.0000 N   0  0  0  0  0  0  0  0  0  0  0  0
   11.2580  -10.4433    0.0000 N   0  0  0  0  0  0  0  0  0  0  0  0
   11.5952   -9.6989    0.0000 C   0  0  0  0  0  0  0  0  0  0  0  0
   12.4060   -9.6176    0.0000 C   0  0  0  0  0  0  0  0  0  0  0  0
   12.7431   -8.8732    0.0000 C   0  0  0  0  0  0  0  0  0  0  0  0
   12.2695   -8.2101    0.0000 C   0  0  0  0  0  0  0  0  0  0  0  0
   11.4550   -8.2898    0.0000 C   0  0  0  0  0  0  0  0  0  0  0  0
   11.1179   -9.0342    0.0000 C   0  0  0  0  0  0  0  0  0  0  0  0
   12.6067   -7.4658    0.0000 O   0  0  0  0  0  0  0  0  0  0  0  0
   12.1294   -6.8010    0.0000 C   0  0  0  0  0  0  0  0  0  0  0  0
   10.4435  -10.5230    0.0000 C   0  0  0  0  0  0  0  0  0  0  0  0
    9.9700   -9.8599    0.0000 C   0  0  0  0  0  0  0  0  0  0  0  0
  1  2  1  0
  2  3  2  0
  3  4  1  0
  4  5  2  0
  5  6  1  0
  6  7  2  0
  7  8  1  0
  8  9  2  0
  1  9  1  0
  4  9  1  0
 10 11  2  0
 12 13  2  0
 10 13  1  0
  2 11  1  0
  3 12  1  0
 10 14  1  0
 12 15  1  0
 16 17  2  0
 17 18  1  0
 18 19  2  0
 19 20  1  0
 20 21  2  0
 16 21  1  0
 22 23  1  0
 19 22  1  0
 15 16  1  0
 24 25  1  0
 15 24  1  0
M  END
>  <Classification>  (601) 
1

>  <pchembl>  (601) 
7.14

>  <InChI_steorem>  (601) 
InChI=1S/C19H19N5O/c1-3-24(12-8-10-13(25-2)11-9-12)18-16-14-6-4-5-7-15(14)21-17(16)22-19(20)23-18/h4-11H,3H2,1-2H3,(H3,20,21,22,23)

>  <source>  (601) 
ChEMBL25

>  <source_id>  (601) 
25

>  <optional_reference>  (601) 
10.1016/j.bmc.2012.12.010

>  <optional_origin>  (601) 
None

>  <target>  (601) 
MDR1

$$$$

     RDKit          2D

 25 27  0  0  0  0  0  0  0  0999 V2000
    7.6998   -4.3902    0.0000 C   0  0  0  0  0  0  0  0  0  0  0  0
    7.2876   -5.1122    0.0000 C   0  0  0  0  0  0  0  0  0  0  0  0
    6.4582   -5.1152    0.0000 C   0  0  0  0  0  0  0  0  0  0  0  0
    7.2852   -3.6749    0.0000 C   0  0  0  0  0  0  0  0  0  0  0  0
    6.4572   -3.6744    0.0000 C   0  0  0  0  0  0  0  0  0  0  0  0
    6.0420   -4.3988    0.0000 C   0  0  0  0  0  0  0  0  0  0  0  0
    5.2247   -4.2278    0.0000 N   0  0  0  0  0  0  0  0  0  0  0  0
    5.1348   -3.3976    0.0000 C   0  0  0  0  0  0  0  0  0  0  0  0
    5.8965   -3.0557    0.0000 N   0  0  0  0  0  0  0  0  0  0  0  0
    4.4157   -2.9854    0.0000 S   0  0  0  0  0  0  0  0  0  0  0  0
    3.6990   -3.4021    0.0000 C   0  0  0  0  0  0  0  0  0  0  0  0
    4.4130   -2.1565    0.0000 O   0  0  0  0  0  0  0  0  0  0  0  0
    2.9799   -2.9899    0.0000 C   0  0  0  0  0  0  0  0  0  0  0  0
    2.2646   -3.4103    0.0000 C   0  0  0  0  0  0  0  0  0  0  0  0
    1.5458   -2.9987    0.0000 C   0  0  0  0  0  0  0  0  0  0  0  0
    1.5429   -2.1690    0.0000 C   0  0  0  0  0  0  0  0  0  0  0  0
    2.2644   -1.7524    0.0000 C   0  0  0  0  0  0  0  0  0  0  0  0
    2.9801   -2.1664    0.0000 N   0  0  0  0  0  0  0  0  0  0  0  0
    2.2692   -4.2391    0.0000 C   0  0  0  0  0  0  0  0  0  0  0  0
    0.8295   -3.4158    0.0000 O   0  0  0  0  0  0  0  0  0  0  0  0
    0.1102   -3.0039    0.0000 C   0  0  0  0  0  0  0  0  0  0  0  0
   -0.6062   -3.4209    0.0000 C   0  0  0  0  0  0  0  0  0  0  0  0
   -1.3255   -3.0091    0.0000 F   0  0  0  0  0  0  0  0  0  0  0  0
   -0.6032   -4.2499    0.0000 F   0  0  0  0  0  0  0  0  0  0  0  0
   -1.3163   -3.8386    0.0000 F   0  0  0  0  0  0  0  0  0  0  0  0
 10 12  1  0
  2  3  1  0
 11 13  1  0
  3  6  2  0
 13 14  2  0
  1  2  2  0
 14 15  1  0
  5  4  2  0
 15 16  2  0
  6  7  1  0
 16 17  1  0
  7  8  1  0
 17 18  2  0
 18 13  1  0
  8  9  2  0
 14 19  1  0
  9  5  1  0
 15 20  1  0
  4  1  1  0
 20 21  1  0
  8 10  1  0
 21 22  1  0
  5  6  1  0
 22 23  1  0
 10 11  1  0
 22 24  1  0
 22 25  1  0
M  CHG  2  10   1  12  -1
M  END
>  <Classification>  (602) 
0

>  <pchembl>  (602) 
4.2

>  <InChI_steorem>  (602) 
InChI=1S/C16H14F3N3O2S/c1-10-13(20-7-6-14(10)24-9-16(17,18)19)8-25(23)15-21-11-4-2-3-5-12(11)22-15/h2-7H,8-9H2,1H3,(H,21,22)

>  <source>  (602) 
ChEMBL25

>  <source_id>  (602) 
25

>  <optional_reference>  (602) 
10.1007/s00210-001-0489-7

>  <optional_origin>  (602) 
None

>  <target>  (602) 
MDR1

$$$$

     RDKit          2D

 22 24  0  0  0  0  0  0  0  0999 V2000
    2.3383   -1.3500    0.0000 O   0  0  0  0  0  0  0  0  0  0  0  0
    1.2990   -0.7500    0.0000 C   0  0  0  0  0  0  0  0  0  0  0  0
    1.2990    0.7500    0.0000 C   0  0  0  0  0  0  0  0  0  0  0  0
    0.0000    1.5000    0.0000 O   0  0  0  0  0  0  0  0  0  0  0  0
   -1.2990    0.7500    0.0000 C   0  0  0  0  0  0  0  0  0  0  0  0
   -2.5981    1.5000    0.0000 C   0  0  0  0  0  0  0  0  0  0  0  0
   -3.8971    0.7500    0.0000 C   0  0  0  0  0  0  0  0  0  0  0  0
   -4.9364    1.3500    0.0000 O   0  0  0  0  0  0  0  0  0  0  0  0
   -3.8971   -0.7500    0.0000 C   0  0  0  0  0  0  0  0  0  0  0  0
   -2.5981   -1.5000    0.0000 C   0  0  0  0  0  0  0  0  0  0  0  0
   -2.5981   -2.7000    0.0000 O   0  0  0  0  0  0  0  0  0  0  0  0
   -1.2990   -0.7500    0.0000 C   0  0  0  0  0  0  0  0  0  0  0  0
    0.0000   -1.5000    0.0000 C   0  0  0  0  0  0  0  0  0  0  0  0
    0.0000   -2.7000    0.0000 O   0  0  0  0  0  0  0  0  0  0  0  0
    2.5987    1.5004    0.0000 C   0  0  0  0  0  0  0  0  0  0  0  0
    3.8991    0.7525    0.0000 C   0  0  0  0  0  0  0  0  0  0  0  0
    5.1969    1.5046    0.0000 C   0  0  0  0  0  0  0  0  0  0  0  0
    5.1945    3.0046    0.0000 C   0  0  0  0  0  0  0  0  0  0  0  0
    6.2328    3.6062    0.0000 O   0  0  0  0  0  0  0  0  0  0  0  0
    3.8943    3.7525    0.0000 C   0  0  0  0  0  0  0  0  0  0  0  0
    3.8924    4.9525    0.0000 O   0  0  0  0  0  0  0  0  0  0  0  0
    2.5964    3.0004    0.0000 C   0  0  0  0  0  0  0  0  0  0  0  0
  1  2  1  0
  2  3  2  0
  3  4  1  0
  4  5  1  0
  5  6  2  0
  6  7  1  0
  7  8  1  0
  7  9  2  0
  9 10  1  0
 10 11  1  0
 10 12  2  0
 12  5  1  0
 12 13  1  0
 13  2  1  0
 13 14  2  0
  3 15  1  0
 15 16  2  0
 16 17  1  0
 17 18  2  0
 18 19  1  0
 18 20  1  0
 20 21  1  0
 20 22  2  0
 22 15  1  0
M  END
>  <Classification>  (603) 
0

>  <pchembl>  (603) 
4.28

>  <InChI_steorem>  (603) 
InChI=1S/C15H10O7/c16-7-4-10(19)12-11(5-7)22-15(14(21)13(12)20)6-1-2-8(17)9(18)3-6/h1-5,16-19,21H

>  <source>  (603) 
ChEMBL25

>  <source_id>  (603) 
25

>  <optional_reference>  (603) 
10.1016/j.bbrc.2004.06.020

>  <optional_origin>  (603) 
None

>  <target>  (603) 
MDR1

$$$$

     RDKit          2D

 29 31  0  0  0  0  0  0  0  0999 V2000
    7.5395   -1.3388    0.0000 C   0  0  0  0  0  0  0  0  0  0  0  0
    6.4990   -0.7409    0.0000 O   0  0  0  0  0  0  0  0  0  0  0  0
    5.2003   -1.4932    0.0000 C   0  0  0  0  0  0  0  0  0  0  0  0
    3.8990   -0.7455    0.0000 C   0  0  0  0  0  0  0  0  0  0  0  0
    2.6003   -1.4977    0.0000 O   0  0  0  0  0  0  0  0  0  0  0  0
    1.2990   -0.7500    0.0000 C   0  0  0  0  0  0  0  0  0  0  0  0
    1.2990    0.7500    0.0000 C   0  0  0  0  0  0  0  0  0  0  0  0
    0.0000    1.5000    0.0000 C   0  0  0  0  0  0  0  0  0  0  0  0
    0.0000    3.0000    0.0000 N   0  0  0  0  0  0  0  0  0  0  0  0
   -1.2991    3.7500    0.0000 C   0  0  0  0  0  0  0  0  0  0  0  0
   -2.5981    3.0000    0.0000 N   0  0  0  0  0  0  0  0  0  0  0  0
   -2.5981    1.5000    0.0000 C   0  0  0  0  0  0  0  0  0  0  0  0
   -3.8994    0.7522    0.0000 N   0  0  0  0  0  0  0  0  0  0  0  0
   -5.1981    1.5045    0.0000 C   0  0  0  0  0  0  0  0  0  0  0  0
   -6.4998    0.7590    0.0000 C   0  0  0  0  0  0  0  0  0  0  0  0
   -7.7962    1.5135    0.0000 C   0  0  0  0  0  0  0  0  0  0  0  0
   -7.7910    3.0135    0.0000 C   0  0  0  0  0  0  0  0  0  0  0  0
   -6.4894    3.7590    0.0000 C   0  0  0  0  0  0  0  0  0  0  0  0
   -5.1930    3.0045    0.0000 C   0  0  0  0  0  0  0  0  0  0  0  0
   -6.4842    5.2598    0.0000 C   0  0  0  0  0  0  0  0  0  0  0  0
   -6.4801    6.4598    0.0000 C   0  0  0  0  0  0  0  0  0  0  0  0
   -1.2990    0.7500    0.0000 C   0  0  0  0  0  0  0  0  0  0  0  0
   -1.2990   -0.7500    0.0000 C   0  0  0  0  0  0  0  0  0  0  0  0
    0.0000   -1.5000    0.0000 C   0  0  0  0  0  0  0  0  0  0  0  0
   -0.0031   -3.0008    0.0000 O   0  0  0  0  0  0  0  0  0  0  0  0
   -1.3039   -3.7494    0.0000 C   0  0  0  0  0  0  0  0  0  0  0  0
   -1.3070   -5.2502    0.0000 C   0  0  0  0  0  0  0  0  0  0  0  0
   -2.6078   -5.9988    0.0000 O   0  0  0  0  0  0  0  0  0  0  0  0
   -2.6103   -7.1988    0.0000 C   0  0  0  0  0  0  0  0  0  0  0  0
  1  2  1  0
  2  3  1  0
  3  4  1  0
  4  5  1  0
  5  6  1  0
  6  7  2  0
  7  8  1  0
  8  9  2  0
  9 10  1  0
 10 11  2  0
 11 12  1  0
 12 13  1  0
 13 14  1  0
 14 15  2  0
 15 16  1  0
 16 17  2  0
 17 18  1  0
 18 19  2  0
 19 14  1  0
 18 20  1  0
 20 21  3  0
 12 22  2  0
 22  8  1  0
 22 23  1  0
 23 24  2  0
 24  6  1  0
 24 25  1  0
 25 26  1  0
 26 27  1  0
 27 28  1  0
 28 29  1  0
M  END
>  <Classification>  (604) 
0

>  <pchembl>  (604) 
4.58

>  <InChI_steorem>  (604) 
InChI=1S/C22H23N3O4/c1-4-16-6-5-7-17(12-16)25-22-18-13-20(28-10-8-26-2)21(29-11-9-27-3)14-19(18)23-15-24-22/h1,5-7,12-15H,8-11H2,2-3H3,(H,23,24,25)

>  <source>  (604) 
ChEMBL25

>  <source_id>  (604) 
25

>  <optional_reference>  (604) 
10.1021/jm300212s

>  <optional_origin>  (604) 
None

>  <target>  (604) 
MDR1

$$$$

     RDKit          2D

 30 33  0  0  0  0  0  0  0  0999 V2000
    7.4956  -14.8744    0.0000 Cl  0  0  0  0  0  0  0  0  0  0  0  0
    6.4594  -14.2692    0.0000 C   0  0  0  0  0  0  0  0  0  0  0  0
    5.1566  -15.0126    0.0000 C   0  0  0  0  0  0  0  0  0  0  0  0
    3.8613  -14.2561    0.0000 C   0  0  0  0  0  0  0  0  0  0  0  0
    3.8689  -12.7561    0.0000 C   0  0  0  0  0  0  0  0  0  0  0  0
    5.1717  -12.0125    0.0000 C   0  0  0  0  0  0  0  0  0  0  0  0
    5.1769  -10.5118    0.0000 N   0  0  0  0  0  0  0  0  0  0  0  0
    6.4785   -9.7663    0.0000 C   0  0  0  0  0  0  0  0  0  0  0  0
    6.4837   -8.2663    0.0000 C   0  0  0  0  0  0  0  0  0  0  0  0
    5.1873   -7.5117    0.0000 N   0  0  0  0  0  0  0  0  0  0  0  0
    5.1894   -6.0109    0.0000 C   0  0  0  0  0  0  0  0  0  0  0  0
    3.8912   -5.2578    0.0000 C   0  0  0  0  0  0  0  0  0  0  0  0
    3.8933   -3.7570    0.0000 C   0  0  0  0  0  0  0  0  0  0  0  0
    2.5951   -3.0039    0.0000 C   0  0  0  0  0  0  0  0  0  0  0  0
    2.5973   -1.5031    0.0000 O   0  0  0  0  0  0  0  0  0  0  0  0
    1.2990   -0.7500    0.0000 C   0  0  0  0  0  0  0  0  0  0  0  0
    1.2990    0.7500    0.0000 C   0  0  0  0  0  0  0  0  0  0  0  0
    0.0000    1.5000    0.0000 C   0  0  0  0  0  0  0  0  0  0  0  0
   -1.2990    0.7500    0.0000 C   0  0  0  0  0  0  0  0  0  0  0  0
   -2.5981    1.5000    0.0000 C   0  0  0  0  0  0  0  0  0  0  0  0
   -3.8971    0.7500    0.0000 C   0  0  0  0  0  0  0  0  0  0  0  0
   -3.8971   -0.7500    0.0000 C   0  0  0  0  0  0  0  0  0  0  0  0
   -4.9363   -1.3500    0.0000 O   0  0  0  0  0  0  0  0  0  0  0  0
   -2.5981   -1.5000    0.0000 N   0  0  0  0  0  0  0  0  0  0  0  0
   -1.2990   -0.7500    0.0000 C   0  0  0  0  0  0  0  0  0  0  0  0
    0.0000   -1.5000    0.0000 C   0  0  0  0  0  0  0  0  0  0  0  0
    3.8856   -8.2573    0.0000 C   0  0  0  0  0  0  0  0  0  0  0  0
    3.8804   -9.7573    0.0000 C   0  0  0  0  0  0  0  0  0  0  0  0
    6.4669  -12.7692    0.0000 C   0  0  0  0  0  0  0  0  0  0  0  0
    7.5092  -12.1745    0.0000 Cl  0  0  0  0  0  0  0  0  0  0  0  0
  1  2  1  0
  2  3  2  0
  3  4  1  0
  4  5  2  0
  5  6  1  0
  6  7  1  0
  7  8  1  0
  8  9  1  0
  9 10  1  0
 10 11  1  0
 11 12  1  0
 12 13  1  0
 13 14  1  0
 14 15  1  0
 15 16  1  0
 16 17  2  0
 17 18  1  0
 18 19  2  0
 19 20  1  0
 20 21  1  0
 21 22  1  0
 22 23  2  0
 22 24  1  0
 24 25  1  0
 25 19  1  0
 25 26  2  0
 26 16  1  0
 10 27  1  0
 27 28  1  0
 28  7  1  0
  6 29  2  0
 29  2  1  0
 29 30  1  0
M  END
>  <Classification>  (605) 
1

>  <pchembl>  (605) 
6.11

>  <InChI_steorem>  (605) 
InChI=1S/C23H27Cl2N3O2/c24-19-4-3-5-21(23(19)25)28-13-11-27(12-14-28)10-1-2-15-30-18-8-6-17-7-9-22(29)26-20(17)16-18/h3-6,8,16H,1-2,7,9-15H2,(H,26,29)

>  <source>  (605) 
ChEMBL25

>  <source_id>  (605) 
25

>  <optional_reference>  (605) 
10.1021/jm101421d

>  <optional_origin>  (605) 
None

>  <target>  (605) 
MDR1

$$$$

     RDKit          2D

 85 85  0  0  0  0  0  0  0  0999 V2000
    2.7490    9.6727    0.0000 C   0  0  0  0  0  0  0  0  0  0  0  0
    3.4920    8.7304    0.0000 C   0  0  0  0  0  0  0  0  0  0  0  0
    2.9324    7.3249    0.0000 C   0  0  0  0  0  0  0  0  0  0  0  0
    1.4932    7.7475    0.0000 N   0  0  0  0  0  0  0  0  0  0  0  0
    0.0000    7.8901    0.0000 C   0  0  0  0  0  0  0  0  0  0  0  0
    0.0000    9.0901    0.0000 O   0  0  0  0  0  0  0  0  0  0  0  0
   -1.4932    7.7475    0.0000 C   0  0  0  0  0  0  0  0  0  0  0  0
   -1.7775    9.2333    0.0000 C   0  0  0  0  0  0  0  0  0  0  0  0
   -0.8692   10.0176    0.0000 O   0  0  0  0  0  0  0  0  0  0  0  0
   -3.1947    9.7271    0.0000 C   0  0  0  0  0  0  0  0  0  0  0  0
   -4.1030    8.9428    0.0000 C   0  0  0  0  0  0  0  0  0  0  0  0
   -3.4767   11.2012    0.0000 C   0  0  0  0  0  0  0  0  0  0  0  0
   -4.8940   11.6949    0.0000 C   0  0  0  0  0  0  0  0  0  0  0  0
   -5.1760   13.1690    0.0000 C   0  0  0  0  0  0  0  0  0  0  0  0
   -6.3092   13.5638    0.0000 C   0  0  0  0  0  0  0  0  0  0  0  0
   -2.9325    7.3249    0.0000 N   0  0  0  0  0  0  0  0  0  0  0  0
   -3.3785    8.4389    0.0000 C   0  0  0  0  0  0  0  0  0  0  0  0
   -4.2657    6.6375    0.0000 C   0  0  0  0  0  0  0  0  0  0  0  0
   -4.9145    7.6470    0.0000 O   0  0  0  0  0  0  0  0  0  0  0  0
   -5.4448    5.7103    0.0000 C   0  0  0  0  0  0  0  0  0  0  0  0
   -6.4866    6.8071    0.0000 C   0  0  0  0  0  0  0  0  0  0  0  0
   -6.1470    7.9581    0.0000 C   0  0  0  0  0  0  0  0  0  0  0  0
   -7.6532    6.5261    0.0000 C   0  0  0  0  0  0  0  0  0  0  0  0
   -6.4271    4.5767    0.0000 N   0  0  0  0  0  0  0  0  0  0  0  0
   -7.4046    5.2727    0.0000 C   0  0  0  0  0  0  0  0  0  0  0  0
   -7.1771    3.2776    0.0000 C   0  0  0  0  0  0  0  0  0  0  0  0
   -8.2687    3.7761    0.0000 O   0  0  0  0  0  0  0  0  0  0  0  0
   -7.6677    1.8601    0.0000 C   0  0  0  0  0  0  0  0  0  0  0  0
   -9.1371    2.2196    0.0000 C   0  0  0  0  0  0  0  0  0  0  0  0
   -9.5580    3.6602    0.0000 C   0  0  0  0  0  0  0  0  0  0  0  0
  -10.7237    3.9454    0.0000 C   0  0  0  0  0  0  0  0  0  0  0  0
   -8.7285    4.5273    0.0000 C   0  0  0  0  0  0  0  0  0  0  0  0
   -7.8812    0.3754    0.0000 N   0  0  0  0  0  0  0  0  0  0  0  0
   -9.0798    0.4325    0.0000 C   0  0  0  0  0  0  0  0  0  0  0  0
   -7.8098   -1.1229    0.0000 C   0  0  0  0  0  0  0  0  0  0  0  0
   -8.9976   -1.2937    0.0000 O   0  0  0  0  0  0  0  0  0  0  0  0
   -7.4561   -2.5806    0.0000 C   0  0  0  0  0  0  0  0  0  0  0  0
   -8.8866   -3.0726    0.0000 C   0  0  0  0  0  0  0  0  0  0  0  0
  -10.0196   -2.0883    0.0000 C   0  0  0  0  0  0  0  0  0  0  0  0
  -11.1543   -2.4786    0.0000 C   0  0  0  0  0  0  0  0  0  0  0  0
   -9.7906   -0.9104    0.0000 C   0  0  0  0  0  0  0  0  0  0  0  0
   -6.8330   -3.9451    0.0000 N   0  0  0  0  0  0  0  0  0  0  0  0
   -7.8722   -4.5451    0.0000 C   0  0  0  0  0  0  0  0  0  0  0  0
   -5.9629   -5.1669    0.0000 C   0  0  0  0  0  0  0  0  0  0  0  0
   -6.8698   -5.9528    0.0000 O   0  0  0  0  0  0  0  0  0  0  0  0
   -4.8773   -6.2020    0.0000 C   0  0  0  0  0  0  0  0  0  0  0  0
   -5.6191   -7.1453    0.0000 C   0  0  0  0  0  0  0  0  0  0  0  0
   -3.6154   -7.0130    0.0000 N   0  0  0  0  0  0  0  0  0  0  0  0
   -2.2229   -7.5705    0.0000 C   0  0  0  0  0  0  0  0  0  0  0  0
   -2.5609   -8.7219    0.0000 O   0  0  0  0  0  0  0  0  0  0  0  0
   -0.7500   -7.8544    0.0000 C   0  0  0  0  0  0  0  0  0  0  0  0
   -0.8640   -9.0489    0.0000 C   0  0  0  0  0  0  0  0  0  0  0  0
    0.7500   -7.8544    0.0000 N   0  0  0  0  0  0  0  0  0  0  0  0
    2.2229   -7.5705    0.0000 C   0  0  0  0  0  0  0  0  0  0  0  0
    2.5610   -8.7219    0.0000 O   0  0  0  0  0  0  0  0  0  0  0  0
    3.6155   -7.0130    0.0000 C   0  0  0  0  0  0  0  0  0  0  0  0
    4.3061   -8.3589    0.0000 C   0  0  0  0  0  0  0  0  0  0  0  0
    3.4930   -9.6204    0.0000 C   0  0  0  0  0  0  0  0  0  0  0  0
    4.0408  -10.6881    0.0000 C   0  0  0  0  0  0  0  0  0  0  0  0
    2.2944   -9.5614    0.0000 C   0  0  0  0  0  0  0  0  0  0  0  0
    4.8773   -6.2020    0.0000 N   0  0  0  0  0  0  0  0  0  0  0  0
    5.6191   -7.1453    0.0000 C   0  0  0  0  0  0  0  0  0  0  0  0
    5.9629   -5.1669    0.0000 C   0  0  0  0  0  0  0  0  0  0  0  0
    6.8698   -5.9527    0.0000 O   0  0  0  0  0  0  0  0  0  0  0  0
    6.8330   -3.9450    0.0000 C   0  0  0  0  0  0  0  0  0  0  0  0
    7.4561   -2.5806    0.0000 N   0  0  0  0  0  0  0  0  0  0  0  0
    7.8098   -1.1229    0.0000 C   0  0  0  0  0  0  0  0  0  0  0  0
    8.9976   -1.2936    0.0000 O   0  0  0  0  0  0  0  0  0  0  0  0
    7.8812    0.3754    0.0000 C   0  0  0  0  0  0  0  0  0  0  0  0
    9.3923    0.4445    0.0000 C   0  0  0  0  0  0  0  0  0  0  0  0
   10.2021   -0.8191    0.0000 C   0  0  0  0  0  0  0  0  0  0  0  0
   11.4008   -0.7644    0.0000 C   0  0  0  0  0  0  0  0  0  0  0  0
    9.6505   -1.8848    0.0000 C   0  0  0  0  0  0  0  0  0  0  0  0
    7.6677    1.8602    0.0000 N   0  0  0  0  0  0  0  0  0  0  0  0
    8.8339    2.1431    0.0000 C   0  0  0  0  0  0  0  0  0  0  0  0
    7.1771    3.2777    0.0000 C   0  0  0  0  0  0  0  0  0  0  0  0
    8.2686    3.7762    0.0000 O   0  0  0  0  0  0  0  0  0  0  0  0
    6.4271    4.5767    0.0000 C   0  0  0  0  0  0  0  0  0  0  0  0
    5.4448    5.7103    0.0000 N   0  0  0  0  0  0  0  0  0  0  0  0
    6.2729    6.5788    0.0000 C   0  0  0  0  0  0  0  0  0  0  0  0
    4.2657    6.6376    0.0000 C   0  0  0  0  0  0  0  0  0  0  0  0
    4.9145    7.6471    0.0000 O   0  0  0  0  0  0  0  0  0  0  0  0
    8.1416   -4.7039    0.0000 C   0  0  0  0  0  0  0  0  0  0  0  0
    8.1401   -5.9039    0.0000 C   0  0  0  0  0  0  0  0  0  0  0  0
    9.1818   -4.1056    0.0000 C   0  0  0  0  0  0  0  0  0  0  0  0
  1  2  1  0
  3  2  1  0
  3  4  1  0
  4  5  1  0
  5  6  2  0
  7  5  1  0
  7  8  1  0
  8  9  1  0
  8 10  1  0
 10 11  1  0
 10 12  1  0
 12 13  1  0
 13 14  2  3
 14 15  1  0
  7 16  1  0
 16 17  1  0
 16 18  1  0
 18 19  2  0
 18 20  1  0
 20 21  1  0
 21 22  1  0
 21 23  1  0
 20 24  1  0
 24 25  1  0
 24 26  1  0
 26 27  2  0
 26 28  1  0
 28 29  1  0
 29 30  1  0
 30 31  1  0
 30 32  1  0
 28 33  1  0
 33 34  1  0
 33 35  1  0
 35 36  2  0
 35 37  1  0
 37 38  1  0
 38 39  1  0
 39 40  1  0
 39 41  1  0
 37 42  1  0
 42 43  1  0
 42 44  1  0
 44 45  2  0
 44 46  1  0
 46 47  1  0
 46 48  1  0
 48 49  1  0
 49 50  2  0
 49 51  1  0
 51 52  1  0
 51 53  1  0
 53 54  1  0
 54 55  2  0
 54 56  1  0
 56 57  1  0
 57 58  1  0
 58 59  1  0
 58 60  1  0
 56 61  1  0
 61 62  1  0
 61 63  1  0
 63 64  2  0
 63 65  1  0
 65 66  1  0
 66 67  1  0
 67 68  2  0
 67 69  1  0
 69 70  1  0
 70 71  1  0
 71 72  1  0
 71 73  1  0
 69 74  1  0
 74 75  1  0
 74 76  1  0
 76 77  2  0
 76 78  1  0
 78 79  1  0
 79 80  1  0
 79 81  1  0
 81  3  1  0
 81 82  2  0
 65 83  1  0
 83 84  1  0
 83 85  1  0
M  END
>  <Classification>  (606) 
1

>  <pchembl>  (606) 
5.47

>  <InChI_steorem>  (606) 
InChI=1S/C62H111N11O12/c1-25-27-28-40(15)52(75)51-56(79)65-43(26-2)58(81)67(18)33-48(74)68(19)44(29-34(3)4)55(78)66-49(38(11)12)61(84)69(20)45(30-35(5)6)54(77)63-41(16)53(76)64-42(17)57(80)70(21)46(31-36(7)8)59(82)71(22)47(32-37(9)10)60(83)72(23)50(39(13)14)62(85)73(51)24/h25,27,34-47,49-52,75H,26,28-33H2,1-24H3,(H,63,77)(H,64,76)(H,65,79)(H,66,78)

>  <source>  (606) 
ChEMBL25

>  <source_id>  (606) 
25

>  <optional_reference>  (606) 
10.1021/jm0109863

>  <optional_origin>  (606) 
None

>  <target>  (606) 
MDR1

$$$$

     RDKit          2D

 25 27  0  0  0  0  0  0  0  0999 V2000
    2.3383   -1.3500    0.0000 Cl  0  0  0  0  0  0  0  0  0  0  0  0
    1.2990   -0.7500    0.0000 C   0  0  0  0  0  0  0  0  0  0  0  0
    1.2990    0.7500    0.0000 C   0  0  0  0  0  0  0  0  0  0  0  0
    0.0000    1.5000    0.0000 C   0  0  0  0  0  0  0  0  0  0  0  0
   -1.2990    0.7500    0.0000 C   0  0  0  0  0  0  0  0  0  0  0  0
   -2.5973    1.5031    0.0000 C   0  0  0  0  0  0  0  0  0  0  0  0
   -2.5951    3.0039    0.0000 O   0  0  0  0  0  0  0  0  0  0  0  0
   -3.8933    3.7570    0.0000 C   0  0  0  0  0  0  0  0  0  0  0  0
   -3.8912    5.2578    0.0000 C   0  0  0  0  0  0  0  0  0  0  0  0
   -5.1894    6.0109    0.0000 N   0  0  0  0  0  0  0  0  0  0  0  0
   -5.3273    7.4917    0.0000 C   0  0  0  0  0  0  0  0  0  0  0  0
   -6.7945    7.8036    0.0000 C   0  0  0  0  0  0  0  0  0  0  0  0
   -7.5445    6.5046    0.0000 N   0  0  0  0  0  0  0  0  0  0  0  0
   -6.5408    5.3898    0.0000 C   0  0  0  0  0  0  0  0  0  0  0  0
   -5.1943    3.0089    0.0000 C   0  0  0  0  0  0  0  0  0  0  0  0
   -5.1950    1.5088    0.0000 C   0  0  0  0  0  0  0  0  0  0  0  0
   -6.4943    0.7593    0.0000 C   0  0  0  0  0  0  0  0  0  0  0  0
   -7.7931    1.5098    0.0000 C   0  0  0  0  0  0  0  0  0  0  0  0
   -8.8325    0.9102    0.0000 Cl  0  0  0  0  0  0  0  0  0  0  0  0
   -7.7925    3.0098    0.0000 C   0  0  0  0  0  0  0  0  0  0  0  0
   -6.4932    3.7593    0.0000 C   0  0  0  0  0  0  0  0  0  0  0  0
   -6.4928    4.9593    0.0000 Cl  0  0  0  0  0  0  0  0  0  0  0  0
   -1.2990   -0.7500    0.0000 C   0  0  0  0  0  0  0  0  0  0  0  0
   -2.3383   -1.3500    0.0000 Cl  0  0  0  0  0  0  0  0  0  0  0  0
    0.0000   -1.5000    0.0000 C   0  0  0  0  0  0  0  0  0  0  0  0
  1  2  1  0
  2  3  2  0
  3  4  1  0
  4  5  2  0
  5  6  1  0
  6  7  1  0
  7  8  1  0
  8  9  1  0
  9 10  1  0
 10 11  1  0
 11 12  2  0
 12 13  1  0
 13 14  2  0
 14 10  1  0
  8 15  1  0
 15 16  2  0
 16 17  1  0
 17 18  2  0
 18 19  1  0
 18 20  1  0
 20 21  2  0
 21 15  1  0
 21 22  1  0
  5 23  1  0
 23 24  1  0
 23 25  2  0
 25  2  1  0
M  END
>  <Classification>  (607) 
1

>  <pchembl>  (607) 
5.46

>  <InChI_steorem>  (607) 
InChI=1S/C18H14Cl4N2O/c19-13-2-1-12(16(21)7-13)10-25-18(9-24-6-5-23-11-24)15-4-3-14(20)8-17(15)22/h1-8,11,18H,9-10H2

>  <source>  (607) 
ChEMBL25

>  <source_id>  (607) 
25

>  <optional_reference>  (607) 
10.1021/jm021012t

>  <optional_origin>  (607) 
None

>  <target>  (607) 
MDR1

$$$$

     RDKit          2D

 40 44  0  0  0  0  0  0  0  0999 V2000
    3.1544   -7.4094    0.0000 C   0  0  0  0  0  0  0  0  0  0  0  0
    2.9122   -6.2341    0.0000 C   0  0  0  0  0  0  0  0  0  0  0  0
    1.7732   -5.8565    0.0000 C   0  0  0  0  0  0  0  0  0  0  0  0
    4.0312   -5.2378    0.0000 C   0  0  0  0  0  0  0  0  0  0  0  0
    3.8933   -3.7570    0.0000 C   0  0  0  0  0  0  0  0  0  0  0  0
    2.5951   -3.0039    0.0000 C   0  0  0  0  0  0  0  0  0  0  0  0
    1.5548   -3.6021    0.0000 O   0  0  0  0  0  0  0  0  0  0  0  0
    2.5973   -1.5031    0.0000 N   0  0  0  0  0  0  0  0  0  0  0  0
    1.2990   -0.7500    0.0000 C   0  0  0  0  0  0  0  0  0  0  0  0
    1.2990    0.7500    0.0000 C   0  0  0  0  0  0  0  0  0  0  0  0
    0.0000    1.5000    0.0000 C   0  0  0  0  0  0  0  0  0  0  0  0
   -1.2990    0.7500    0.0000 C   0  0  0  0  0  0  0  0  0  0  0  0
   -1.2990   -0.7500    0.0000 C   0  0  0  0  0  0  0  0  0  0  0  0
    0.0000   -1.5000    0.0000 C   0  0  0  0  0  0  0  0  0  0  0  0
    5.2447   -3.1359    0.0000 C   0  0  0  0  0  0  0  0  0  0  0  0
    5.5480   -1.6662    0.0000 C   0  0  0  0  0  0  0  0  0  0  0  0
    4.5130   -0.5877    0.0000 C   0  0  0  0  0  0  0  0  0  0  0  0
    4.9319    0.8526    0.0000 C   0  0  0  0  0  0  0  0  0  0  0  0
    6.3887    1.2101    0.0000 C   0  0  0  0  0  0  0  0  0  0  0  0
    7.4266    0.1272    0.0000 C   0  0  0  0  0  0  0  0  0  0  0  0
    7.0078   -1.3132    0.0000 C   0  0  0  0  0  0  0  0  0  0  0  0
    6.2484   -4.2507    0.0000 C   0  0  0  0  0  0  0  0  0  0  0  0
    7.7410   -4.0938    0.0000 C   0  0  0  0  0  0  0  0  0  0  0  0
    8.4493   -2.7772    0.0000 C   0  0  0  0  0  0  0  0  0  0  0  0
    9.9487   -2.7331    0.0000 C   0  0  0  0  0  0  0  0  0  0  0  0
   10.7365   -4.0096    0.0000 C   0  0  0  0  0  0  0  0  0  0  0  0
   11.9360   -3.9743    0.0000 F   0  0  0  0  0  0  0  0  0  0  0  0
   10.0250   -5.3301    0.0000 C   0  0  0  0  0  0  0  0  0  0  0  0
    8.5257   -5.3742    0.0000 C   0  0  0  0  0  0  0  0  0  0  0  0
    5.4984   -5.5497    0.0000 N   0  0  0  0  0  0  0  0  0  0  0  0
    6.1050   -6.9197    0.0000 C   0  0  0  0  0  0  0  0  0  0  0  0
    5.2210   -8.1326    0.0000 C   0  0  0  0  0  0  0  0  0  0  0  0
    5.8286   -9.5049    0.0000 C   0  0  0  0  0  0  0  0  0  0  0  0
    4.9470  -10.7185    0.0000 C   0  0  0  0  0  0  0  0  0  0  0  0
    5.5570  -12.0889    0.0000 C   0  0  0  0  0  0  0  0  0  0  0  0
    4.8516  -13.0596    0.0000 O   0  0  0  0  0  0  0  0  0  0  0  0
    7.0488  -12.2457    0.0000 C   0  0  0  0  0  0  0  0  0  0  0  0
    7.9305  -11.0322    0.0000 C   0  0  0  0  0  0  0  0  0  0  0  0
    9.1239  -11.1577    0.0000 O   0  0  0  0  0  0  0  0  0  0  0  0
    7.3205   -9.6619    0.0000 O   0  0  0  0  0  0  0  0  0  0  0  0
  1  2  1  0
  2  3  1  0
  2  4  1  0
  4  5  2  0
  5  6  1  0
  6  7  2  0
  6  8  1  0
  8  9  1  0
  9 10  2  0
 10 11  1  0
 11 12  2  0
 12 13  1  0
 13 14  2  0
 14  9  1  0
  5 15  1  0
 15 16  1  0
 16 17  2  0
 17 18  1  0
 18 19  2  0
 19 20  1  0
 20 21  2  0
 21 16  1  0
 15 22  2  0
 22 23  1  0
 23 24  2  0
 24 25  1  0
 25 26  2  0
 26 27  1  0
 26 28  1  0
 28 29  2  0
 29 23  1  0
 22 30  1  0
 30  4  1  0
 30 31  1  0
 31 32  1  0
 33 32  1  0
 33 34  1  0
 34 35  1  0
 35 36  1  0
 35 37  1  0
 37 38  1  0
 38 39  2  0
 38 40  1  0
 40 33  1  0
M  END
>  <Classification>  (608) 
0

>  <pchembl>  (608) 
4.85

>  <InChI_steorem>  (608) 
InChI=1S/C33H33FN2O4/c1-21(2)31-30(33(39)35-25-11-7-4-8-12-25)29(22-9-5-3-6-10-22)32(23-13-15-24(34)16-14-23)36(31)18-17-27-19-26(37)20-28(38)40-27/h3-16,21,26-27,37H,17-20H2,1-2H3,(H,35,39)

>  <source>  (608) 
ChEMBL25

>  <source_id>  (608) 
25

>  <optional_reference>  (608) 
10.1124/dmd.104.002477

>  <optional_origin>  (608) 
None

>  <target>  (608) 
MDR1

$$$$

     RDKit          2D

 26 28  0  0  0  0  0  0  0  0999 V2000
    2.3238   -0.1256    0.0000 O   0  0  0  0  0  0  0  0  0  0  0  0
    1.2990   -0.7500    0.0000 C   0  0  0  0  0  0  0  0  0  0  0  0
    1.2990    0.7500    0.0000 C   0  0  0  0  0  0  0  0  0  0  0  0
    0.0000    1.5000    0.0000 C   0  0  0  0  0  0  0  0  0  0  0  0
   -1.2990    0.7500    0.0000 N   0  0  0  0  0  0  0  0  0  0  0  0
   -2.6003    1.4977    0.0000 C   0  0  0  0  0  0  0  0  0  0  0  0
   -3.8990    0.7455    0.0000 C   0  0  0  0  0  0  0  0  0  0  0  0
   -5.2003    1.4932    0.0000 C   0  0  0  0  0  0  0  0  0  0  0  0
   -6.4990    0.7409    0.0000 C   0  0  0  0  0  0  0  0  0  0  0  0
   -6.4969   -0.4591    0.0000 O   0  0  0  0  0  0  0  0  0  0  0  0
   -7.8003    1.4887    0.0000 C   0  0  0  0  0  0  0  0  0  0  0  0
   -9.0994    0.7387    0.0000 C   0  0  0  0  0  0  0  0  0  0  0  0
  -10.3984    1.4886    0.0000 C   0  0  0  0  0  0  0  0  0  0  0  0
  -10.3985    2.9886    0.0000 C   0  0  0  0  0  0  0  0  0  0  0  0
  -11.4377    3.5886    0.0000 F   0  0  0  0  0  0  0  0  0  0  0  0
   -9.0995    3.7387    0.0000 C   0  0  0  0  0  0  0  0  0  0  0  0
   -7.8004    2.9887    0.0000 C   0  0  0  0  0  0  0  0  0  0  0  0
   -1.2990   -0.7500    0.0000 C   0  0  0  0  0  0  0  0  0  0  0  0
    0.0000   -1.5000    0.0000 C   0  0  0  0  0  0  0  0  0  0  0  0
    1.2643   -2.2302    0.0000 C   0  0  0  0  0  0  0  0  0  0  0  0
    2.5453   -3.0105    0.0000 C   0  0  0  0  0  0  0  0  0  0  0  0
    2.5101   -4.5101    0.0000 C   0  0  0  0  0  0  0  0  0  0  0  0
    1.1938   -5.2294    0.0000 C   0  0  0  0  0  0  0  0  0  0  0  0
    1.1656   -6.4291    0.0000 Cl  0  0  0  0  0  0  0  0  0  0  0  0
   -0.0872   -4.4491    0.0000 C   0  0  0  0  0  0  0  0  0  0  0  0
   -0.0520   -2.9495    0.0000 C   0  0  0  0  0  0  0  0  0  0  0  0
  1  2  1  0
  2  3  1  0
  3  4  1  0
  4  5  1  0
  5  6  1  0
  6  7  1  0
  7  8  1  0
  8  9  1  0
  9 10  2  0
  9 11  1  0
 11 12  2  0
 12 13  1  0
 13 14  2  0
 14 15  1  0
 14 16  1  0
 16 17  2  0
 17 11  1  0
  5 18  1  0
 18 19  1  0
 19  2  1  0
  2 20  1  0
 20 21  2  0
 21 22  1  0
 22 23  2  0
 23 24  1  0
 23 25  1  0
 25 26  2  0
 26 20  1  0
M  END
>  <Classification>  (609) 
1

>  <pchembl>  (609) 
5.28

>  <InChI_steorem>  (609) 
InChI=1S/C21H23ClFNO2/c22-18-7-5-17(6-8-18)21(26)11-14-24(15-12-21)13-1-2-20(25)16-3-9-19(23)10-4-16/h3-10,26H,1-2,11-15H2

>  <source>  (609) 
ChEMBL25

>  <source_id>  (609) 
25

>  <optional_reference>  (609) 
10.1021/jm020941h

>  <optional_origin>  (609) 
None

>  <target>  (609) 
MDR1

$$$$

     RDKit          2D

 25 28  0  0  0  0  0  0  0  0999 V2000
    2.3383   -1.3500    0.0000 Cl  0  0  0  0  0  0  0  0  0  0  0  0
    1.2990   -0.7500    0.0000 C   0  0  0  0  0  0  0  0  0  0  0  0
    1.2990    0.7500    0.0000 C   0  0  0  0  0  0  0  0  0  0  0  0
    0.0000    1.5000    0.0000 C   0  0  0  0  0  0  0  0  0  0  0  0
   -1.2990    0.7500    0.0000 C   0  0  0  0  0  0  0  0  0  0  0  0
   -1.2990   -0.7500    0.0000 C   0  0  0  0  0  0  0  0  0  0  0  0
    0.0000   -1.5000    0.0000 C   0  0  0  0  0  0  0  0  0  0  0  0
    0.0000   -3.0008    0.0000 C   0  0  0  0  0  0  0  0  0  0  0  0
    1.2999   -3.7508    0.0000 C   0  0  0  0  0  0  0  0  0  0  0  0
    1.3004   -5.2508    0.0000 C   0  0  0  0  0  0  0  0  0  0  0  0
    2.5997   -6.0004    0.0000 C   0  0  0  0  0  0  0  0  0  0  0  0
    3.8985   -5.2500    0.0000 C   0  0  0  0  0  0  0  0  0  0  0  0
    3.8980   -3.7500    0.0000 C   0  0  0  0  0  0  0  0  0  0  0  0
    2.5987   -3.0004    0.0000 C   0  0  0  0  0  0  0  0  0  0  0  0
   -1.2999   -2.2509    0.0000 C   0  0  0  0  0  0  0  0  0  0  0  0
   -2.5987   -3.0013    0.0000 C   0  0  0  0  0  0  0  0  0  0  0  0
   -3.8980   -2.2517    0.0000 C   0  0  0  0  0  0  0  0  0  0  0  0
   -3.8985   -0.7517    0.0000 C   0  0  0  0  0  0  0  0  0  0  0  0
   -2.5997   -0.0013    0.0000 C   0  0  0  0  0  0  0  0  0  0  0  0
   -1.3004   -0.7509    0.0000 C   0  0  0  0  0  0  0  0  0  0  0  0
   -1.2993   -3.7521    0.0000 N   0  0  0  0  0  0  0  0  0  0  0  0
   -1.4361   -5.2330    0.0000 C   0  0  0  0  0  0  0  0  0  0  0  0
   -2.9031   -5.5458    0.0000 C   0  0  0  0  0  0  0  0  0  0  0  0
   -3.6540   -4.2472    0.0000 N   0  0  0  0  0  0  0  0  0  0  0  0
   -2.6510   -3.1318    0.0000 C   0  0  0  0  0  0  0  0  0  0  0  0
  1  2  1  0
  2  3  2  0
  3  4  1  0
  4  5  2  0
  5  6  1  0
  6  7  2  0
  7  2  1  0
  7  8  1  0
  8  9  1  0
  9 10  2  0
 10 11  1  0
 11 12  2  0
 12 13  1  0
 13 14  2  0
 14  9  1  0
  8 15  1  0
 15 16  2  0
 16 17  1  0
 17 18  2  0
 18 19  1  0
 19 20  2  0
 20 15  1  0
  8 21  1  0
 21 22  1  0
 22 23  2  0
 23 24  1  0
 24 25  2  0
 25 21  1  0
M  END
>  <Classification>  (610) 
1

>  <pchembl>  (610) 
5.17

>  <InChI_steorem>  (610) 
InChI=1S/C22H17ClN2/c23-21-14-8-7-13-20(21)22(25-16-15-24-17-25,18-9-3-1-4-10-18)19-11-5-2-6-12-19/h1-17H

>  <source>  (610) 
ChEMBL25

>  <source_id>  (610) 
25

>  <optional_reference>  (610) 
10.1021/jm021012t

>  <optional_origin>  (610) 
None

>  <target>  (610) 
MDR1

$$$$

     RDKit          2D

 29 31  0  0  0  0  0  0  0  0999 V2000
    7.5395   -1.3388    0.0000 C   0  0  0  0  0  0  0  0  0  0  0  0
    6.4990   -0.7409    0.0000 C   0  0  0  0  0  0  0  0  0  0  0  0
    5.2003   -1.4932    0.0000 C   0  0  0  0  0  0  0  0  0  0  0  0
    5.2024   -2.6932    0.0000 C   0  0  0  0  0  0  0  0  0  0  0  0
    3.8990   -0.7455    0.0000 C   0  0  0  0  0  0  0  0  0  0  0  0
    3.8969    0.4545    0.0000 O   0  0  0  0  0  0  0  0  0  0  0  0
    2.6003   -1.4977    0.0000 O   0  0  0  0  0  0  0  0  0  0  0  0
    1.2990   -0.7500    0.0000 C   0  0  0  0  0  0  0  0  0  0  0  0
    1.2990    0.7500    0.0000 C   0  0  0  0  0  0  0  0  0  0  0  0
    0.0000    1.5000    0.0000 C   0  0  0  0  0  0  0  0  0  0  0  0
    0.0000    2.7000    0.0000 C   0  0  0  0  0  0  0  0  0  0  0  0
   -1.2990    0.7500    0.0000 C   0  0  0  0  0  0  0  0  0  0  0  0
   -1.2990   -0.7500    0.0000 C   0  0  0  0  0  0  0  0  0  0  0  0
   -2.5981   -1.5000    0.0000 C   0  0  0  0  0  0  0  0  0  0  0  0
   -2.5981   -3.0000    0.0000 C   0  0  0  0  0  0  0  0  0  0  0  0
   -1.2990   -3.7500    0.0000 C   0  0  0  0  0  0  0  0  0  0  0  0
   -1.2990   -4.9500    0.0000 C   0  0  0  0  0  0  0  0  0  0  0  0
    0.0000   -3.0000    0.0000 C   0  0  0  0  0  0  0  0  0  0  0  0
    1.2982   -3.7531    0.0000 C   0  0  0  0  0  0  0  0  0  0  0  0
    1.2961   -5.2539    0.0000 C   0  0  0  0  0  0  0  0  0  0  0  0
    2.5943   -6.0070    0.0000 C   0  0  0  0  0  0  0  0  0  0  0  0
    2.5944   -7.5070    0.0000 C   0  0  0  0  0  0  0  0  0  0  0  0
    3.8934   -8.2570    0.0000 C   0  0  0  0  0  0  0  0  0  0  0  0
    3.8934   -9.4570    0.0000 O   0  0  0  0  0  0  0  0  0  0  0  0
    5.1924   -7.5071    0.0000 C   0  0  0  0  0  0  0  0  0  0  0  0
    5.1925   -6.0071    0.0000 C   0  0  0  0  0  0  0  0  0  0  0  0
    6.2317   -5.4071    0.0000 O   0  0  0  0  0  0  0  0  0  0  0  0
    3.8935   -5.2570    0.0000 O   0  0  0  0  0  0  0  0  0  0  0  0
    0.0000   -1.5000    0.0000 C   0  0  0  0  0  0  0  0  0  0  0  0
  1  2  1  0
  2  3  1  0
  3  4  1  0
  3  5  1  0
  5  6  2  0
  5  7  1  0
  8  7  1  0
  8  9  1  0
  9 10  1  0
 10 11  1  0
 10 12  1  0
 12 13  2  0
 13 14  1  0
 14 15  2  0
 15 16  1  0
 16 17  1  0
 16 18  1  0
 18 19  1  0
 19 20  1  0
 21 20  1  0
 21 22  1  0
 22 23  1  0
 23 24  1  0
 23 25  1  0
 25 26  1  0
 26 27  2  0
 26 28  1  0
 28 21  1  0
 18 29  1  0
 29  8  1  0
 29 13  1  0
M  END
>  <Classification>  (611) 
0

>  <pchembl>  (611) 
4.17

>  <InChI_steorem>  (611) 
InChI=1S/C24H36O5/c1-5-15(3)24(27)29-21-11-14(2)10-17-7-6-16(4)20(23(17)21)9-8-19-12-18(25)13-22(26)28-19/h6-7,10,14-16,18-21,23,25H,5,8-9,11-13H2,1-4H3

>  <source>  (611) 
ChEMBL25

>  <source_id>  (611) 
25

>  <optional_reference>  (611) 
10.1023/a:1011036428972

>  <optional_origin>  (611) 
None

>  <target>  (611) 
MDR1

$$$$

     RDKit          2D

 27 28  0  0  0  0  0  0  0  0999 V2000
    3.6387   -0.8963    0.0000 C   0  0  0  0  0  0  0  0  0  0  0  0
    2.6003   -1.4977    0.0000 O   0  0  0  0  0  0  0  0  0  0  0  0
    1.2990   -0.7500    0.0000 C   0  0  0  0  0  0  0  0  0  0  0  0
    1.2990    0.7500    0.0000 C   0  0  0  0  0  0  0  0  0  0  0  0
    0.0000    1.5000    0.0000 C   0  0  0  0  0  0  0  0  0  0  0  0
   -0.0031    3.0008    0.0000 C   0  0  0  0  0  0  0  0  0  0  0  0
   -1.3039    3.7494    0.0000 C   0  0  0  0  0  0  0  0  0  0  0  0
   -1.3070    5.2502    0.0000 C   0  0  0  0  0  0  0  0  0  0  0  0
   -2.6078    5.9988    0.0000 C   0  0  0  0  0  0  0  0  0  0  0  0
   -2.6109    7.4996    0.0000 C   0  0  0  0  0  0  0  0  0  0  0  0
   -1.5728    8.1014    0.0000 O   0  0  0  0  0  0  0  0  0  0  0  0
   -3.9118    8.2481    0.0000 C   0  0  0  0  0  0  0  0  0  0  0  0
   -3.9149    9.7490    0.0000 C   0  0  0  0  0  0  0  0  0  0  0  0
   -5.2157   10.4975    0.0000 C   0  0  0  0  0  0  0  0  0  0  0  0
   -5.2210   11.9975    0.0000 C   0  0  0  0  0  0  0  0  0  0  0  0
   -6.5226   12.7430    0.0000 C   0  0  0  0  0  0  0  0  0  0  0  0
   -7.8190   11.9885    0.0000 C   0  0  0  0  0  0  0  0  0  0  0  0
   -8.8603   12.5849    0.0000 O   0  0  0  0  0  0  0  0  0  0  0  0
   -7.8138   10.4885    0.0000 C   0  0  0  0  0  0  0  0  0  0  0  0
   -9.1094    9.7310    0.0000 O   0  0  0  0  0  0  0  0  0  0  0  0
   -9.1036    8.5310    0.0000 C   0  0  0  0  0  0  0  0  0  0  0  0
   -6.5122    9.7430    0.0000 C   0  0  0  0  0  0  0  0  0  0  0  0
   -0.2688    5.8520    0.0000 O   0  0  0  0  0  0  0  0  0  0  0  0
   -1.2990    0.7500    0.0000 C   0  0  0  0  0  0  0  0  0  0  0  0
   -1.2990   -0.7500    0.0000 C   0  0  0  0  0  0  0  0  0  0  0  0
    0.0000   -1.5000    0.0000 C   0  0  0  0  0  0  0  0  0  0  0  0
    0.0000   -2.7000    0.0000 O   0  0  0  0  0  0  0  0  0  0  0  0
  1  2  1  0
  2  3  1  0
  3  4  2  0
  4  5  1  0
  5  6  1  0
  6  7  2  3
  7  8  1  0
  8  9  2  3
  9 10  1  0
 10 11  2  0
 10 12  1  0
 12 13  2  3
 13 14  1  0
 14 15  2  0
 15 16  1  0
 16 17  2  0
 17 18  1  0
 17 19  1  0
 19 20  1  0
 20 21  1  0
 19 22  2  0
 22 14  1  0
  8 23  1  0
  5 24  2  0
 24 25  1  0
 25 26  2  0
 26  3  1  0
 26 27  1  0
M  END
>  <Classification>  (612) 
0

>  <pchembl>  (612) 
4.21

>  <InChI_steorem>  (612) 
InChI=1S/C21H20O6/c1-26-20-11-14(5-9-18(20)24)3-7-16(22)13-17(23)8-4-15-6-10-19(25)21(12-15)27-2/h3-13,22,24-25H,1-2H3

>  <source>  (612) 
ChEMBL25

>  <source_id>  (612) 
25

>  <optional_reference>  (612) 
10.1039/C4MD00196F

>  <optional_origin>  (612) 
None

>  <target>  (612) 
MDR1

$$$$

     RDKit          2D

 17 18  0  0  0  0  0  0  0  0999 V2000
    2.3383   -1.3500    0.0000 O   0  0  0  0  0  0  0  0  0  0  0  0
    1.2990   -0.7500    0.0000 C   0  0  0  0  0  0  0  0  0  0  0  0
    1.2990    0.7500    0.0000 C   0  0  0  0  0  0  0  0  0  0  0  0
    0.0000    1.5000    0.0000 C   0  0  0  0  0  0  0  0  0  0  0  0
   -1.2990    0.7500    0.0000 C   0  0  0  0  0  0  0  0  0  0  0  0
   -2.6003    1.4977    0.0000 C   0  0  0  0  0  0  0  0  0  0  0  0
   -3.8990    0.7455    0.0000 C   0  0  0  0  0  0  0  0  0  0  0  0
   -5.2003    1.4932    0.0000 C   0  0  0  0  0  0  0  0  0  0  0  0
   -6.4994    0.7432    0.0000 C   0  0  0  0  0  0  0  0  0  0  0  0
   -7.7985    1.4932    0.0000 C   0  0  0  0  0  0  0  0  0  0  0  0
   -8.8377    0.8932    0.0000 O   0  0  0  0  0  0  0  0  0  0  0  0
   -7.7985    2.9932    0.0000 C   0  0  0  0  0  0  0  0  0  0  0  0
   -6.4995    3.7432    0.0000 C   0  0  0  0  0  0  0  0  0  0  0  0
   -6.4995    4.9432    0.0000 O   0  0  0  0  0  0  0  0  0  0  0  0
   -5.2004    2.9933    0.0000 C   0  0  0  0  0  0  0  0  0  0  0  0
   -1.2990   -0.7500    0.0000 C   0  0  0  0  0  0  0  0  0  0  0  0
    0.0000   -1.5000    0.0000 C   0  0  0  0  0  0  0  0  0  0  0  0
  1  2  1  0
  2  3  2  0
  3  4  1  0
  4  5  2  0
  5  6  1  0
  6  7  2  3
  7  8  1  0
  8  9  2  0
  9 10  1  0
 10 11  1  0
 10 12  2  0
 12 13  1  0
 13 14  1  0
 13 15  2  0
 15  8  1  0
  5 16  1  0
 16 17  2  0
 17  2  1  0
M  END
>  <Classification>  (613) 
0

>  <pchembl>  (613) 
4.22

>  <InChI_steorem>  (613) 
InChI=1S/C14H12O3/c15-12-5-3-10(4-6-12)1-2-11-7-13(16)9-14(17)8-11/h1-9,15-17H

>  <source>  (613) 
ChEMBL25

>  <source_id>  (613) 
25

>  <optional_reference>  (613) 
10.1021/jm060253o

>  <optional_origin>  (613) 
None

>  <target>  (613) 
MDR1

$$$$

     RDKit          2D

 36 40  0  0  0  0  0  0  0  0999 V2000
    3.6375   -0.9049    0.0000 C   0  0  0  0  0  0  0  0  0  0  0  0
    2.5973   -1.5031    0.0000 C   0  0  0  0  0  0  0  0  0  0  0  0
    2.5956   -2.7031    0.0000 O   0  0  0  0  0  0  0  0  0  0  0  0
    1.2990   -0.7500    0.0000 N   0  0  0  0  0  0  0  0  0  0  0  0
    1.2990    0.7500    0.0000 C   0  0  0  0  0  0  0  0  0  0  0  0
    0.0000    1.5000    0.0000 C   0  0  0  0  0  0  0  0  0  0  0  0
   -1.2990    0.7500    0.0000 N   0  0  0  0  0  0  0  0  0  0  0  0
   -1.2990   -0.7500    0.0000 C   0  0  0  0  0  0  0  0  0  0  0  0
    0.0000   -1.5000    0.0000 C   0  0  0  0  0  0  0  0  0  0  0  0
   -2.5987    1.5004    0.0000 C   0  0  0  0  0  0  0  0  0  0  0  0
   -2.6012    3.0004    0.0000 C   0  0  0  0  0  0  0  0  0  0  0  0
   -3.9015    3.7484    0.0000 C   0  0  0  0  0  0  0  0  0  0  0  0
   -5.1993    2.9963    0.0000 C   0  0  0  0  0  0  0  0  0  0  0  0
   -6.5018    3.7420    0.0000 O   0  0  0  0  0  0  0  0  0  0  0  0
   -7.7993    2.9876    0.0000 C   0  0  0  0  0  0  0  0  0  0  0  0
   -9.1017    3.7333    0.0000 C   0  0  0  0  0  0  0  0  0  0  0  0
  -10.4521    3.1101    0.0000 C   0  0  0  0  0  0  0  0  0  0  0  0
  -11.4576    4.2232    0.0000 O   0  0  0  0  0  0  0  0  0  0  0  0
  -10.7097    5.5235    0.0000 C   0  0  0  0  0  0  0  0  0  0  0  0
  -12.1915    5.6529    0.0000 C   0  0  0  0  0  0  0  0  0  0  0  0
  -13.0723    4.4376    0.0000 N   0  0  0  0  0  0  0  0  0  0  0  0
  -14.5587    4.4336    0.0000 C   0  0  0  0  0  0  0  0  0  0  0  0
  -15.0012    3.0003    0.0000 C   0  0  0  0  0  0  0  0  0  0  0  0
  -13.7748    2.1366    0.0000 N   0  0  0  0  0  0  0  0  0  0  0  0
  -12.5744    3.0360    0.0000 C   0  0  0  0  0  0  0  0  0  0  0  0
   -9.2420    5.2139    0.0000 O   0  0  0  0  0  0  0  0  0  0  0  0
   -9.8181    6.7146    0.0000 C   0  0  0  0  0  0  0  0  0  0  0  0
   -8.3287    6.5365    0.0000 C   0  0  0  0  0  0  0  0  0  0  0  0
   -7.4298    7.7374    0.0000 C   0  0  0  0  0  0  0  0  0  0  0  0
   -8.0203    9.1162    0.0000 C   0  0  0  0  0  0  0  0  0  0  0  0
   -7.3012   10.0769    0.0000 Cl  0  0  0  0  0  0  0  0  0  0  0  0
   -9.5097    9.2943    0.0000 C   0  0  0  0  0  0  0  0  0  0  0  0
  -10.4086    8.0934    0.0000 C   0  0  0  0  0  0  0  0  0  0  0  0
  -11.6001    8.2359    0.0000 Cl  0  0  0  0  0  0  0  0  0  0  0  0
   -5.1969    1.4963    0.0000 C   0  0  0  0  0  0  0  0  0  0  0  0
   -3.8967    0.7484    0.0000 C   0  0  0  0  0  0  0  0  0  0  0  0
  1  2  1  0
  2  3  2  0
  2  4  1  0
  4  5  1  0
  5  6  1  0
  6  7  1  0
  7  8  1  0
  8  9  1  0
  9  4  1  0
  7 10  1  0
 10 11  2  0
 11 12  1  0
 12 13  2  0
 13 14  1  0
 14 15  1  0
 15 16  1  0
 16 17  1  0
 17 18  1  0
 18 19  1  0
 19 20  1  0
 20 21  1  0
 21 22  1  0
 22 23  2  0
 23 24  1  0
 24 25  2  0
 25 21  1  0
 19 26  1  0
 26 16  1  0
 19 27  1  0
 27 28  2  0
 28 29  1  0
 29 30  2  0
 30 31  1  0
 30 32  1  0
 32 33  2  0
 33 27  1  0
 33 34  1  0
 13 35  1  0
 35 36  2  0
 36 10  1  0
M  END
>  <Classification>  (614) 
0

>  <pchembl>  (614) 
4.89

>  <InChI_steorem>  (614) 
InChI=1S/C26H28Cl2N4O4/c1-19(33)31-10-12-32(13-11-31)21-3-5-22(6-4-21)34-15-23-16-35-26(36-23,17-30-9-8-29-18-30)24-7-2-20(27)14-25(24)28/h2-9,14,18,23H,10-13,15-17H2,1H3

>  <source>  (614) 
ChEMBL25

>  <source_id>  (614) 
25

>  <optional_reference>  (614) 
10.1021/jm020941h

>  <optional_origin>  (614) 
None

>  <target>  (614) 
MDR1

$$$$

     RDKit          2D

 33 36  0  0  0  0  0  0  0  0999 V2000
    1.0531   -8.6175    0.0000 C   0  0  0  0  0  0  0  0  0  0  0  0
    2.2459   -8.7488    0.0000 C   0  0  0  0  0  0  0  0  0  0  0  0
    3.1332   -7.5416    0.0000 C   0  0  0  0  0  0  0  0  0  0  0  0
    2.6747   -6.1134    0.0000 N   0  0  0  0  0  0  0  0  0  0  0  0
    3.8912   -5.2578    0.0000 N   0  0  0  0  0  0  0  0  0  0  0  0
    3.8933   -3.7570    0.0000 C   0  0  0  0  0  0  0  0  0  0  0  0
    2.5951   -3.0039    0.0000 C   0  0  0  0  0  0  0  0  0  0  0  0
    2.5973   -1.5031    0.0000 C   0  0  0  0  0  0  0  0  0  0  0  0
    1.2990   -0.7500    0.0000 N   0  0  0  0  0  0  0  0  0  0  0  0
    1.2990    0.7500    0.0000 C   0  0  0  0  0  0  0  0  0  0  0  0
    0.0000    1.5000    0.0000 C   0  0  0  0  0  0  0  0  0  0  0  0
   -1.2990    0.7500    0.0000 N   0  0  0  0  0  0  0  0  0  0  0  0
   -1.2990   -0.7500    0.0000 C   0  0  0  0  0  0  0  0  0  0  0  0
    0.0000   -1.5000    0.0000 C   0  0  0  0  0  0  0  0  0  0  0  0
   -2.5987    1.5004    0.0000 C   0  0  0  0  0  0  0  0  0  0  0  0
   -2.6012    3.0004    0.0000 C   0  0  0  0  0  0  0  0  0  0  0  0
   -3.9015    3.7484    0.0000 C   0  0  0  0  0  0  0  0  0  0  0  0
   -5.1993    2.9963    0.0000 C   0  0  0  0  0  0  0  0  0  0  0  0
   -5.1969    1.4963    0.0000 C   0  0  0  0  0  0  0  0  0  0  0  0
   -6.2352    0.8946    0.0000 Cl  0  0  0  0  0  0  0  0  0  0  0  0
   -3.8967    0.7484    0.0000 C   0  0  0  0  0  0  0  0  0  0  0  0
    5.1017   -6.1218    0.0000 C   0  0  0  0  0  0  0  0  0  0  0  0
    6.2421   -5.7482    0.0000 O   0  0  0  0  0  0  0  0  0  0  0  0
    4.6332   -7.5468    0.0000 N   0  0  0  0  0  0  0  0  0  0  0  0
    5.5071   -8.7638    0.0000 C   0  0  0  0  0  0  0  0  0  0  0  0
    4.8900  -10.1319    0.0000 C   0  0  0  0  0  0  0  0  0  0  0  0
    5.7654  -11.3509    0.0000 O   0  0  0  0  0  0  0  0  0  0  0  0
    5.1482  -12.7190    0.0000 C   0  0  0  0  0  0  0  0  0  0  0  0
    6.0214  -13.9387    0.0000 C   0  0  0  0  0  0  0  0  0  0  0  0
    5.4018  -15.3047    0.0000 C   0  0  0  0  0  0  0  0  0  0  0  0
    3.9089  -15.4511    0.0000 C   0  0  0  0  0  0  0  0  0  0  0  0
    3.0357  -14.2315    0.0000 C   0  0  0  0  0  0  0  0  0  0  0  0
    3.6553  -12.8655    0.0000 C   0  0  0  0  0  0  0  0  0  0  0  0
  1  2  1  0
  2  3  1  0
  3  4  2  0
  4  5  1  0
  5  6  1  0
  6  7  1  0
  7  8  1  0
  8  9  1  0
  9 10  1  0
 10 11  1  0
 11 12  1  0
 12 13  1  0
 13 14  1  0
 14  9  1  0
 12 15  1  0
 15 16  2  0
 16 17  1  0
 17 18  2  0
 18 19  1  0
 19 20  1  0
 19 21  2  0
 21 15  1  0
  5 22  1  0
 22 23  2  0
 22 24  1  0
 24  3  1  0
 24 25  1  0
 25 26  1  0
 26 27  1  0
 27 28  1  0
 28 29  2  0
 29 30  1  0
 30 31  2  0
 31 32  1  0
 32 33  2  0
 33 28  1  0
M  END
>  <Classification>  (615) 
1

>  <pchembl>  (615) 
5.33

>  <InChI_steorem>  (615) 
InChI=1S/C25H32ClN5O2/c1-2-24-27-31(25(32)30(24)18-19-33-23-10-4-3-5-11-23)13-7-12-28-14-16-29(17-15-28)22-9-6-8-21(26)20-22/h3-6,8-11,20H,2,7,12-19H2,1H3

>  <source>  (615) 
ChEMBL25

>  <source_id>  (615) 
25

>  <optional_reference>  (615) 
10.1177/00912700122010609

>  <optional_origin>  (615) 
None

>  <target>  (615) 
MDR1

$$$$

     RDKit          2D

 86 86  0  0  0  0  0  0  0  0999 V2000
    2.7490    9.6727    0.0000 C   0  0  0  0  0  0  0  0  0  0  0  0
    3.4920    8.7304    0.0000 C   0  0  0  0  0  0  0  0  0  0  0  0
    2.9324    7.3249    0.0000 C   0  0  0  0  0  0  0  0  0  0  0  0
    1.4932    7.7475    0.0000 N   0  0  0  0  0  0  0  0  0  0  0  0
    0.0000    7.8901    0.0000 C   0  0  0  0  0  0  0  0  0  0  0  0
    0.0000    9.0901    0.0000 O   0  0  0  0  0  0  0  0  0  0  0  0
   -1.4932    7.7475    0.0000 C   0  0  0  0  0  0  0  0  0  0  0  0
   -1.7824    9.2323    0.0000 C   0  0  0  0  0  0  0  0  0  0  0  0
   -0.8768   10.0197    0.0000 O   0  0  0  0  0  0  0  0  0  0  0  0
   -3.2013    9.7213    0.0000 C   0  0  0  0  0  0  0  0  0  0  0  0
   -4.1070    8.9340    0.0000 C   0  0  0  0  0  0  0  0  0  0  0  0
   -3.4882   11.1945    0.0000 C   0  0  0  0  0  0  0  0  0  0  0  0
   -4.9072   11.6835    0.0000 C   0  0  0  0  0  0  0  0  0  0  0  0
   -5.1941   13.1566    0.0000 C   0  0  0  0  0  0  0  0  0  0  0  0
   -6.3286   13.5476    0.0000 C   0  0  0  0  0  0  0  0  0  0  0  0
   -2.9325    7.3249    0.0000 N   0  0  0  0  0  0  0  0  0  0  0  0
   -3.3785    8.4389    0.0000 C   0  0  0  0  0  0  0  0  0  0  0  0
   -4.2657    6.6375    0.0000 C   0  0  0  0  0  0  0  0  0  0  0  0
   -4.9145    7.6470    0.0000 O   0  0  0  0  0  0  0  0  0  0  0  0
   -5.4448    5.7103    0.0000 C   0  0  0  0  0  0  0  0  0  0  0  0
   -6.4908    6.8031    0.0000 C   0  0  0  0  0  0  0  0  0  0  0  0
   -7.6566    6.5187    0.0000 C   0  0  0  0  0  0  0  0  0  0  0  0
   -6.1546    7.9550    0.0000 C   0  0  0  0  0  0  0  0  0  0  0  0
   -6.4271    4.5767    0.0000 N   0  0  0  0  0  0  0  0  0  0  0  0
   -7.4046    5.2727    0.0000 C   0  0  0  0  0  0  0  0  0  0  0  0
   -7.1771    3.2776    0.0000 C   0  0  0  0  0  0  0  0  0  0  0  0
   -8.2687    3.7761    0.0000 O   0  0  0  0  0  0  0  0  0  0  0  0
   -7.6677    1.8601    0.0000 C   0  0  0  0  0  0  0  0  0  0  0  0
   -9.1385    2.2139    0.0000 C   0  0  0  0  0  0  0  0  0  0  0  0
  -10.1727    1.1264    0.0000 C   0  0  0  0  0  0  0  0  0  0  0  0
  -11.3395    1.4070    0.0000 C   0  0  0  0  0  0  0  0  0  0  0  0
   -9.8328   -0.0245    0.0000 C   0  0  0  0  0  0  0  0  0  0  0  0
   -7.8812    0.3754    0.0000 N   0  0  0  0  0  0  0  0  0  0  0  0
   -9.0798    0.4325    0.0000 C   0  0  0  0  0  0  0  0  0  0  0  0
   -7.8098   -1.1229    0.0000 C   0  0  0  0  0  0  0  0  0  0  0  0
   -8.9976   -1.2937    0.0000 O   0  0  0  0  0  0  0  0  0  0  0  0
   -7.4561   -2.5806    0.0000 C   0  0  0  0  0  0  0  0  0  0  0  0
   -8.8847   -3.0782    0.0000 C   0  0  0  0  0  0  0  0  0  0  0  0
   -9.1668   -4.5522    0.0000 C   0  0  0  0  0  0  0  0  0  0  0  0
  -10.3000   -4.9469    0.0000 C   0  0  0  0  0  0  0  0  0  0  0  0
   -8.2586   -5.3366    0.0000 C   0  0  0  0  0  0  0  0  0  0  0  0
   -6.8330   -3.9451    0.0000 N   0  0  0  0  0  0  0  0  0  0  0  0
   -7.8722   -4.5451    0.0000 C   0  0  0  0  0  0  0  0  0  0  0  0
   -5.9629   -5.1669    0.0000 C   0  0  0  0  0  0  0  0  0  0  0  0
   -6.8698   -5.9528    0.0000 O   0  0  0  0  0  0  0  0  0  0  0  0
   -4.8773   -6.2020    0.0000 C   0  0  0  0  0  0  0  0  0  0  0  0
   -5.6191   -7.1453    0.0000 C   0  0  0  0  0  0  0  0  0  0  0  0
   -3.6154   -7.0130    0.0000 N   0  0  0  0  0  0  0  0  0  0  0  0
   -2.2229   -7.5705    0.0000 C   0  0  0  0  0  0  0  0  0  0  0  0
   -2.5609   -8.7219    0.0000 O   0  0  0  0  0  0  0  0  0  0  0  0
   -0.7500   -7.8544    0.0000 C   0  0  0  0  0  0  0  0  0  0  0  0
   -0.8640   -9.0489    0.0000 C   0  0  0  0  0  0  0  0  0  0  0  0
    0.7500   -7.8544    0.0000 N   0  0  0  0  0  0  0  0  0  0  0  0
    2.2229   -7.5705    0.0000 C   0  0  0  0  0  0  0  0  0  0  0  0
    2.5610   -8.7219    0.0000 O   0  0  0  0  0  0  0  0  0  0  0  0
    3.6155   -7.0130    0.0000 C   0  0  0  0  0  0  0  0  0  0  0  0
    4.3112   -8.3562    0.0000 C   0  0  0  0  0  0  0  0  0  0  0  0
    5.8105   -8.4257    0.0000 C   0  0  0  0  0  0  0  0  0  0  0  0
    6.3624   -9.4912    0.0000 C   0  0  0  0  0  0  0  0  0  0  0  0
    6.4576   -7.4151    0.0000 C   0  0  0  0  0  0  0  0  0  0  0  0
    4.8773   -6.2020    0.0000 N   0  0  0  0  0  0  0  0  0  0  0  0
    5.6191   -7.1453    0.0000 C   0  0  0  0  0  0  0  0  0  0  0  0
    5.9629   -5.1669    0.0000 C   0  0  0  0  0  0  0  0  0  0  0  0
    6.8698   -5.9527    0.0000 O   0  0  0  0  0  0  0  0  0  0  0  0
    6.8330   -3.9450    0.0000 C   0  0  0  0  0  0  0  0  0  0  0  0
    7.4561   -2.5806    0.0000 N   0  0  0  0  0  0  0  0  0  0  0  0
    7.8098   -1.1229    0.0000 C   0  0  0  0  0  0  0  0  0  0  0  0
    8.9976   -1.2936    0.0000 O   0  0  0  0  0  0  0  0  0  0  0  0
    7.8812    0.3754    0.0000 C   0  0  0  0  0  0  0  0  0  0  0  0
    9.3920    0.4503    0.0000 C   0  0  0  0  0  0  0  0  0  0  0  0
    9.9405    1.5177    0.0000 C   0  0  0  0  0  0  0  0  0  0  0  0
   10.0425   -0.5581    0.0000 C   0  0  0  0  0  0  0  0  0  0  0  0
    7.6677    1.8602    0.0000 N   0  0  0  0  0  0  0  0  0  0  0  0
    9.1371    2.2196    0.0000 C   0  0  0  0  0  0  0  0  0  0  0  0
    9.4737    3.3715    0.0000 C   0  0  0  0  0  0  0  0  0  0  0  0
    7.1771    3.2777    0.0000 C   0  0  0  0  0  0  0  0  0  0  0  0
    8.2686    3.7762    0.0000 O   0  0  0  0  0  0  0  0  0  0  0  0
    6.4271    4.5767    0.0000 C   0  0  0  0  0  0  0  0  0  0  0  0
    7.4046    5.2728    0.0000 C   0  0  0  0  0  0  0  0  0  0  0  0
    5.4448    5.7103    0.0000 N   0  0  0  0  0  0  0  0  0  0  0  0
    6.2729    6.5788    0.0000 C   0  0  0  0  0  0  0  0  0  0  0  0
    4.2657    6.6376    0.0000 C   0  0  0  0  0  0  0  0  0  0  0  0
    4.9145    7.6471    0.0000 O   0  0  0  0  0  0  0  0  0  0  0  0
    8.1446   -4.6989    0.0000 C   0  0  0  0  0  0  0  0  0  0  0  0
    9.1830   -4.0975    0.0000 C   0  0  0  0  0  0  0  0  0  0  0  0
    8.1465   -5.8989    0.0000 C   0  0  0  0  0  0  0  0  0  0  0  0
  1  2  1  0
  2  3  1  0
  3  4  1  0
  4  5  1  0
  5  6  2  0
  5  7  1  0
  7  8  1  0
  8  9  1  0
  8 10  1  0
 10 11  1  0
 10 12  1  0
 12 13  1  0
 13 14  2  3
 14 15  1  0
  7 16  1  0
 16 17  1  0
 16 18  1  0
 18 19  2  0
 18 20  1  0
 20 21  1  0
 21 22  1  0
 21 23  1  0
 20 24  1  0
 24 25  1  0
 24 26  1  0
 26 27  2  0
 26 28  1  0
 28 29  1  0
 29 30  1  0
 30 31  1  0
 30 32  1  0
 28 33  1  0
 33 34  1  0
 33 35  1  0
 35 36  2  0
 35 37  1  0
 37 38  1  0
 38 39  1  0
 39 40  1  0
 39 41  1  0
 37 42  1  0
 42 43  1  0
 42 44  1  0
 44 45  2  0
 44 46  1  0
 46 47  1  0
 46 48  1  0
 48 49  1  0
 49 50  2  0
 49 51  1  0
 51 52  1  0
 51 53  1  0
 53 54  1  0
 54 55  2  0
 54 56  1  0
 56 57  1  0
 57 58  1  0
 58 59  1  0
 58 60  1  0
 56 61  1  0
 61 62  1  0
 61 63  1  0
 63 64  2  0
 63 65  1  0
 65 66  1  0
 66 67  1  0
 67 68  2  0
 67 69  1  0
 69 70  1  0
 70 71  1  0
 70 72  1  0
 69 73  1  0
 73 74  1  0
 74 75  1  0
 73 76  1  0
 76 77  2  0
 76 78  1  0
 78 79  1  0
 78 80  1  0
 80 81  1  0
 80 82  1  0
 82  3  1  0
 82 83  2  0
 65 84  1  0
 84 85  1  0
 84 86  1  0
M  END
>  <Classification>  (616) 
1

>  <pchembl>  (616) 
6.14

>  <InChI_steorem>  (616) 
InChI=1S/C63H113N11O12/c1-26-29-30-40(16)52(75)51-56(79)66-44(27-2)59(82)68(20)43(19)58(81)74(28-3)49(38(12)13)55(78)67-48(37(10)11)62(85)69(21)45(31-34(4)5)54(77)64-41(17)53(76)65-42(18)57(80)70(22)46(32-35(6)7)60(83)71(23)47(33-36(8)9)61(84)72(24)50(39(14)15)63(86)73(51)25/h26,29,34-52,75H,27-28,30-33H2,1-25H3,(H,64,77)(H,65,76)(H,66,79)(H,67,78)

>  <source>  (616) 
ChEMBL25

>  <source_id>  (616) 
25

>  <optional_reference>  (616) 
None

>  <optional_origin>  (616) 
None

>  <target>  (616) 
MDR1

$$$$

     RDKit          2D

 28 31  0  0  0  0  0  0  0  0999 V2000
    3.6387   -0.8963    0.0000 C   0  0  0  0  0  0  0  0  0  0  0  0
    2.6003   -1.4977    0.0000 O   0  0  0  0  0  0  0  0  0  0  0  0
    1.2990   -0.7500    0.0000 C   0  0  0  0  0  0  0  0  0  0  0  0
    1.2990    0.7500    0.0000 C   0  0  0  0  0  0  0  0  0  0  0  0
    0.0000    1.5000    0.0000 C   0  0  0  0  0  0  0  0  0  0  0  0
   -0.3115    2.9665    0.0000 C   0  0  0  0  0  0  0  0  0  0  0  0
   -1.8032    3.1233    0.0000 C   0  0  0  0  0  0  0  0  0  0  0  0
   -2.5497    4.4223    0.0000 C   0  0  0  0  0  0  0  0  0  0  0  0
   -1.7974    5.7210    0.0000 C   0  0  0  0  0  0  0  0  0  0  0  0
   -2.5428    7.0227    0.0000 C   0  0  0  0  0  0  0  0  0  0  0  0
   -1.7883    8.3192    0.0000 C   0  0  0  0  0  0  0  0  0  0  0  0
   -0.2883    8.3139    0.0000 N   0  0  0  0  0  0  0  0  0  0  0  0
    0.4693    9.6095    0.0000 C   0  0  0  0  0  0  0  0  0  0  0  0
    1.9701    9.6022    0.0000 C   0  0  0  0  0  0  0  0  0  0  0  0
    2.7291   10.8960    0.0000 C   0  0  0  0  0  0  0  0  0  0  0  0
    4.2291   10.8856    0.0000 C   0  0  0  0  0  0  0  0  0  0  0  0
    4.9701    9.5814    0.0000 C   0  0  0  0  0  0  0  0  0  0  0  0
    4.2111    8.2876    0.0000 C   0  0  0  0  0  0  0  0  0  0  0  0
    2.7111    8.2980    0.0000 C   0  0  0  0  0  0  0  0  0  0  0  0
    0.4571    7.0123    0.0000 C   0  0  0  0  0  0  0  0  0  0  0  0
   -0.2974    5.7159    0.0000 C   0  0  0  0  0  0  0  0  0  0  0  0
   -2.4133    1.7530    0.0000 C   0  0  0  0  0  0  0  0  0  0  0  0
   -3.5871    1.5033    0.0000 O   0  0  0  0  0  0  0  0  0  0  0  0
   -1.2990    0.7500    0.0000 C   0  0  0  0  0  0  0  0  0  0  0  0
   -1.2990   -0.7500    0.0000 C   0  0  0  0  0  0  0  0  0  0  0  0
    0.0000   -1.5000    0.0000 C   0  0  0  0  0  0  0  0  0  0  0  0
   -0.0031   -3.0008    0.0000 O   0  0  0  0  0  0  0  0  0  0  0  0
   -1.0432   -3.5994    0.0000 C   0  0  0  0  0  0  0  0  0  0  0  0
  1  2  1  0
  2  3  1  0
  3  4  2  0
  4  5  1  0
  5  6  1  0
  6  7  1  0
  7  8  1  0
  8  9  1  0
  9 10  1  0
 10 11  1  0
 11 12  1  0
 12 13  1  0
 13 14  1  0
 14 15  2  0
 15 16  1  0
 16 17  2  0
 17 18  1  0
 18 19  2  0
 19 14  1  0
 12 20  1  0
 20 21  1  0
 21  9  1  0
  7 22  1  0
 22 23  2  0
 22 24  1  0
 24  5  2  0
 24 25  1  0
 25 26  2  0
 26  3  1  0
 26 27  1  0
 27 28  1  0
M  END
>  <Classification>  (617) 
0

>  <pchembl>  (617) 
4.46

>  <InChI_steorem>  (617) 
InChI=1S/C24H29NO3/c1-27-22-14-19-13-20(24(26)21(19)15-23(22)28-2)12-17-8-10-25(11-9-17)16-18-6-4-3-5-7-18/h3-7,14-15,17,20H,8-13,16H2,1-2H3

>  <source>  (617) 
ChEMBL25

>  <source_id>  (617) 
25

>  <optional_reference>  (617) 
10.1016/j.bmcl.2014.11.046

>  <optional_origin>  (617) 
None

>  <target>  (617) 
MDR1

$$$$

     RDKit          2D

 25 27  0  0  0  0  0  0  0  0999 V2000
    2.5956   -2.7031    0.0000 C   0  0  0  0  0  0  0  0  0  0  0  0
    2.5973   -1.5031    0.0000 O   0  0  0  0  0  0  0  0  0  0  0  0
    1.2990   -0.7500    0.0000 C   0  0  0  0  0  0  0  0  0  0  0  0
    1.2990    0.7500    0.0000 C   0  0  0  0  0  0  0  0  0  0  0  0
    0.0000    1.5000    0.0000 C   0  0  0  0  0  0  0  0  0  0  0  0
   -1.2990    0.7500    0.0000 C   0  0  0  0  0  0  0  0  0  0  0  0
   -1.2990   -0.7500    0.0000 C   0  0  0  0  0  0  0  0  0  0  0  0
    0.0000   -1.5000    0.0000 C   0  0  0  0  0  0  0  0  0  0  0  0
   -2.7248   -1.2135    0.0000 C   0  0  0  0  0  0  0  0  0  0  0  0
   -3.1904   -2.6376    0.0000 C   0  0  0  0  0  0  0  0  0  0  0  0
   -4.6588   -2.9478    0.0000 C   0  0  0  0  0  0  0  0  0  0  0  0
   -5.0318   -4.0884    0.0000 O   0  0  0  0  0  0  0  0  0  0  0  0
   -5.4604   -2.0548    0.0000 O   0  0  0  0  0  0  0  0  0  0  0  0
   -3.6065    0.0000    0.0000 C   0  0  0  0  0  0  0  0  0  0  0  0
   -4.8065    0.0000    0.0000 C   0  0  0  0  0  0  0  0  0  0  0  0
   -2.7248    1.2135    0.0000 N   0  0  0  0  0  0  0  0  0  0  0  0
   -3.1905    2.6376    0.0000 C   0  0  0  0  0  0  0  0  0  0  0  0
   -2.3889    3.5306    0.0000 O   0  0  0  0  0  0  0  0  0  0  0  0
   -4.6589    2.9478    0.0000 C   0  0  0  0  0  0  0  0  0  0  0  0
   -5.1272    4.3728    0.0000 C   0  0  0  0  0  0  0  0  0  0  0  0
   -6.5954    4.6799    0.0000 C   0  0  0  0  0  0  0  0  0  0  0  0
   -7.5954    3.5619    0.0000 C   0  0  0  0  0  0  0  0  0  0  0  0
   -8.7700    3.8075    0.0000 Cl  0  0  0  0  0  0  0  0  0  0  0  0
   -7.1272    2.1368    0.0000 C   0  0  0  0  0  0  0  0  0  0  0  0
   -5.6590    1.8298    0.0000 C   0  0  0  0  0  0  0  0  0  0  0  0
  1  2  1  0
  2  3  1  0
  3  4  2  0
  4  5  1  0
  5  6  2  0
  6  7  1  0
  7  8  2  0
  8  3  1  0
  7  9  1  0
  9 10  1  0
 10 11  1  0
 11 12  2  0
 11 13  1  0
  9 14  2  0
 14 15  1  0
 14 16  1  0
 16  6  1  0
 16 17  1  0
 17 18  2  0
 17 19  1  0
 19 20  2  0
 20 21  1  0
 21 22  2  0
 22 23  1  0
 22 24  1  0
 24 25  2  0
 25 19  1  0
M  END
>  <Classification>  (618) 
0

>  <pchembl>  (618) 
4.5

>  <InChI_steorem>  (618) 
InChI=1S/C19H16ClNO4/c1-11-15(10-18(22)23)16-9-14(25-2)7-8-17(16)21(11)19(24)12-3-5-13(20)6-4-12/h3-9H,10H2,1-2H3,(H,22,23)

>  <source>  (618) 
ChEMBL25

>  <source_id>  (618) 
25

>  <optional_reference>  (618) 
10.1021/jm301084z

>  <optional_origin>  (618) 
None

>  <target>  (618) 
MDR1

$$$$

     RDKit          2D

 37 41  0  0  0  0  0  0  0  0999 V2000
    2.3383   -1.3500    0.0000 C   0  0  0  0  0  0  0  0  0  0  0  0
    1.2990   -0.7500    0.0000 N   0  0  0  0  0  0  0  0  0  0  0  0
    1.2990    0.7500    0.0000 C   0  0  0  0  0  0  0  0  0  0  0  0
    0.0000    1.5000    0.0000 C   0  0  0  0  0  0  0  0  0  0  0  0
   -1.2990    0.7500    0.0000 N   0  0  0  0  0  0  0  0  0  0  0  0
   -2.6003    1.4977    0.0000 C   0  0  0  0  0  0  0  0  0  0  0  0
   -3.8990    0.7455    0.0000 C   0  0  0  0  0  0  0  0  0  0  0  0
   -5.2007    1.4909    0.0000 C   0  0  0  0  0  0  0  0  0  0  0  0
   -6.4972    0.7364    0.0000 C   0  0  0  0  0  0  0  0  0  0  0  0
   -6.4920   -0.7636    0.0000 C   0  0  0  0  0  0  0  0  0  0  0  0
   -5.1903   -1.5091    0.0000 C   0  0  0  0  0  0  0  0  0  0  0  0
   -3.8939   -0.7546    0.0000 C   0  0  0  0  0  0  0  0  0  0  0  0
   -7.7876   -1.5212    0.0000 C   0  0  0  0  0  0  0  0  0  0  0  0
   -8.8299   -0.9266    0.0000 O   0  0  0  0  0  0  0  0  0  0  0  0
   -7.7802   -3.0220    0.0000 N   0  0  0  0  0  0  0  0  0  0  0  0
   -9.0758   -3.7796    0.0000 C   0  0  0  0  0  0  0  0  0  0  0  0
   -9.0707   -5.2796    0.0000 C   0  0  0  0  0  0  0  0  0  0  0  0
  -10.3671   -6.0341    0.0000 C   0  0  0  0  0  0  0  0  0  0  0  0
  -11.6687   -5.2886    0.0000 C   0  0  0  0  0  0  0  0  0  0  0  0
  -12.7059   -5.8922    0.0000 C   0  0  0  0  0  0  0  0  0  0  0  0
  -11.6740   -3.7886    0.0000 C   0  0  0  0  0  0  0  0  0  0  0  0
  -12.9748   -3.0401    0.0000 N   0  0  0  0  0  0  0  0  0  0  0  0
  -12.9779   -1.5393    0.0000 C   0  0  0  0  0  0  0  0  0  0  0  0
  -14.2769   -0.7892    0.0000 N   0  0  0  0  0  0  0  0  0  0  0  0
  -14.2770    0.7108    0.0000 C   0  0  0  0  0  0  0  0  0  0  0  0
  -12.9780    1.4608    0.0000 C   0  0  0  0  0  0  0  0  0  0  0  0
  -11.6789    0.7109    0.0000 C   0  0  0  0  0  0  0  0  0  0  0  0
  -11.6789   -0.7891    0.0000 N   0  0  0  0  0  0  0  0  0  0  0  0
  -10.3792    1.4613    0.0000 C   0  0  0  0  0  0  0  0  0  0  0  0
  -10.3768    2.9613    0.0000 C   0  0  0  0  0  0  0  0  0  0  0  0
   -9.0766    3.7093    0.0000 C   0  0  0  0  0  0  0  0  0  0  0  0
   -7.7787    2.9573    0.0000 C   0  0  0  0  0  0  0  0  0  0  0  0
   -7.7811    1.4573    0.0000 N   0  0  0  0  0  0  0  0  0  0  0  0
   -9.0813    0.7093    0.0000 C   0  0  0  0  0  0  0  0  0  0  0  0
  -10.3776   -3.0341    0.0000 C   0  0  0  0  0  0  0  0  0  0  0  0
   -1.2990   -0.7500    0.0000 C   0  0  0  0  0  0  0  0  0  0  0  0
    0.0000   -1.5000    0.0000 C   0  0  0  0  0  0  0  0  0  0  0  0
  1  2  1  0
  2  3  1  0
  3  4  1  0
  4  5  1  0
  5  6  1  0
  6  7  1  0
  7  8  2  0
  8  9  1  0
  9 10  2  0
 10 11  1  0
 11 12  2  0
 12  7  1  0
 10 13  1  0
 13 14  2  0
 13 15  1  0
 15 16  1  0
 16 17  2  0
 17 18  1  0
 18 19  2  0
 19 20  1  0
 19 21  1  0
 21 22  1  0
 22 23  1  0
 23 24  2  0
 24 25  1  0
 25 26  2  0
 26 27  1  0
 27 28  2  0
 28 23  1  0
 27 29  1  0
 29 30  2  0
 30 31  1  0
 31 32  2  0
 32 33  1  0
 33 34  2  0
 34 29  1  0
 21 35  2  0
 35 16  1  0
  5 36  1  0
 36 37  1  0
 37  2  1  0
M  END
>  <Classification>  (619) 
1

>  <pchembl>  (619) 
5.14

>  <InChI_steorem>  (619) 
InChI=1S/C29H31N7O/c1-21-5-10-25(18-27(21)34-29-31-13-11-26(33-29)24-4-3-12-30-19-24)32-28(37)23-8-6-22(7-9-23)20-36-16-14-35(2)15-17-36/h3-13,18-19H,14-17,20H2,1-2H3,(H,32,37)(H,31,33,34)

>  <source>  (619) 
ChEMBL25

>  <source_id>  (619) 
25

>  <optional_reference>  (619) 
10.1016/j.bmc.2007.07.024

>  <optional_origin>  (619) 
None

>  <target>  (619) 
MDR1

$$$$

     RDKit          2D

 22 25  0  0  0  0  0  0  0  0999 V2000
    3.2207   -4.2951    0.0000 Cl  0  0  0  0  0  0  0  0  0  0  0  0
    2.7822   -3.1780    0.0000 C   0  0  0  0  0  0  0  0  0  0  0  0
    3.7175   -2.0053    0.0000 C   0  0  0  0  0  0  0  0  0  0  0  0
    3.1695   -0.6090    0.0000 C   0  0  0  0  0  0  0  0  0  0  0  0
    1.6852   -0.3846    0.0000 C   0  0  0  0  0  0  0  0  0  0  0  0
    1.3514    1.0778    0.0000 C   0  0  0  0  0  0  0  0  0  0  0  0
    2.5248    2.0135    0.0000 C   0  0  0  0  0  0  0  0  0  0  0  0
    3.8953    1.3943    0.0000 C   0  0  0  0  0  0  0  0  0  0  0  0
    5.1143    2.2683    0.0000 C   0  0  0  0  0  0  0  0  0  0  0  0
    4.9669    3.7610    0.0000 N   0  0  0  0  0  0  0  0  0  0  0  0
    3.6005    4.3797    0.0000 C   0  0  0  0  0  0  0  0  0  0  0  0
    2.3814    3.5057    0.0000 C   0  0  0  0  0  0  0  0  0  0  0  0
    0.0000    1.7286    0.0000 C   0  0  0  0  0  0  0  0  0  0  0  0
    0.1115    3.2255    0.0000 N   0  0  0  0  0  0  0  0  0  0  0  0
   -1.1278    4.0705    0.0000 C   0  0  0  0  0  0  0  0  0  0  0  0
   -2.4793    3.4196    0.0000 C   0  0  0  0  0  0  0  0  0  0  0  0
   -2.5914    1.9238    0.0000 C   0  0  0  0  0  0  0  0  0  0  0  0
   -1.3515    1.0777    0.0000 C   0  0  0  0  0  0  0  0  0  0  0  0
   -1.6852   -0.3847    0.0000 C   0  0  0  0  0  0  0  0  0  0  0  0
   -0.7500   -1.5574    0.0000 C   0  0  0  0  0  0  0  0  0  0  0  0
    0.7500   -1.5574    0.0000 C   0  0  0  0  0  0  0  0  0  0  0  0
    1.2990   -2.9545    0.0000 C   0  0  0  0  0  0  0  0  0  0  0  0
  1  2  1  0
  2  3  2  0
  3  4  1  0
  4  5  2  0
  5  6  1  0
  6  7  2  3
  7  8  1  0
  8  9  1  0
  9 10  1  0
 10 11  1  0
 11 12  1  0
 12  7  1  0
  6 13  1  0
 13 14  2  0
 14 15  1  0
 15 16  2  0
 16 17  1  0
 17 18  2  0
 18 13  1  0
 18 19  1  0
 19 20  1  0
 20 21  1  0
 21  5  1  0
 21 22  2  0
 22  2  1  0
M  END
>  <Classification>  (620) 
0

>  <pchembl>  (620) 
4.37

>  <InChI_steorem>  (620) 
InChI=1S/C19H19ClN2/c20-16-5-6-17-15(12-16)4-3-14-2-1-9-22-19(14)18(17)13-7-10-21-11-8-13/h1-2,5-6,9,12,21H,3-4,7-8,10-11H2

>  <source>  (620) 
ChEMBL25

>  <source_id>  (620) 
25

>  <optional_reference>  (620) 
None

>  <optional_origin>  (620) 
None

>  <target>  (620) 
MDR1

$$$$

     RDKit          2D

 27 30  0  0  0  0  0  0  0  0999 V2000
    9.9860   -4.2950    0.0000 C   0  0  0  0  0  0  0  0  0  0  0  0
    9.5757   -3.1673    0.0000 C   0  0  0  0  0  0  0  0  0  0  0  0
    8.0979   -2.9056    0.0000 O   0  0  0  0  0  0  0  0  0  0  0  0
    7.5847   -1.4952    0.0000 C   0  0  0  0  0  0  0  0  0  0  0  0
    8.3565   -0.5763    0.0000 O   0  0  0  0  0  0  0  0  0  0  0  0
    6.1069   -1.2335    0.0000 N   0  0  0  0  0  0  0  0  0  0  0  0
    5.5920    0.1754    0.0000 C   0  0  0  0  0  0  0  0  0  0  0  0
    4.1145    0.4339    0.0000 C   0  0  0  0  0  0  0  0  0  0  0  0
    3.1484   -0.7186    0.0000 C   0  0  0  0  0  0  0  0  0  0  0  0
    1.6852   -0.3846    0.0000 C   0  0  0  0  0  0  0  0  0  0  0  0
    1.3514    1.0778    0.0000 C   0  0  0  0  0  0  0  0  0  0  0  0
    2.5913    1.9239    0.0000 C   0  0  0  0  0  0  0  0  0  0  0  0
    2.4792    3.4197    0.0000 C   0  0  0  0  0  0  0  0  0  0  0  0
    1.1278    4.0705    0.0000 C   0  0  0  0  0  0  0  0  0  0  0  0
    1.0381    5.2671    0.0000 Cl  0  0  0  0  0  0  0  0  0  0  0  0
   -0.1116    3.2255    0.0000 C   0  0  0  0  0  0  0  0  0  0  0  0
    0.0000    1.7286    0.0000 C   0  0  0  0  0  0  0  0  0  0  0  0
   -1.3515    1.0777    0.0000 C   0  0  0  0  0  0  0  0  0  0  0  0
   -1.6852   -0.3847    0.0000 C   0  0  0  0  0  0  0  0  0  0  0  0
   -0.7500   -1.5574    0.0000 C   0  0  0  0  0  0  0  0  0  0  0  0
   -1.5000   -2.8577    0.0000 C   0  0  0  0  0  0  0  0  0  0  0  0
   -0.7500   -4.1567    0.0000 C   0  0  0  0  0  0  0  0  0  0  0  0
    0.7500   -4.1567    0.0000 C   0  0  0  0  0  0  0  0  0  0  0  0
    1.5000   -2.8577    0.0000 N   0  0  0  0  0  0  0  0  0  0  0  0
    0.7500   -1.5574    0.0000 C   0  0  0  0  0  0  0  0  0  0  0  0
    3.6667   -2.1252    0.0000 C   0  0  0  0  0  0  0  0  0  0  0  0
    5.1442   -2.3838    0.0000 C   0  0  0  0  0  0  0  0  0  0  0  0
  1  2  1  0
  2  3  1  0
  3  4  1  0
  4  5  2  0
  4  6  1  0
  6  7  1  0
  7  8  1  0
  8  9  1  0
  9 10  2  3
 10 11  1  0
 11 12  2  0
 12 13  1  0
 13 14  2  0
 14 15  1  0
 14 16  1  0
 16 17  2  0
 17 11  1  0
 17 18  1  0
 18 19  1  0
 19 20  1  0
 20 21  2  0
 21 22  1  0
 22 23  2  0
 23 24  1  0
 24 25  2  0
 25 10  1  0
 25 20  1  0
  9 26  1  0
 26 27  1  0
 27  6  1  0
M  END
>  <Classification>  (621) 
0

>  <pchembl>  (621) 
4.94

>  <InChI_steorem>  (621) 
InChI=1S/C22H23ClN2O2/c1-2-27-22(26)25-12-9-15(10-13-25)20-19-8-7-18(23)14-17(19)6-5-16-4-3-11-24-21(16)20/h3-4,7-8,11,14H,2,5-6,9-10,12-13H2,1H3

>  <source>  (621) 
ChEMBL25

>  <source_id>  (621) 
25

>  <optional_reference>  (621) 
None

>  <optional_origin>  (621) 
None

>  <target>  (621) 
MDR1

$$$$

     RDKit          2D

 23 26  0  0  0  0  0  0  0  0999 V2000
    1.7486   -0.5188    0.0000 C   0  0  0  0  0  0  0  0  0  0  0  0
    2.5607   -0.3736    0.0000 C   0  0  0  0  0  0  0  0  0  0  0  0
    2.8410    0.4023    0.0000 C   0  0  0  0  0  0  0  0  0  0  0  0
    3.6531    0.5475    0.0000 O   0  0  0  0  0  0  0  0  0  0  0  0
    2.3092    1.0330    0.0000 C   0  0  0  0  0  0  0  0  0  0  0  0
    1.4971    0.8878    0.0000 C   0  0  0  0  0  0  0  0  0  0  0  0
    0.9653    1.5185    0.0000 C   0  0  0  0  0  0  0  0  0  0  0  0
    0.1531    1.3733    0.0000 C   0  0  0  0  0  0  0  0  0  0  0  0
   -0.1272    0.5974    0.0000 C   0  0  0  0  0  0  0  0  0  0  0  0
    0.4047   -0.0334    0.0000 C   0  0  0  0  0  0  0  0  0  0  0  0
    1.2168    0.1119    0.0000 C   0  0  0  0  0  0  0  0  0  0  0  0
    0.1244   -0.8093    0.0000 C   0  0  0  0  0  0  0  0  0  0  0  0
   -0.6878   -0.9545    0.0000 C   0  0  0  0  0  0  0  0  0  0  0  0
   -1.2196   -0.3238    0.0000 C   0  0  0  0  0  0  0  0  0  0  0  0
   -0.9393    0.4521    0.0000 C   0  0  0  0  0  0  0  0  0  0  0  0
   -1.5906    0.9585    0.0000 C   0  0  0  0  0  0  0  0  0  0  0  0
   -2.2735    0.4955    0.0000 C   0  0  0  0  0  0  0  0  0  0  0  0
   -2.0441   -0.2970    0.0000 C   0  0  0  0  0  0  0  0  0  0  0  0
   -1.5795   -1.0662    0.0000 C   0  0  0  0  0  0  0  0  0  0  0  0
    0.9365   -0.6641    0.0000 C   0  0  0  0  0  0  0  0  0  0  0  0
   -2.5505   -0.9483    0.0000 C   0  0  0  0  0  0  0  0  0  0  0  0
   -2.2396   -1.7125    0.0000 O   0  0  0  0  0  0  0  0  0  0  0  0
   -3.3677   -0.8355    0.0000 C   0  0  0  0  0  0  0  0  0  0  0  0
  1  2  1  0
  1 11  1  0
  2  3  1  0
  3  4  2  0
  3  5  1  0
  5  6  2  0
  6  7  1  0
 11  6  1  0
  7  8  1  0
  9  8  1  0
  9 10  1  0
 15  9  1  0
 11 10  1  0
 10 12  1  0
 11 20  1  0
 12 13  1  0
 13 14  1  0
 14 15  1  0
 14 18  1  0
 14 19  1  0
 15 16  1  0
 16 17  1  0
 17 18  1  0
 18 21  1  0
 21 22  2  0
 21 23  1  0
M  END
>  <Classification>  (622) 
0

>  <pchembl>  (622) 
4.32

>  <InChI_steorem>  (622) 
InChI=1S/C21H30O2/c1-13(22)17-6-7-18-16-5-4-14-12-15(23)8-10-20(14,2)19(16)9-11-21(17,18)3/h12,16-19H,4-11H2,1-3H3

>  <source>  (622) 
ChEMBL25

>  <source_id>  (622) 
25

>  <optional_reference>  (622) 
10.1016/j.bmc.2007.07.024

>  <optional_origin>  (622) 
None

>  <target>  (622) 
MDR1

$$$$

     RDKit          2D

 29 30  0  0  0  0  0  0  0  0999 V2000
    6.1167   -6.2417    0.0000 N   0  0  0  0  0  0  0  0  0  0  0  0
    6.1042   -7.9667    0.0000 C   0  0  0  0  0  0  0  0  0  0  0  0
    2.0542   -6.5292    0.0000 C   0  0  0  0  0  0  0  0  0  0  0  0
    3.0417   -6.2792    0.0000 C   0  0  0  0  0  0  0  0  0  0  0  0
    5.1125   -6.2375    0.0000 C   0  0  0  0  0  0  0  0  0  0  0  0
    3.5792   -8.7667    0.0000 C   0  0  0  0  0  0  0  0  0  0  0  0
    3.0292   -7.8042    0.0000 O   0  0  0  0  0  0  0  0  0  0  0  0
    4.5042   -8.7792    0.0000 C   0  0  0  0  0  0  0  0  0  0  0  0
    4.9417   -7.9667    0.0000 C   0  0  0  0  0  0  0  0  0  0  0  0
    3.7542   -5.5542    0.0000 O   0  0  0  0  0  0  0  0  0  0  0  0
    2.0542   -7.5417    0.0000 C   0  0  0  0  0  0  0  0  0  0  0  0
    4.5792   -5.5542    0.0000 C   0  0  0  0  0  0  0  0  0  0  0  0
    6.6792   -8.5417    0.0000 C   0  0  0  0  0  0  0  0  0  0  0  0
    3.9167   -6.7792    0.0000 O   0  0  0  0  0  0  0  0  0  0  0  0
    4.5792   -6.8625    0.0000 O   0  0  0  0  0  0  0  0  0  0  0  0
    3.1542   -9.4792    0.0000 O   0  0  0  0  0  0  0  0  0  0  0  0
    4.2292   -7.5542    0.0000 O   0  0  0  0  0  0  0  0  0  0  0  0
    6.7667   -5.7292    0.0000 C   0  0  0  0  0  0  0  0  0  0  0  0
    3.4292   -7.7667    0.0000 C   0  0  0  0  0  0  0  0  0  0  0  0
    7.4792   -8.3292    0.0000 C   0  0  0  0  0  0  0  0  0  0  0  0
    1.2542   -5.9042    0.0000 C   0  0  0  0  0  0  0  0  0  0  0  0
    3.2042   -6.9667    0.0000 O   0  0  0  0  0  0  0  0  0  0  0  0
    1.1792   -8.0542    0.0000 C   0  0  0  0  0  0  0  0  0  0  0  0
    7.6917   -7.5417    0.0000 C   0  0  0  0  0  0  0  0  0  0  0  0
    8.0542   -8.9167    0.0000 C   0  0  0  0  0  0  0  0  0  0  0  0
    2.4042   -6.7417    0.0000 C   0  0  0  0  0  0  0  0  0  0  0  0
    8.4792   -7.3292    0.0000 C   0  0  0  0  0  0  0  0  0  0  0  0
    8.8542   -8.7042    0.0000 C   0  0  0  0  0  0  0  0  0  0  0  0
    9.0667   -7.9167    0.0000 C   0  0  0  0  0  0  0  0  0  0  0  0
  2  1  1  0
  3  4  1  0
  4 10  1  0
  5  1  1  0
  6  8  1  0
  7  6  1  0
  8  9  1  0
  9  2  1  0
 10 12  1  0
 11  3  1  0
 12  5  1  0
  2 13  1  0
 14  4  2  0
 15  5  2  0
 16  6  2  0
  9 17  1  0
 18  1  1  0
 19 17  1  0
 20 13  1  0
  3 21  1  0
 22 19  1  0
 11 23  1  0
 24 20  2  0
 25 20  1  0
 26 22  1  0
 27 24  1  0
 28 25  2  0
 29 28  1  0
 11  7  1  0
 29 27  2  0
M  END
>  <Classification>  (623) 
0

>  <pchembl>  (623) 
4.37

>  <InChI_steorem>  (623) 
InChI=1S/C21H29NO7/c1-14-15(2)29-20(24)11-18(28-13-26-4)17(10-16-8-6-5-7-9-16)22(3)19(23)12-27-21(14)25/h5-9,14-15,17-18H,10-13H2,1-4H3

>  <source>  (623) 
ChEMBL25

>  <source_id>  (623) 
25

>  <optional_reference>  (623) 
10.1016/s0960-894x(99)00243-7

>  <optional_origin>  (623) 
None

>  <target>  (623) 
MDR1

$$$$

     RDKit          2D

 29 30  0  0  0  0  0  0  0  0999 V2000
    6.1417   -6.5250    0.0000 N   0  0  0  0  0  0  0  0  0  0  0  0
    5.2667   -6.4875    0.0000 C   0  0  0  0  0  0  0  0  0  0  0  0
    3.7875   -5.8417    0.0000 O   0  0  0  0  0  0  0  0  0  0  0  0
    3.0750   -6.5625    0.0000 C   0  0  0  0  0  0  0  0  0  0  0  0
    4.6125   -5.8417    0.0000 C   0  0  0  0  0  0  0  0  0  0  0  0
    6.1292   -8.2500    0.0000 C   0  0  0  0  0  0  0  0  0  0  0  0
    2.0875   -6.8167    0.0000 C   0  0  0  0  0  0  0  0  0  0  0  0
    3.6125   -9.0542    0.0000 C   0  0  0  0  0  0  0  0  0  0  0  0
    3.0625   -8.0875    0.0000 O   0  0  0  0  0  0  0  0  0  0  0  0
    4.5375   -9.0625    0.0000 C   0  0  0  0  0  0  0  0  0  0  0  0
    4.9750   -8.2500    0.0000 C   0  0  0  0  0  0  0  0  0  0  0  0
    2.0875   -7.8292    0.0000 C   0  0  0  0  0  0  0  0  0  0  0  0
    4.6750   -7.0792    0.0000 O   0  0  0  0  0  0  0  0  0  0  0  0
    3.9417   -7.0625    0.0000 O   0  0  0  0  0  0  0  0  0  0  0  0
    6.7125   -8.8292    0.0000 C   0  0  0  0  0  0  0  0  0  0  0  0
    3.1875   -9.7625    0.0000 O   0  0  0  0  0  0  0  0  0  0  0  0
    4.8375   -5.0500    0.0000 C   0  0  0  0  0  0  0  0  0  0  0  0
    6.8000   -6.0167    0.0000 C   0  0  0  0  0  0  0  0  0  0  0  0
    4.2542   -7.8375    0.0000 O   0  0  0  0  0  0  0  0  0  0  0  0
    7.5125   -8.6167    0.0000 C   0  0  0  0  0  0  0  0  0  0  0  0
    1.2875   -6.1917    0.0000 C   0  0  0  0  0  0  0  0  0  0  0  0
    1.2125   -8.3375    0.0000 C   0  0  0  0  0  0  0  0  0  0  0  0
    5.6375   -4.8500    0.0000 C   0  0  0  0  0  0  0  0  0  0  0  0
    4.2667   -4.4417    0.0000 C   0  0  0  0  0  0  0  0  0  0  0  0
    7.7167   -7.8250    0.0000 C   0  0  0  0  0  0  0  0  0  0  0  0
    8.0875   -9.2042    0.0000 C   0  0  0  0  0  0  0  0  0  0  0  0
    8.8875   -8.9917    0.0000 C   0  0  0  0  0  0  0  0  0  0  0  0
    8.5125   -7.6125    0.0000 C   0  0  0  0  0  0  0  0  0  0  0  0
    9.1000   -8.2000    0.0000 C   0  0  0  0  0  0  0  0  0  0  0  0
  2  1  1  0
  3  5  1  0
  4  3  1  0
  5  2  1  0
  6  1  1  0
  7  4  1  0
  8 10  1  0
  9  8  1  0
 10 11  1  0
 11  6  1  0
 12  9  1  0
 13  2  2  0
 14  4  2  0
  6 15  1  0
 16  8  2  0
  5 17  1  0
 18  1  1  0
 11 19  1  0
 20 15  1  0
  7 21  1  0
 12 22  1  0
 23 17  1  0
 24 17  1  0
 25 20  2  0
 26 20  1  0
 27 26  2  0
 28 25  1  0
 29 27  1  0
 29 28  2  0
 12  7  1  0
M  END
>  <Classification>  (624) 
0

>  <pchembl>  (624) 
4.82

>  <InChI_steorem>  (624) 
InChI=1S/C22H31NO6/c1-13(2)20-21(26)23(5)17(11-16-9-7-6-8-10-16)18(24)12-19(25)28-15(4)14(3)22(27)29-20/h6-10,13-15,17-18,20,24H,11-12H2,1-5H3

>  <source>  (624) 
ChEMBL25

>  <source_id>  (624) 
25

>  <optional_reference>  (624) 
10.1016/s0960-894x(99)00243-7

>  <optional_origin>  (624) 
None

>  <target>  (624) 
MDR1

$$$$

     RDKit          2D

 29 30  0  0  0  0  0  0  0  0999 V2000
    7.4292   -6.2417    0.0000 N   0  0  0  0  0  0  0  0  0  0  0  0
    7.4167   -7.9667    0.0000 C   0  0  0  0  0  0  0  0  0  0  0  0
    3.3667   -6.5292    0.0000 C   0  0  0  0  0  0  0  0  0  0  0  0
    4.3542   -6.2792    0.0000 C   0  0  0  0  0  0  0  0  0  0  0  0
    6.3917   -6.1750    0.0000 C   0  0  0  0  0  0  0  0  0  0  0  0
    4.8917   -8.7667    0.0000 C   0  0  0  0  0  0  0  0  0  0  0  0
    4.3417   -7.8042    0.0000 O   0  0  0  0  0  0  0  0  0  0  0  0
    5.8167   -8.7792    0.0000 C   0  0  0  0  0  0  0  0  0  0  0  0
    6.2542   -7.9667    0.0000 C   0  0  0  0  0  0  0  0  0  0  0  0
    5.0667   -5.5542    0.0000 O   0  0  0  0  0  0  0  0  0  0  0  0
    3.3667   -7.5417    0.0000 C   0  0  0  0  0  0  0  0  0  0  0  0
    5.8917   -5.5542    0.0000 C   0  0  0  0  0  0  0  0  0  0  0  0
    7.9917   -8.5417    0.0000 C   0  0  0  0  0  0  0  0  0  0  0  0
    5.2292   -6.7792    0.0000 O   0  0  0  0  0  0  0  0  0  0  0  0
    6.0167   -6.6750    0.0000 O   0  0  0  0  0  0  0  0  0  0  0  0
    4.4667   -9.4792    0.0000 O   0  0  0  0  0  0  0  0  0  0  0  0
    5.5417   -7.5542    0.0000 O   0  0  0  0  0  0  0  0  0  0  0  0
    8.0792   -5.7292    0.0000 C   0  0  0  0  0  0  0  0  0  0  0  0
    8.7917   -8.3292    0.0000 C   0  0  0  0  0  0  0  0  0  0  0  0
    2.5667   -5.9042    0.0000 C   0  0  0  0  0  0  0  0  0  0  0  0
    2.4917   -8.0542    0.0000 C   0  0  0  0  0  0  0  0  0  0  0  0
    9.0042   -7.5417    0.0000 C   0  0  0  0  0  0  0  0  0  0  0  0
    9.3667   -8.9167    0.0000 C   0  0  0  0  0  0  0  0  0  0  0  0
    1.6167   -7.5417    0.0000 C   0  0  0  0  0  0  0  0  0  0  0  0
    0.7417   -8.0417    0.0000 C   0  0  0  0  0  0  0  0  0  0  0  0
   -0.1333   -7.5417    0.0000 C   0  0  0  0  0  0  0  0  0  0  0  0
    9.7917   -7.3292    0.0000 C   0  0  0  0  0  0  0  0  0  0  0  0
   10.1667   -8.7042    0.0000 C   0  0  0  0  0  0  0  0  0  0  0  0
   10.3792   -7.9167    0.0000 C   0  0  0  0  0  0  0  0  0  0  0  0
  2  1  1  0
  3  4  1  0
  4 10  1  0
  5  1  1  0
  6  8  1  0
  7  6  1  0
  8  9  1  0
  9  2  1  0
 10 12  1  0
 11  3  1  0
 12  5  1  0
  2 13  1  0
 14  4  2  0
 15  5  2  0
 16  6  2  0
  9 17  1  0
 18  1  1  0
 19 13  1  0
  3 20  1  0
 11 21  1  0
 22 19  2  0
 23 19  1  0
 24 21  1  0
 25 24  1  0
 26 25  1  0
 27 22  1  0
 28 23  2  0
 29 28  1  0
 11  7  1  0
 29 27  2  0
M  END
>  <Classification>  (625) 
0

>  <pchembl>  (625) 
4.74

>  <InChI_steorem>  (625) 
InChI=1S/C22H31NO6/c1-4-5-11-19-15(2)22(27)28-14-20(25)23(3)17(18(24)13-21(26)29-19)12-16-9-7-6-8-10-16/h6-10,15,17-19,24H,4-5,11-14H2,1-3H3

>  <source>  (625) 
ChEMBL25

>  <source_id>  (625) 
25

>  <optional_reference>  (625) 
10.1016/s0960-894x(99)00243-7

>  <optional_origin>  (625) 
None

>  <target>  (625) 
MDR1

$$$$

     RDKit          2D

 29 31  0  0  0  0  0  0  0  0999 V2000
   -1.0427   -1.2288    0.0000 C   0  0  0  0  0  0  0  0  0  0  0  0
   -0.6302   -1.9433    0.0000 O   0  0  0  0  0  0  0  0  0  0  0  0
   -1.8677   -1.2288    0.0000 C   0  0  0  0  0  0  0  0  0  0  0  0
   -2.2802   -0.5143    0.0000 C   0  0  0  0  0  0  0  0  0  0  0  0
   -1.8677    0.2001    0.0000 C   0  0  0  0  0  0  0  0  0  0  0  0
   -1.0427    0.2001    0.0000 C   0  0  0  0  0  0  0  0  0  0  0  0
   -0.6302    0.9146    0.0000 C   0  0  0  0  0  0  0  0  0  0  0  0
   -1.0427    1.6291    0.0000 O   0  0  0  0  0  0  0  0  0  0  0  0
    0.1948    0.9146    0.0000 C   0  0  0  0  0  0  0  0  0  0  0  0
    0.6073    1.6291    0.0000 O   0  0  0  0  0  0  0  0  0  0  0  0
    0.6073    0.2001    0.0000 C   0  0  0  0  0  0  0  0  0  0  0  0
    1.4323    0.2001    0.0000 O   0  0  0  0  0  0  0  0  0  0  0  0
    0.1948   -0.5143    0.0000 C   0  0  0  0  0  0  0  0  0  0  0  0
   -0.2177   -1.2288    0.0000 O   0  0  0  0  0  0  0  0  0  0  0  0
   -0.6302   -0.5143    0.0000 C   0  0  0  0  0  0  0  0  0  0  0  0
    0.6073   -1.2288    0.0000 C   0  0  0  0  0  0  0  0  0  0  0  0
    0.1948   -1.9433    0.0000 O   0  0  0  0  0  0  0  0  0  0  0  0
    1.4323   -1.2288    0.0000 C   0  0  0  0  0  0  0  0  0  0  0  0
    1.8448   -0.5143    0.0000 C   0  0  0  0  0  0  0  0  0  0  0  0
    2.5732   -0.9017    0.0000 C   0  0  0  0  0  0  0  0  0  0  0  0
    2.6020   -1.7262    0.0000 C   0  0  0  0  0  0  0  0  0  0  0  0
    2.5732   -0.1270    0.0000 C   0  0  0  0  0  0  0  0  0  0  0  0
    1.0198    0.9146    0.0000 C   0  0  0  0  0  0  0  0  0  0  0  0
   -2.5673    0.6373    0.0000 C   0  0  0  0  0  0  0  0  0  0  0  0
   -1.8965    1.0246    0.0000 C   0  0  0  0  0  0  0  0  0  0  0  0
   -0.7164   -1.3348    0.0000 C   0  0  0  0  0  0  0  0  0  0  0  0
    0.1948    2.3435    0.0000 C   0  0  0  0  0  0  0  0  0  0  0  0
   -0.6302    2.3435    0.0000 O   0  0  0  0  0  0  0  0  0  0  0  0
    0.6073    3.0580    0.0000 C   0  0  0  0  0  0  0  0  0  0  0  0
  1  2  1  0
  1  3  1  0
  1 15  1  0
  3  4  1  0
  4  5  1  0
  6  5  1  0
 24  5  1  0
 25  5  1  0
  6  7  1  0
 15  6  1  0
  7  8  1  0
  7  9  1  0
  9 10  1  0
  9 11  1  0
 27 10  1  0
 11 12  1  0
 11 13  1  0
 11 23  1  0
 19 12  1  0
 13 14  1  0
 15 13  1  0
 16 13  1  0
 15 26  1  0
 16 17  2  0
 16 18  1  0
 18 19  1  0
 19 20  1  0
 19 22  1  0
 20 21  2  0
 27 28  2  0
 27 29  1  0
M  END
>  <Classification>  (626) 
0

>  <pchembl>  (626) 
4.1

>  <InChI_steorem>  (626) 
InChI=1S/C22H34O7/c1-8-19(5)11-14(25)22(27)20(6)13(24)9-10-18(3,4)16(20)15(26)17(28-12(2)23)21(22,7)29-19/h8,13,15-17,24,26-27H,1,9-11H2,2-7H3

>  <source>  (626) 
ChEMBL25

>  <source_id>  (626) 
25

>  <optional_reference>  (626) 
10.1006/bbrc.2001.6000

>  <optional_origin>  (626) 
None

>  <target>  (626) 
MDR1

$$$$

     RDKit          2D

 32 33  0  0  0  0  0  0  0  0999 V2000
    6.1417   -6.5250    0.0000 N   0  0  0  0  0  0  0  0  0  0  0  0
    5.1417   -6.5167    0.0000 C   0  0  0  0  0  0  0  0  0  0  0  0
    3.7875   -5.8417    0.0000 O   0  0  0  0  0  0  0  0  0  0  0  0
    3.0750   -6.5625    0.0000 C   0  0  0  0  0  0  0  0  0  0  0  0
    4.6125   -5.8417    0.0000 C   0  0  0  0  0  0  0  0  0  0  0  0
    6.1292   -8.2500    0.0000 C   0  0  0  0  0  0  0  0  0  0  0  0
    2.0875   -6.8167    0.0000 C   0  0  0  0  0  0  0  0  0  0  0  0
    3.6125   -9.0542    0.0000 C   0  0  0  0  0  0  0  0  0  0  0  0
    3.0625   -8.0875    0.0000 O   0  0  0  0  0  0  0  0  0  0  0  0
    4.5375   -9.0625    0.0000 C   0  0  0  0  0  0  0  0  0  0  0  0
    4.9750   -8.2500    0.0000 C   0  0  0  0  0  0  0  0  0  0  0  0
    2.0875   -7.8292    0.0000 C   0  0  0  0  0  0  0  0  0  0  0  0
    4.5792   -7.1125    0.0000 O   0  0  0  0  0  0  0  0  0  0  0  0
    3.9417   -7.0625    0.0000 O   0  0  0  0  0  0  0  0  0  0  0  0
    6.7125   -8.8292    0.0000 C   0  0  0  0  0  0  0  0  0  0  0  0
    3.1875   -9.7625    0.0000 O   0  0  0  0  0  0  0  0  0  0  0  0
    4.8375   -5.0500    0.0000 C   0  0  0  0  0  0  0  0  0  0  0  0
    6.8000   -6.0125    0.0000 C   0  0  0  0  0  0  0  0  0  0  0  0
    4.2542   -7.8375    0.0000 O   0  0  0  0  0  0  0  0  0  0  0  0
    3.4542   -8.0500    0.0000 C   0  0  0  0  0  0  0  0  0  0  0  0
    7.5125   -8.6167    0.0000 C   0  0  0  0  0  0  0  0  0  0  0  0
    1.2875   -6.1917    0.0000 C   0  0  0  0  0  0  0  0  0  0  0  0
    3.2375   -7.2500    0.0000 O   0  0  0  0  0  0  0  0  0  0  0  0
    1.2125   -8.3375    0.0000 C   0  0  0  0  0  0  0  0  0  0  0  0
    5.6375   -4.8500    0.0000 C   0  0  0  0  0  0  0  0  0  0  0  0
    4.2667   -4.4417    0.0000 C   0  0  0  0  0  0  0  0  0  0  0  0
    7.7167   -7.8250    0.0000 C   0  0  0  0  0  0  0  0  0  0  0  0
    8.0875   -9.2042    0.0000 C   0  0  0  0  0  0  0  0  0  0  0  0
    2.4375   -7.0292    0.0000 C   0  0  0  0  0  0  0  0  0  0  0  0
    8.5125   -7.6125    0.0000 C   0  0  0  0  0  0  0  0  0  0  0  0
    8.8875   -8.9917    0.0000 C   0  0  0  0  0  0  0  0  0  0  0  0
    9.1000   -8.2000    0.0000 C   0  0  0  0  0  0  0  0  0  0  0  0
  2  1  1  0
  3  5  1  0
  4  3  1  0
  5  2  1  0
  6  1  1  0
  7  4  1  0
  8 10  1  0
  9  8  1  0
 10 11  1  0
 11  6  1  0
 12  9  1  0
 13  2  2  0
 14  4  2  0
  6 15  1  0
 16  8  2  0
  5 17  1  0
 18  1  1  0
 11 19  1  0
 20 19  1  0
 21 15  1  0
  7 22  1  0
 23 20  1  0
 12 24  1  0
 25 17  1  0
 26 17  1  0
 27 21  2  0
 28 21  1  0
 29 23  1  0
 30 27  1  0
 31 28  2  0
 32 31  1  0
 32 30  2  0
 12  7  1  0
M  END
>  <Classification>  (627) 
1

>  <pchembl>  (627) 
5.12

>  <InChI_steorem>  (627) 
InChI=1S/C24H35NO7/c1-15(2)22-23(27)25(5)19(12-18-10-8-7-9-11-18)20(30-14-29-6)13-21(26)31-17(4)16(3)24(28)32-22/h7-11,15-17,19-20,22H,12-14H2,1-6H3

>  <source>  (627) 
ChEMBL25

>  <source_id>  (627) 
25

>  <optional_reference>  (627) 
10.1016/s0960-894x(99)00243-7

>  <optional_origin>  (627) 
None

>  <target>  (627) 
MDR1

$$$$

     RDKit          2D

 32 33  0  0  0  0  0  0  0  0999 V2000
    7.4292   -6.2417    0.0000 N   0  0  0  0  0  0  0  0  0  0  0  0
    7.4167   -7.9667    0.0000 C   0  0  0  0  0  0  0  0  0  0  0  0
    3.3667   -6.5292    0.0000 C   0  0  0  0  0  0  0  0  0  0  0  0
    4.3542   -6.2792    0.0000 C   0  0  0  0  0  0  0  0  0  0  0  0
    6.3542   -6.2375    0.0000 C   0  0  0  0  0  0  0  0  0  0  0  0
    4.8917   -8.7667    0.0000 C   0  0  0  0  0  0  0  0  0  0  0  0
    4.3417   -7.8042    0.0000 O   0  0  0  0  0  0  0  0  0  0  0  0
    5.8167   -8.7792    0.0000 C   0  0  0  0  0  0  0  0  0  0  0  0
    6.2542   -7.9667    0.0000 C   0  0  0  0  0  0  0  0  0  0  0  0
    5.0667   -5.5542    0.0000 O   0  0  0  0  0  0  0  0  0  0  0  0
    3.3667   -7.5417    0.0000 C   0  0  0  0  0  0  0  0  0  0  0  0
    5.8917   -5.5542    0.0000 C   0  0  0  0  0  0  0  0  0  0  0  0
    7.9917   -8.5417    0.0000 C   0  0  0  0  0  0  0  0  0  0  0  0
    5.2292   -6.7792    0.0000 O   0  0  0  0  0  0  0  0  0  0  0  0
    6.0167   -6.8000    0.0000 O   0  0  0  0  0  0  0  0  0  0  0  0
    4.4667   -9.4792    0.0000 O   0  0  0  0  0  0  0  0  0  0  0  0
    5.5417   -7.5542    0.0000 O   0  0  0  0  0  0  0  0  0  0  0  0
    8.0792   -5.7292    0.0000 C   0  0  0  0  0  0  0  0  0  0  0  0
    4.7417   -7.7667    0.0000 C   0  0  0  0  0  0  0  0  0  0  0  0
    8.7917   -8.3292    0.0000 C   0  0  0  0  0  0  0  0  0  0  0  0
    2.5667   -5.9042    0.0000 C   0  0  0  0  0  0  0  0  0  0  0  0
    4.5167   -6.9667    0.0000 O   0  0  0  0  0  0  0  0  0  0  0  0
    2.4917   -8.0542    0.0000 C   0  0  0  0  0  0  0  0  0  0  0  0
    9.0042   -7.5417    0.0000 C   0  0  0  0  0  0  0  0  0  0  0  0
    9.3667   -8.9167    0.0000 C   0  0  0  0  0  0  0  0  0  0  0  0
    3.7167   -6.7417    0.0000 C   0  0  0  0  0  0  0  0  0  0  0  0
    1.6167   -7.5417    0.0000 C   0  0  0  0  0  0  0  0  0  0  0  0
    0.7417   -8.0417    0.0000 C   0  0  0  0  0  0  0  0  0  0  0  0
   -0.1333   -7.5417    0.0000 C   0  0  0  0  0  0  0  0  0  0  0  0
   10.1667   -8.7042    0.0000 C   0  0  0  0  0  0  0  0  0  0  0  0
    9.7917   -7.3292    0.0000 C   0  0  0  0  0  0  0  0  0  0  0  0
   10.3792   -7.9167    0.0000 C   0  0  0  0  0  0  0  0  0  0  0  0
  2  1  1  0
  3  4  1  0
  4 10  1  0
  5  1  1  0
  6  8  1  0
  7  6  1  0
  8  9  1  0
  9  2  1  0
 10 12  1  0
 11  3  1  0
 12  5  1  0
  2 13  1  0
 14  4  2  0
 15  5  2  0
 16  6  2  0
  9 17  1  0
 18  1  1  0
 19 17  1  0
 20 13  1  0
  3 21  1  0
 22 19  1  0
 11 23  1  0
 24 20  2  0
 25 20  1  0
 26 22  1  0
 27 23  1  0
 28 27  1  0
 29 28  1  0
 30 25  2  0
 31 24  1  0
 32 30  1  0
 11  7  1  0
 32 31  2  0
M  END
>  <Classification>  (628) 
0

>  <pchembl>  (628) 
4.93

>  <InChI_steorem>  (628) 
InChI=1S/C24H35NO7/c1-5-6-12-20-17(2)24(28)30-15-22(26)25(3)19(13-18-10-8-7-9-11-18)21(31-16-29-4)14-23(27)32-20/h7-11,17,19-21H,5-6,12-16H2,1-4H3

>  <source>  (628) 
ChEMBL25

>  <source_id>  (628) 
25

>  <optional_reference>  (628) 
10.1016/s0960-894x(99)00243-7

>  <optional_origin>  (628) 
None

>  <target>  (628) 
MDR1

$$$$

     RDKit          2D

 32 33  0  0  0  0  0  0  0  0999 V2000
    8.7667   -6.2417    0.0000 N   0  0  0  0  0  0  0  0  0  0  0  0
    8.7542   -7.9667    0.0000 C   0  0  0  0  0  0  0  0  0  0  0  0
    4.7125   -6.5292    0.0000 C   0  0  0  0  0  0  0  0  0  0  0  0
    5.8542   -6.3625    0.0000 C   0  0  0  0  0  0  0  0  0  0  0  0
    7.8250   -6.1750    0.0000 C   0  0  0  0  0  0  0  0  0  0  0  0
    6.2375   -8.7667    0.0000 C   0  0  0  0  0  0  0  0  0  0  0  0
    5.6875   -7.8042    0.0000 O   0  0  0  0  0  0  0  0  0  0  0  0
    7.1625   -8.7792    0.0000 C   0  0  0  0  0  0  0  0  0  0  0  0
    7.6000   -7.9667    0.0000 C   0  0  0  0  0  0  0  0  0  0  0  0
    6.4125   -5.5542    0.0000 O   0  0  0  0  0  0  0  0  0  0  0  0
    4.7125   -7.5417    0.0000 C   0  0  0  0  0  0  0  0  0  0  0  0
    7.2375   -5.5542    0.0000 C   0  0  0  0  0  0  0  0  0  0  0  0
    9.3375   -8.5417    0.0000 C   0  0  0  0  0  0  0  0  0  0  0  0
    6.2292   -6.7667    0.0000 O   0  0  0  0  0  0  0  0  0  0  0  0
    7.2917   -6.7375    0.0000 O   0  0  0  0  0  0  0  0  0  0  0  0
    5.8125   -9.4792    0.0000 O   0  0  0  0  0  0  0  0  0  0  0  0
    6.8792   -7.5542    0.0000 O   0  0  0  0  0  0  0  0  0  0  0  0
    9.4250   -5.7292    0.0000 C   0  0  0  0  0  0  0  0  0  0  0  0
   10.1375   -8.3292    0.0000 C   0  0  0  0  0  0  0  0  0  0  0  0
    3.9125   -5.9042    0.0000 C   0  0  0  0  0  0  0  0  0  0  0  0
    3.8375   -8.0542    0.0000 C   0  0  0  0  0  0  0  0  0  0  0  0
   10.3417   -7.5417    0.0000 C   0  0  0  0  0  0  0  0  0  0  0  0
   10.7042   -8.9167    0.0000 C   0  0  0  0  0  0  0  0  0  0  0  0
    2.9625   -7.5417    0.0000 C   0  0  0  0  0  0  0  0  0  0  0  0
   -0.5375   -7.5417    0.0000 C   0  0  0  0  0  0  0  0  0  0  0  0
    0.3375   -8.0542    0.0000 C   0  0  0  0  0  0  0  0  0  0  0  0
    2.0875   -8.0542    0.0000 C   0  0  0  0  0  0  0  0  0  0  0  0
    1.2125   -7.5417    0.0000 C   0  0  0  0  0  0  0  0  0  0  0  0
   -1.4125   -8.0542    0.0000 C   0  0  0  0  0  0  0  0  0  0  0  0
   11.5125   -8.7042    0.0000 C   0  0  0  0  0  0  0  0  0  0  0  0
   11.1375   -7.3292    0.0000 C   0  0  0  0  0  0  0  0  0  0  0  0
   11.7250   -7.9167    0.0000 C   0  0  0  0  0  0  0  0  0  0  0  0
  2  1  1  0
  3  4  1  0
  4 10  1  0
  5  1  1  0
  6  8  1  0
  7  6  1  0
  8  9  1  0
  9  2  1  0
 10 12  1  0
 11  3  1  0
 12  5  1  0
  2 13  1  0
 14  4  2  0
 15  5  2  0
 16  6  2  0
  9 17  1  0
 18  1  1  0
 19 13  1  0
  3 20  1  0
 11 21  1  0
 22 19  2  0
 23 19  1  0
 24 21  1  0
 25 26  1  0
 26 28  1  0
 27 24  1  0
 28 27  1  0
 29 25  1  0
 30 23  2  0
 31 22  1  0
 32 30  1  0
 11  7  1  0
 32 31  2  0
M  END
>  <Classification>  (629) 
0

>  <pchembl>  (629) 
4.65

>  <InChI_steorem>  (629) 
InChI=1S/C25H37NO6/c1-4-5-6-7-11-14-22-18(2)25(30)31-17-23(28)26(3)20(21(27)16-24(29)32-22)15-19-12-9-8-10-13-19/h8-10,12-13,18,20-22,27H,4-7,11,14-17H2,1-3H3

>  <source>  (629) 
ChEMBL25

>  <source_id>  (629) 
25

>  <optional_reference>  (629) 
10.1016/s0960-894x(99)00243-7

>  <optional_origin>  (629) 
None

>  <target>  (629) 
MDR1

$$$$

     RDKit          2D

 28 31  0  0  0  0  0  0  0  0999 V2000
   -2.3925    1.1451    0.0000 C   0  0  0  0  0  0  0  0  0  0  0  0
   -3.1994    1.3166    0.0000 C   0  0  0  0  0  0  0  0  0  0  0  0
   -3.7515    0.7035    0.0000 C   0  0  0  0  0  0  0  0  0  0  0  0
   -3.4965   -0.0811    0.0000 C   0  0  0  0  0  0  0  0  0  0  0  0
   -2.6896   -0.2526    0.0000 C   0  0  0  0  0  0  0  0  0  0  0  0
   -2.4346   -1.0373    0.0000 C   0  0  0  0  0  0  0  0  0  0  0  0
   -1.6276   -1.2088    0.0000 C   0  0  0  0  0  0  0  0  0  0  0  0
   -1.0756   -0.5957    0.0000 C   0  0  0  0  0  0  0  0  0  0  0  0
   -1.3306    0.1889    0.0000 C   0  0  0  0  0  0  0  0  0  0  0  0
   -2.1375    0.3605    0.0000 C   0  0  0  0  0  0  0  0  0  0  0  0
   -0.7785    0.8020    0.0000 C   0  0  0  0  0  0  0  0  0  0  0  0
    0.0285    0.6305    0.0000 C   0  0  0  0  0  0  0  0  0  0  0  0
    0.2834   -0.1541    0.0000 C   0  0  0  0  0  0  0  0  0  0  0  0
   -0.2686   -0.7672    0.0000 C   0  0  0  0  0  0  0  0  0  0  0  0
    0.1439   -1.4817    0.0000 C   0  0  0  0  0  0  0  0  0  0  0  0
    0.9508   -1.3102    0.0000 C   0  0  0  0  0  0  0  0  0  0  0  0
    1.0371   -0.4897    0.0000 C   0  0  0  0  0  0  0  0  0  0  0  0
    0.8965    0.3979    0.0000 C   0  0  0  0  0  0  0  0  0  0  0  0
   -1.5855    0.9736    0.0000 C   0  0  0  0  0  0  0  0  0  0  0  0
    1.7515   -0.0772    0.0000 C   0  0  0  0  0  0  0  0  0  0  0  0
    1.7515    0.7478    0.0000 C   0  0  0  0  0  0  0  0  0  0  0  0
    2.4660   -0.4897    0.0000 C   0  0  0  0  0  0  0  0  0  0  0  0
    3.1805   -0.0772    0.0000 C   0  0  0  0  0  0  0  0  0  0  0  0
    3.8950   -0.4897    0.0000 C   0  0  0  0  0  0  0  0  0  0  0  0
    4.6094   -0.0772    0.0000 C   0  0  0  0  0  0  0  0  0  0  0  0
    5.3239   -0.4897    0.0000 C   0  0  0  0  0  0  0  0  0  0  0  0
    4.6094    0.7478    0.0000 C   0  0  0  0  0  0  0  0  0  0  0  0
   -4.5584    0.8750    0.0000 O   0  0  0  0  0  0  0  0  0  0  0  0
  1  2  1  0
  1 10  1  0
  2  3  1  0
  3  4  1  0
  3 28  1  0
  4  5  1  0
  5  6  2  0
 10  5  1  0
  6  7  1  0
  8  7  1  0
  8  9  1  0
 14  8  1  0
 10  9  1  0
  9 11  1  0
 10 19  1  0
 11 12  1  0
 12 13  1  0
 13 14  1  0
 13 17  1  0
 13 18  1  0
 14 15  1  0
 15 16  1  0
 16 17  1  0
 17 20  1  0
 20 21  1  0
 20 22  1  0
 22 23  1  0
 23 24  1  0
 24 25  1  0
 25 26  1  0
 25 27  1  0
M  END
>  <Classification>  (630) 
1

>  <pchembl>  (630) 
5.09

>  <InChI_steorem>  (630) 
InChI=1S/C27H46O/c1-18(2)7-6-8-19(3)23-11-12-24-22-10-9-20-17-21(28)13-15-26(20,4)25(22)14-16-27(23,24)5/h9,18-19,21-25,28H,6-8,10-17H2,1-5H3

>  <source>  (630) 
ChEMBL25

>  <source_id>  (630) 
25

>  <optional_reference>  (630) 
10.1006/bbrc.2000.3554

>  <optional_origin>  (630) 
None

>  <target>  (630) 
MDR1

$$$$

     RDKit          2D

 33 34  0  0  0  0  0  0  0  0999 V2000
    8.0917   -0.9250    0.0000 N   0  0  0  0  0  0  0  0  0  0  0  0
    7.8792   -0.1250    0.0000 C   0  0  0  0  0  0  0  0  0  0  0  0
    6.3750   -1.1542    0.0000 C   0  0  0  0  0  0  0  0  0  0  0  0
    8.0875   -1.7500    0.0000 C   0  0  0  0  0  0  0  0  0  0  0  0
    6.3750   -0.3292    0.0000 O   0  0  0  0  0  0  0  0  0  0  0  0
    5.6667   -1.5750    0.0000 C   0  0  0  0  0  0  0  0  0  0  0  0
    6.7792   -3.5625    0.0000 C   0  0  0  0  0  0  0  0  0  0  0  0
    6.0667   -3.1500    0.0000 O   0  0  0  0  0  0  0  0  0  0  0  0
    7.0875    0.0875    0.0000 C   0  0  0  0  0  0  0  0  0  0  0  0
    7.5000   -3.1542    0.0000 C   0  0  0  0  0  0  0  0  0  0  0  0
    7.5000   -2.3292    0.0000 C   0  0  0  0  0  0  0  0  0  0  0  0
    5.6750   -2.4000    0.0000 C   0  0  0  0  0  0  0  0  0  0  0  0
    8.4625    0.4625    0.0000 O   0  0  0  0  0  0  0  0  0  0  0  0
    7.0917   -1.5625    0.0000 O   0  0  0  0  0  0  0  0  0  0  0  0
    8.8500   -2.0625    0.0000 C   0  0  0  0  0  0  0  0  0  0  0  0
    6.7750   -4.3792    0.0000 O   0  0  0  0  0  0  0  0  0  0  0  0
    8.9125   -0.8125    0.0000 C   0  0  0  0  0  0  0  0  0  0  0  0
    6.7375   -2.0125    0.0000 O   0  0  0  0  0  0  0  0  0  0  0  0
    8.9500   -2.8875    0.0000 C   0  0  0  0  0  0  0  0  0  0  0  0
    4.9500   -1.1625    0.0000 C   0  0  0  0  0  0  0  0  0  0  0  0
    4.8667   -2.6000    0.0000 C   0  0  0  0  0  0  0  0  0  0  0  0
    7.0792    0.9125    0.0000 C   0  0  0  0  0  0  0  0  0  0  0  0
    9.7042   -3.2000    0.0000 C   0  0  0  0  0  0  0  0  0  0  0  0
    8.2875   -3.3792    0.0000 C   0  0  0  0  0  0  0  0  0  0  0  0
    4.3000   -2.0000    0.0000 C   0  0  0  0  0  0  0  0  0  0  0  0
    1.5500   -1.2167    0.0000 C   0  0  0  0  0  0  0  0  0  0  0  0
    2.1250   -1.8125    0.0000 C   0  0  0  0  0  0  0  0  0  0  0  0
    3.5000   -2.2000    0.0000 C   0  0  0  0  0  0  0  0  0  0  0  0
    2.9250   -1.6125    0.0000 C   0  0  0  0  0  0  0  0  0  0  0  0
    0.7500   -1.4167    0.0000 C   0  0  0  0  0  0  0  0  0  0  0  0
    8.3917   -4.1917    0.0000 C   0  0  0  0  0  0  0  0  0  0  0  0
    9.8125   -4.0042    0.0000 C   0  0  0  0  0  0  0  0  0  0  0  0
    9.1542   -4.5167    0.0000 C   0  0  0  0  0  0  0  0  0  0  0  0
  2  1  1  0
  3  5  1  0
  4  1  1  0
  5  9  1  0
  6  3  1  0
  7 10  1  0
  8  7  1  0
  9  2  1  0
 10 11  1  0
 11  4  1  0
 12  8  1  0
 13  2  2  0
 14  3  2  0
  4 15  1  0
 16  7  2  0
 17  1  1  0
 11 18  1  0
 19 15  1  0
  6 20  1  0
 12 21  1  0
  9 22  1  0
 23 19  2  0
 24 19  1  0
 25 21  1  0
 26 27  1  0
 27 29  1  0
 28 25  1  0
 29 28  1  0
 30 26  1  0
 31 24  2  0
 32 23  1  0
 33 31  1  0
 33 32  2  0
  6 12  1  0
M  END
>  <Classification>  (631) 
0

>  <pchembl>  (631) 
4.57

>  <InChI_steorem>  (631) 
InChI=1S/C26H39NO6/c1-5-6-7-8-12-15-23-18(2)26(31)32-19(3)25(30)27(4)21(22(28)17-24(29)33-23)16-20-13-10-9-11-14-20/h9-11,13-14,18-19,21-23,28H,5-8,12,15-17H2,1-4H3

>  <source>  (631) 
ChEMBL25

>  <source_id>  (631) 
25

>  <optional_reference>  (631) 
10.1016/s0960-894x(99)00243-7

>  <optional_origin>  (631) 
None

>  <target>  (631) 
MDR1

$$$$

     RDKit          2D

 34 35  0  0  0  0  0  0  0  0999 V2000
    7.8542   -6.4250    0.0000 C   0  0  0  0  0  0  0  0  0  0  0  0
    8.7667   -6.5167    0.0000 N   0  0  0  0  0  0  0  0  0  0  0  0
    6.4125   -5.8375    0.0000 O   0  0  0  0  0  0  0  0  0  0  0  0
    5.8292   -6.5500    0.0000 C   0  0  0  0  0  0  0  0  0  0  0  0
    7.2375   -5.8375    0.0000 C   0  0  0  0  0  0  0  0  0  0  0  0
    4.7125   -6.8125    0.0000 C   0  0  0  0  0  0  0  0  0  0  0  0
    5.6875   -8.0792    0.0000 O   0  0  0  0  0  0  0  0  0  0  0  0
    8.7542   -8.2417    0.0000 C   0  0  0  0  0  0  0  0  0  0  0  0
    4.7125   -7.8250    0.0000 C   0  0  0  0  0  0  0  0  0  0  0  0
    6.2375   -9.0500    0.0000 C   0  0  0  0  0  0  0  0  0  0  0  0
    7.3875   -6.8875    0.0000 O   0  0  0  0  0  0  0  0  0  0  0  0
    6.5667   -7.0542    0.0000 O   0  0  0  0  0  0  0  0  0  0  0  0
    9.3375   -8.8250    0.0000 C   0  0  0  0  0  0  0  0  0  0  0  0
    5.8125   -9.7625    0.0000 O   0  0  0  0  0  0  0  0  0  0  0  0
    7.6000   -8.2417    0.0000 C   0  0  0  0  0  0  0  0  0  0  0  0
    7.4625   -5.0417    0.0000 C   0  0  0  0  0  0  0  0  0  0  0  0
    7.1625   -9.0542    0.0000 C   0  0  0  0  0  0  0  0  0  0  0  0
    9.4250   -6.0125    0.0000 C   0  0  0  0  0  0  0  0  0  0  0  0
   10.1375   -8.6125    0.0000 C   0  0  0  0  0  0  0  0  0  0  0  0
    3.9125   -6.1875    0.0000 C   0  0  0  0  0  0  0  0  0  0  0  0
    3.8375   -8.3292    0.0000 C   0  0  0  0  0  0  0  0  0  0  0  0
    8.2625   -4.8500    0.0000 C   0  0  0  0  0  0  0  0  0  0  0  0
    6.8917   -4.4417    0.0000 C   0  0  0  0  0  0  0  0  0  0  0  0
   10.7042   -9.2000    0.0000 C   0  0  0  0  0  0  0  0  0  0  0  0
   10.3417   -7.8250    0.0000 C   0  0  0  0  0  0  0  0  0  0  0  0
    2.9625   -7.8250    0.0000 C   0  0  0  0  0  0  0  0  0  0  0  0
   -0.5375   -7.8250    0.0000 C   0  0  0  0  0  0  0  0  0  0  0  0
    0.3375   -8.3292    0.0000 C   0  0  0  0  0  0  0  0  0  0  0  0
    2.0875   -8.3292    0.0000 C   0  0  0  0  0  0  0  0  0  0  0  0
    1.2125   -7.8250    0.0000 C   0  0  0  0  0  0  0  0  0  0  0  0
   -1.4125   -8.3292    0.0000 C   0  0  0  0  0  0  0  0  0  0  0  0
   11.1375   -7.6042    0.0000 C   0  0  0  0  0  0  0  0  0  0  0  0
   11.5125   -8.9875    0.0000 C   0  0  0  0  0  0  0  0  0  0  0  0
   11.7250   -8.1917    0.0000 C   0  0  0  0  0  0  0  0  0  0  0  0
  2  1  1  0
  3  5  1  0
  4  3  1  0
  5  1  1  0
  6  4  1  0
  9  7  1  0
  8  2  1  0
  9  6  1  0
 10 17  1  0
 11  1  2  0
 12  4  2  0
  8 13  1  0
 14 10  2  0
 15  8  1  0
  5 16  1  0
 17 15  1  0
 18  2  1  0
 19 13  1  0
  6 20  1  0
  9 21  1  0
 22 16  1  0
 23 16  1  0
 24 19  2  0
 25 19  1  0
 26 21  1  0
 27 28  1  0
 28 30  1  0
 29 26  1  0
 30 29  1  0
 31 27  1  0
 32 25  2  0
 33 24  1  0
 34 32  1  0
  7 10  1  0
 34 33  2  0
M  END
>  <Classification>  (632) 
0

>  <pchembl>  (632) 
4.47

>  <InChI_steorem>  (632) 
InChI=1S/C28H43NO5/c1-6-7-8-9-13-16-24-21(4)28(32)34-26(20(2)3)27(31)29(5)23(17-18-25(30)33-24)19-22-14-11-10-12-15-22/h10-12,14-15,20-21,23-24,26H,6-9,13,16-19H2,1-5H3

>  <source>  (632) 
ChEMBL25

>  <source_id>  (632) 
25

>  <optional_reference>  (632) 
10.1016/s0960-894x(99)00243-7

>  <optional_origin>  (632) 
None

>  <target>  (632) 
MDR1

$$$$

     RDKit          2D

 34 35  0  0  0  0  0  0  0  0999 V2000
    8.7667   -6.2292    0.0000 N   0  0  0  0  0  0  0  0  0  0  0  0
    7.7000   -6.2375    0.0000 C   0  0  0  0  0  0  0  0  0  0  0  0
    5.7000   -6.2667    0.0000 C   0  0  0  0  0  0  0  0  0  0  0  0
    7.2375   -5.5417    0.0000 C   0  0  0  0  0  0  0  0  0  0  0  0
    6.4125   -5.5417    0.0000 O   0  0  0  0  0  0  0  0  0  0  0  0
    8.7542   -7.9542    0.0000 C   0  0  0  0  0  0  0  0  0  0  0  0
    4.7125   -6.5167    0.0000 C   0  0  0  0  0  0  0  0  0  0  0  0
    6.2375   -8.7542    0.0000 C   0  0  0  0  0  0  0  0  0  0  0  0
    5.6875   -7.7917    0.0000 O   0  0  0  0  0  0  0  0  0  0  0  0
    7.1625   -8.7667    0.0000 C   0  0  0  0  0  0  0  0  0  0  0  0
    7.6000   -7.9542    0.0000 C   0  0  0  0  0  0  0  0  0  0  0  0
    4.7125   -7.5292    0.0000 C   0  0  0  0  0  0  0  0  0  0  0  0
    7.3542   -6.7375    0.0000 O   0  0  0  0  0  0  0  0  0  0  0  0
    6.5667   -6.7667    0.0000 O   0  0  0  0  0  0  0  0  0  0  0  0
    9.3375   -8.5292    0.0000 C   0  0  0  0  0  0  0  0  0  0  0  0
    5.8125   -9.4667    0.0000 O   0  0  0  0  0  0  0  0  0  0  0  0
    9.4250   -5.7167    0.0000 C   0  0  0  0  0  0  0  0  0  0  0  0
    6.8792   -7.5417    0.0000 O   0  0  0  0  0  0  0  0  0  0  0  0
   10.1375   -8.3167    0.0000 C   0  0  0  0  0  0  0  0  0  0  0  0
    7.4625   -4.7417    0.0000 C   0  0  0  0  0  0  0  0  0  0  0  0
    7.9500   -5.1292    0.0000 C   0  0  0  0  0  0  0  0  0  0  0  0
    3.9125   -5.8917    0.0000 C   0  0  0  0  0  0  0  0  0  0  0  0
    3.8375   -8.0417    0.0000 C   0  0  0  0  0  0  0  0  0  0  0  0
   10.7042   -8.9042    0.0000 C   0  0  0  0  0  0  0  0  0  0  0  0
   10.3417   -7.5292    0.0000 C   0  0  0  0  0  0  0  0  0  0  0  0
    2.9625   -7.5292    0.0000 C   0  0  0  0  0  0  0  0  0  0  0  0
   -0.5375   -7.5292    0.0000 C   0  0  0  0  0  0  0  0  0  0  0  0
    0.3375   -8.0417    0.0000 C   0  0  0  0  0  0  0  0  0  0  0  0
    1.2125   -7.5292    0.0000 C   0  0  0  0  0  0  0  0  0  0  0  0
    2.0875   -8.0417    0.0000 C   0  0  0  0  0  0  0  0  0  0  0  0
   -1.4125   -8.0417    0.0000 C   0  0  0  0  0  0  0  0  0  0  0  0
   11.1375   -7.3167    0.0000 C   0  0  0  0  0  0  0  0  0  0  0  0
   11.5125   -8.6917    0.0000 C   0  0  0  0  0  0  0  0  0  0  0  0
   11.7250   -7.9042    0.0000 C   0  0  0  0  0  0  0  0  0  0  0  0
  2  1  1  0
  3  5  1  0
  4  2  1  0
  5  4  1  0
  6  1  1  0
  7  3  1  0
  8 10  1  0
  9  8  1  0
 10 11  1  0
 11  6  1  0
 12  9  1  0
 13  2  2  0
 14  3  2  0
  6 15  1  0
 16  8  2  0
 17  1  1  0
 11 18  1  0
 19 15  1  0
  4 20  1  0
 21  4  1  0
  7 22  1  0
 12 23  1  0
 24 19  2  0
 25 19  1  0
 26 23  1  0
 27 28  1  0
 28 29  1  0
 29 30  1  0
 30 26  1  0
 31 27  1  0
 32 25  2  0
 33 24  1  0
 34 32  1  0
 34 33  2  0
 12  7  1  0
M  END
>  <Classification>  (633) 
0

>  <pchembl>  (633) 
4.55

>  <InChI_steorem>  (633) 
InChI=1S/C27H41NO6/c1-6-7-8-9-13-16-23-19(2)25(31)34-27(3,4)26(32)28(5)21(22(29)18-24(30)33-23)17-20-14-11-10-12-15-20/h10-12,14-15,19,21-23,29H,6-9,13,16-18H2,1-5H3

>  <source>  (633) 
ChEMBL25

>  <source_id>  (633) 
25

>  <optional_reference>  (633) 
10.1016/s0960-894x(99)00243-7

>  <optional_origin>  (633) 
None

>  <target>  (633) 
MDR1

$$$$

     RDKit          2D

 34 35  0  0  0  0  0  0  0  0999 V2000
    8.7667   -6.5167    0.0000 N   0  0  0  0  0  0  0  0  0  0  0  0
    7.7917   -6.4542    0.0000 C   0  0  0  0  0  0  0  0  0  0  0  0
    8.7542   -8.2417    0.0000 C   0  0  0  0  0  0  0  0  0  0  0  0
    7.2375   -5.8375    0.0000 C   0  0  0  0  0  0  0  0  0  0  0  0
    6.4125   -5.8375    0.0000 O   0  0  0  0  0  0  0  0  0  0  0  0
    5.7000   -6.5542    0.0000 C   0  0  0  0  0  0  0  0  0  0  0  0
    6.2375   -9.0500    0.0000 C   0  0  0  0  0  0  0  0  0  0  0  0
    7.1625   -9.0542    0.0000 C   0  0  0  0  0  0  0  0  0  0  0  0
    7.6000   -8.2417    0.0000 C   0  0  0  0  0  0  0  0  0  0  0  0
    5.6875   -8.0792    0.0000 O   0  0  0  0  0  0  0  0  0  0  0  0
    4.7125   -6.8125    0.0000 C   0  0  0  0  0  0  0  0  0  0  0  0
    7.2292   -7.0167    0.0000 O   0  0  0  0  0  0  0  0  0  0  0  0
    9.3375   -8.8250    0.0000 C   0  0  0  0  0  0  0  0  0  0  0  0
    4.7125   -7.8250    0.0000 C   0  0  0  0  0  0  0  0  0  0  0  0
    5.8125   -9.7625    0.0000 O   0  0  0  0  0  0  0  0  0  0  0  0
    6.5667   -7.0542    0.0000 O   0  0  0  0  0  0  0  0  0  0  0  0
    7.4625   -5.0417    0.0000 C   0  0  0  0  0  0  0  0  0  0  0  0
    9.4250   -6.0125    0.0000 C   0  0  0  0  0  0  0  0  0  0  0  0
    6.8792   -7.8292    0.0000 O   0  0  0  0  0  0  0  0  0  0  0  0
   10.1375   -8.6125    0.0000 C   0  0  0  0  0  0  0  0  0  0  0  0
    3.8375   -8.3292    0.0000 C   0  0  0  0  0  0  0  0  0  0  0  0
    8.2625   -4.8500    0.0000 C   0  0  0  0  0  0  0  0  0  0  0  0
    6.8917   -4.4417    0.0000 C   0  0  0  0  0  0  0  0  0  0  0  0
   10.7042   -9.2000    0.0000 C   0  0  0  0  0  0  0  0  0  0  0  0
   10.3417   -7.8250    0.0000 C   0  0  0  0  0  0  0  0  0  0  0  0
    2.9625   -7.8250    0.0000 C   0  0  0  0  0  0  0  0  0  0  0  0
   -0.5375   -7.8250    0.0000 C   0  0  0  0  0  0  0  0  0  0  0  0
    0.3375   -8.3292    0.0000 C   0  0  0  0  0  0  0  0  0  0  0  0
    2.0875   -8.3292    0.0000 C   0  0  0  0  0  0  0  0  0  0  0  0
    1.2125   -7.8250    0.0000 C   0  0  0  0  0  0  0  0  0  0  0  0
   -1.4125   -8.3292    0.0000 C   0  0  0  0  0  0  0  0  0  0  0  0
   11.1375   -7.6042    0.0000 C   0  0  0  0  0  0  0  0  0  0  0  0
   11.5125   -8.9875    0.0000 C   0  0  0  0  0  0  0  0  0  0  0  0
   11.7250   -8.1917    0.0000 C   0  0  0  0  0  0  0  0  0  0  0  0
  2  1  1  0
  3  1  1  0
  4  2  1  0
  5  4  1  0
  6  5  1  0
  7  8  1  0
  8  9  1  0
  9  3  1  0
 10  7  1  0
 11  6  1  0
 12  2  2  0
  3 13  1  0
 14 10  1  0
 15  7  2  0
 16  6  2  0
  4 17  1  0
 18  1  1  0
  9 19  1  0
 20 13  1  0
 14 21  1  0
 22 17  1  0
 23 17  1  0
 24 20  2  0
 25 20  1  0
 26 21  1  0
 27 28  1  0
 28 30  1  0
 29 26  1  0
 30 29  1  0
 31 27  1  0
 32 25  2  0
 33 24  1  0
 34 32  1  0
 34 33  2  0
 14 11  1  0
M  END
>  <Classification>  (634) 
0

>  <pchembl>  (634) 
4.62

>  <InChI_steorem>  (634) 
InChI=1S/C27H41NO6/c1-5-6-7-8-12-15-21-17-24(30)34-26(19(2)3)27(32)28(4)22(23(29)18-25(31)33-21)16-20-13-10-9-11-14-20/h9-11,13-14,19,21-23,26,29H,5-8,12,15-18H2,1-4H3

>  <source>  (634) 
ChEMBL25

>  <source_id>  (634) 
25

>  <optional_reference>  (634) 
10.1016/s0960-894x(99)00243-7

>  <optional_origin>  (634) 
None

>  <target>  (634) 
MDR1

$$$$

     RDKit          2D

 35 36  0  0  0  0  0  0  0  0999 V2000
    5.6167   -0.0042    0.0000 N   0  0  0  0  0  0  0  0  0  0  0  0
    5.4042    0.7833    0.0000 C   0  0  0  0  0  0  0  0  0  0  0  0
    3.9000    0.5833    0.0000 O   0  0  0  0  0  0  0  0  0  0  0  0
    3.9000   -0.2417    0.0000 C   0  0  0  0  0  0  0  0  0  0  0  0
    4.6125    0.9958    0.0000 C   0  0  0  0  0  0  0  0  0  0  0  0
    5.6125   -0.8292    0.0000 C   0  0  0  0  0  0  0  0  0  0  0  0
    3.1917   -0.6542    0.0000 C   0  0  0  0  0  0  0  0  0  0  0  0
    4.3042   -2.6542    0.0000 C   0  0  0  0  0  0  0  0  0  0  0  0
    3.5917   -2.2292    0.0000 O   0  0  0  0  0  0  0  0  0  0  0  0
    5.0250   -2.2417    0.0000 C   0  0  0  0  0  0  0  0  0  0  0  0
    5.0250   -1.4167    0.0000 C   0  0  0  0  0  0  0  0  0  0  0  0
    3.2000   -1.4792    0.0000 C   0  0  0  0  0  0  0  0  0  0  0  0
    5.9875    1.3708    0.0000 O   0  0  0  0  0  0  0  0  0  0  0  0
    4.6167   -0.6542    0.0000 O   0  0  0  0  0  0  0  0  0  0  0  0
    6.3750   -1.1542    0.0000 C   0  0  0  0  0  0  0  0  0  0  0  0
    4.3000   -3.4792    0.0000 O   0  0  0  0  0  0  0  0  0  0  0  0
    4.6042    1.8208    0.0000 C   0  0  0  0  0  0  0  0  0  0  0  0
    6.4375    0.0958    0.0000 C   0  0  0  0  0  0  0  0  0  0  0  0
    4.2625   -1.0917    0.0000 O   0  0  0  0  0  0  0  0  0  0  0  0
    6.4750   -1.9667    0.0000 C   0  0  0  0  0  0  0  0  0  0  0  0
    2.4750   -0.2417    0.0000 C   0  0  0  0  0  0  0  0  0  0  0  0
    2.3917   -1.6792    0.0000 C   0  0  0  0  0  0  0  0  0  0  0  0
    3.8875    2.2333    0.0000 C   0  0  0  0  0  0  0  0  0  0  0  0
    5.3125    2.2458    0.0000 C   0  0  0  0  0  0  0  0  0  0  0  0
    7.2292   -2.2792    0.0000 C   0  0  0  0  0  0  0  0  0  0  0  0
    5.8125   -2.4667    0.0000 C   0  0  0  0  0  0  0  0  0  0  0  0
    1.8250   -1.0917    0.0000 C   0  0  0  0  0  0  0  0  0  0  0  0
   -0.9250   -0.3042    0.0000 C   0  0  0  0  0  0  0  0  0  0  0  0
   -0.3500   -0.8917    0.0000 C   0  0  0  0  0  0  0  0  0  0  0  0
    1.0250   -1.2917    0.0000 C   0  0  0  0  0  0  0  0  0  0  0  0
    0.4500   -0.6917    0.0000 C   0  0  0  0  0  0  0  0  0  0  0  0
   -1.7250   -0.5042    0.0000 C   0  0  0  0  0  0  0  0  0  0  0  0
    5.9167   -3.2792    0.0000 C   0  0  0  0  0  0  0  0  0  0  0  0
    7.3375   -3.1042    0.0000 C   0  0  0  0  0  0  0  0  0  0  0  0
    6.6792   -3.6042    0.0000 C   0  0  0  0  0  0  0  0  0  0  0  0
  2  1  1  0
  3  5  1  0
  4  3  1  0
  5  2  1  0
  6  1  1  0
  7  4  1  0
  8 10  1  0
  9  8  1  0
 10 11  1  0
 11  6  1  0
 12  9  1  0
 13  2  2  0
 14  4  2  0
  6 15  1  0
 16  8  2  0
  5 17  1  0
 18  1  1  0
 11 19  1  0
 20 15  1  0
  7 21  1  0
 12 22  1  0
 23 17  1  0
 24 17  1  0
 25 20  2  0
 26 20  1  0
 27 22  1  0
 28 29  1  0
 29 31  1  0
 30 27  1  0
 31 30  1  0
 32 28  1  0
 33 26  2  0
 34 25  1  0
 35 33  1  0
 35 34  2  0
 12  7  1  0
M  END
>  <Classification>  (635) 
0

>  <pchembl>  (635) 
4.83

>  <InChI_steorem>  (635) 
InChI=1S/C28H43NO6/c1-6-7-8-9-13-16-24-20(4)28(33)35-26(19(2)3)27(32)29(5)22(23(30)18-25(31)34-24)17-21-14-11-10-12-15-21/h10-12,14-15,19-20,22-24,26,30H,6-9,13,16-18H2,1-5H3

>  <source>  (635) 
ChEMBL25

>  <source_id>  (635) 
25

>  <optional_reference>  (635) 
10.1016/s0960-894x(99)00243-7

>  <optional_origin>  (635) 
None

>  <target>  (635) 
MDR1

$$$$

     RDKit          2D

 35 36  0  0  0  0  0  0  0  0999 V2000
    8.7667   -6.2417    0.0000 N   0  0  0  0  0  0  0  0  0  0  0  0
    8.7542   -7.9667    0.0000 C   0  0  0  0  0  0  0  0  0  0  0  0
    4.7125   -6.5375    0.0000 C   0  0  0  0  0  0  0  0  0  0  0  0
    5.8917   -6.2042    0.0000 C   0  0  0  0  0  0  0  0  0  0  0  0
    7.7292   -6.1750    0.0000 C   0  0  0  0  0  0  0  0  0  0  0  0
    6.2375   -8.7750    0.0000 C   0  0  0  0  0  0  0  0  0  0  0  0
    5.6875   -7.8042    0.0000 O   0  0  0  0  0  0  0  0  0  0  0  0
    7.1625   -8.7792    0.0000 C   0  0  0  0  0  0  0  0  0  0  0  0
    7.6000   -7.9667    0.0000 C   0  0  0  0  0  0  0  0  0  0  0  0
    6.4125   -5.5625    0.0000 O   0  0  0  0  0  0  0  0  0  0  0  0
    4.7125   -7.5500    0.0000 C   0  0  0  0  0  0  0  0  0  0  0  0
    7.2375   -5.5625    0.0000 C   0  0  0  0  0  0  0  0  0  0  0  0
    9.3375   -8.5500    0.0000 C   0  0  0  0  0  0  0  0  0  0  0  0
    6.4167   -6.6417    0.0000 O   0  0  0  0  0  0  0  0  0  0  0  0
    7.2000   -6.6750    0.0000 O   0  0  0  0  0  0  0  0  0  0  0  0
    5.8125   -9.4792    0.0000 O   0  0  0  0  0  0  0  0  0  0  0  0
    6.8792   -7.5542    0.0000 O   0  0  0  0  0  0  0  0  0  0  0  0
    9.4250   -5.7292    0.0000 C   0  0  0  0  0  0  0  0  0  0  0  0
    6.0792   -7.7667    0.0000 C   0  0  0  0  0  0  0  0  0  0  0  0
   10.1375   -8.3375    0.0000 C   0  0  0  0  0  0  0  0  0  0  0  0
    3.9125   -5.9125    0.0000 C   0  0  0  0  0  0  0  0  0  0  0  0
    5.8625   -6.9667    0.0000 O   0  0  0  0  0  0  0  0  0  0  0  0
    3.8375   -8.0542    0.0000 C   0  0  0  0  0  0  0  0  0  0  0  0
   10.3417   -7.5417    0.0000 C   0  0  0  0  0  0  0  0  0  0  0  0
   10.7042   -8.9250    0.0000 C   0  0  0  0  0  0  0  0  0  0  0  0
    5.0625   -6.7500    0.0000 C   0  0  0  0  0  0  0  0  0  0  0  0
    2.9625   -7.5500    0.0000 C   0  0  0  0  0  0  0  0  0  0  0  0
   -0.5375   -7.5500    0.0000 C   0  0  0  0  0  0  0  0  0  0  0  0
    0.3375   -8.0542    0.0000 C   0  0  0  0  0  0  0  0  0  0  0  0
    2.0875   -8.0542    0.0000 C   0  0  0  0  0  0  0  0  0  0  0  0
    1.2125   -7.5500    0.0000 C   0  0  0  0  0  0  0  0  0  0  0  0
   -1.4125   -8.0542    0.0000 C   0  0  0  0  0  0  0  0  0  0  0  0
   11.1375   -7.3292    0.0000 C   0  0  0  0  0  0  0  0  0  0  0  0
   11.5125   -8.7125    0.0000 C   0  0  0  0  0  0  0  0  0  0  0  0
   11.7250   -7.9167    0.0000 C   0  0  0  0  0  0  0  0  0  0  0  0
  2  1  1  0
  3  4  1  0
  4 10  1  0
  5  1  1  0
  6  8  1  0
  7  6  1  0
  8  9  1  0
  9  2  1  0
 10 12  1  0
 11  3  1  0
 12  5  1  0
  2 13  1  0
 14  4  2  0
 15  5  2  0
 16  6  2  0
  9 17  1  0
 18  1  1  0
 19 17  1  0
 20 13  1  0
  3 21  1  0
 22 19  1  0
 11 23  1  0
 24 20  2  0
 25 20  1  0
 26 22  1  0
 27 23  1  0
 28 29  1  0
 29 31  1  0
 30 27  1  0
 31 30  1  0
 32 28  1  0
 33 24  1  0
 34 25  2  0
 35 34  1  0
 11  7  1  0
 35 33  2  0
M  END
>  <Classification>  (636) 
0

>  <pchembl>  (636) 
4.82

>  <InChI_steorem>  (636) 
InChI=1S/C27H41NO7/c1-5-6-7-8-12-15-23-20(2)27(31)33-18-25(29)28(3)22(16-21-13-10-9-11-14-21)24(34-19-32-4)17-26(30)35-23/h9-11,13-14,20,22-24H,5-8,12,15-19H2,1-4H3

>  <source>  (636) 
ChEMBL25

>  <source_id>  (636) 
25

>  <optional_reference>  (636) 
10.1016/s0960-894x(99)00243-7

>  <optional_origin>  (636) 
None

>  <target>  (636) 
MDR1

$$$$

     RDKit          2D

 36 37  0  0  0  0  0  0  0  0999 V2000
    8.7667   -6.2250    0.0000 N   0  0  0  0  0  0  0  0  0  0  0  0
    7.6042   -6.2042    0.0000 C   0  0  0  0  0  0  0  0  0  0  0  0
    5.9792   -6.2667    0.0000 C   0  0  0  0  0  0  0  0  0  0  0  0
    8.7542   -7.9500    0.0000 C   0  0  0  0  0  0  0  0  0  0  0  0
    6.4125   -5.5417    0.0000 O   0  0  0  0  0  0  0  0  0  0  0  0
    4.7125   -6.5167    0.0000 C   0  0  0  0  0  0  0  0  0  0  0  0
    6.2375   -8.7542    0.0000 C   0  0  0  0  0  0  0  0  0  0  0  0
    5.6875   -7.7875    0.0000 O   0  0  0  0  0  0  0  0  0  0  0  0
    7.2375   -5.5417    0.0000 C   0  0  0  0  0  0  0  0  0  0  0  0
    7.1625   -8.7625    0.0000 C   0  0  0  0  0  0  0  0  0  0  0  0
    7.6000   -7.9500    0.0000 C   0  0  0  0  0  0  0  0  0  0  0  0
    4.7125   -7.5292    0.0000 C   0  0  0  0  0  0  0  0  0  0  0  0
    7.0417   -6.6750    0.0000 O   0  0  0  0  0  0  0  0  0  0  0  0
    6.4792   -6.7667    0.0000 O   0  0  0  0  0  0  0  0  0  0  0  0
    9.3375   -8.5292    0.0000 C   0  0  0  0  0  0  0  0  0  0  0  0
    5.8125   -9.4625    0.0000 O   0  0  0  0  0  0  0  0  0  0  0  0
    9.4250   -5.7125    0.0000 C   0  0  0  0  0  0  0  0  0  0  0  0
    6.8792   -7.5375    0.0000 O   0  0  0  0  0  0  0  0  0  0  0  0
    6.0792   -7.7500    0.0000 C   0  0  0  0  0  0  0  0  0  0  0  0
   10.1375   -8.3167    0.0000 C   0  0  0  0  0  0  0  0  0  0  0  0
    3.9125   -5.8917    0.0000 C   0  0  0  0  0  0  0  0  0  0  0  0
    5.8625   -6.9500    0.0000 O   0  0  0  0  0  0  0  0  0  0  0  0
    3.8375   -8.0375    0.0000 C   0  0  0  0  0  0  0  0  0  0  0  0
    7.4625   -4.7500    0.0000 C   0  0  0  0  0  0  0  0  0  0  0  0
   10.3417   -7.5250    0.0000 C   0  0  0  0  0  0  0  0  0  0  0  0
   10.7042   -8.9042    0.0000 C   0  0  0  0  0  0  0  0  0  0  0  0
    5.0625   -6.7292    0.0000 C   0  0  0  0  0  0  0  0  0  0  0  0
    2.9625   -7.5292    0.0000 C   0  0  0  0  0  0  0  0  0  0  0  0
   -0.5375   -7.5292    0.0000 C   0  0  0  0  0  0  0  0  0  0  0  0
    0.3375   -8.0375    0.0000 C   0  0  0  0  0  0  0  0  0  0  0  0
    2.0875   -8.0375    0.0000 C   0  0  0  0  0  0  0  0  0  0  0  0
    1.2125   -7.5292    0.0000 C   0  0  0  0  0  0  0  0  0  0  0  0
   -1.4125   -8.0375    0.0000 C   0  0  0  0  0  0  0  0  0  0  0  0
   11.1375   -7.3125    0.0000 C   0  0  0  0  0  0  0  0  0  0  0  0
   11.5125   -8.6917    0.0000 C   0  0  0  0  0  0  0  0  0  0  0  0
   11.7250   -7.9000    0.0000 C   0  0  0  0  0  0  0  0  0  0  0  0
  2  1  1  0
  3  5  1  0
  4  1  1  0
  5  9  1  0
  6  3  1  0
  7 10  1  0
  8  7  1  0
  9  2  1  0
 10 11  1  0
 11  4  1  0
 12  8  1  0
 13  2  2  0
 14  3  2  0
  4 15  1  0
 16  7  2  0
 17  1  1  0
 11 18  1  0
 19 18  1  0
 20 15  1  0
  6 21  1  0
 22 19  1  0
 12 23  1  0
  9 24  1  0
 25 20  2  0
 26 20  1  0
 27 22  1  0
 28 23  1  0
 29 30  1  0
 30 32  1  0
 31 28  1  0
 32 31  1  0
 33 29  1  0
 34 25  1  0
 35 26  2  0
 36 35  1  0
 36 34  2  0
 12  6  1  0
M  END
>  <Classification>  (637) 
0

>  <pchembl>  (637) 
4.71

>  <InChI_steorem>  (637) 
InChI=1S/C28H43NO7/c1-6-7-8-9-13-16-24-20(2)28(32)35-21(3)27(31)29(4)23(17-22-14-11-10-12-15-22)25(34-19-33-5)18-26(30)36-24/h10-12,14-15,20-21,23-25H,6-9,13,16-19H2,1-5H3

>  <source>  (637) 
ChEMBL25

>  <source_id>  (637) 
25

>  <optional_reference>  (637) 
10.1016/s0960-894x(99)00243-7

>  <optional_origin>  (637) 
None

>  <target>  (637) 
MDR1

$$$$

     RDKit          2D

 37 38  0  0  0  0  0  0  0  0999 V2000
    8.7667   -6.2250    0.0000 N   0  0  0  0  0  0  0  0  0  0  0  0
    7.6375   -6.2375    0.0000 C   0  0  0  0  0  0  0  0  0  0  0  0
    5.7000   -6.2625    0.0000 C   0  0  0  0  0  0  0  0  0  0  0  0
    7.2375   -5.5417    0.0000 C   0  0  0  0  0  0  0  0  0  0  0  0
    6.4125   -5.5417    0.0000 O   0  0  0  0  0  0  0  0  0  0  0  0
    8.7542   -7.9500    0.0000 C   0  0  0  0  0  0  0  0  0  0  0  0
    4.7125   -6.5167    0.0000 C   0  0  0  0  0  0  0  0  0  0  0  0
    6.2375   -8.7542    0.0000 C   0  0  0  0  0  0  0  0  0  0  0  0
    5.6875   -7.7875    0.0000 O   0  0  0  0  0  0  0  0  0  0  0  0
    7.1625   -8.7625    0.0000 C   0  0  0  0  0  0  0  0  0  0  0  0
    7.6000   -7.9500    0.0000 C   0  0  0  0  0  0  0  0  0  0  0  0
    4.7125   -7.5292    0.0000 C   0  0  0  0  0  0  0  0  0  0  0  0
    7.2917   -6.7042    0.0000 O   0  0  0  0  0  0  0  0  0  0  0  0
    6.5667   -6.7625    0.0000 O   0  0  0  0  0  0  0  0  0  0  0  0
    9.3375   -8.5292    0.0000 C   0  0  0  0  0  0  0  0  0  0  0  0
    5.8125   -9.4667    0.0000 O   0  0  0  0  0  0  0  0  0  0  0  0
    9.4250   -5.7167    0.0000 C   0  0  0  0  0  0  0  0  0  0  0  0
    6.8792   -7.5375    0.0000 O   0  0  0  0  0  0  0  0  0  0  0  0
    6.0792   -7.7500    0.0000 C   0  0  0  0  0  0  0  0  0  0  0  0
   10.1375   -8.3167    0.0000 C   0  0  0  0  0  0  0  0  0  0  0  0
    7.4625   -4.7500    0.0000 C   0  0  0  0  0  0  0  0  0  0  0  0
    7.9500   -5.1292    0.0000 C   0  0  0  0  0  0  0  0  0  0  0  0
    3.9125   -5.8917    0.0000 C   0  0  0  0  0  0  0  0  0  0  0  0
    5.8625   -6.9500    0.0000 O   0  0  0  0  0  0  0  0  0  0  0  0
    3.8375   -8.0375    0.0000 C   0  0  0  0  0  0  0  0  0  0  0  0
   10.7042   -8.9042    0.0000 C   0  0  0  0  0  0  0  0  0  0  0  0
   10.3417   -7.5292    0.0000 C   0  0  0  0  0  0  0  0  0  0  0  0
    5.0625   -6.7292    0.0000 C   0  0  0  0  0  0  0  0  0  0  0  0
    2.9625   -7.5292    0.0000 C   0  0  0  0  0  0  0  0  0  0  0  0
   -0.5375   -7.5292    0.0000 C   0  0  0  0  0  0  0  0  0  0  0  0
    0.3375   -8.0375    0.0000 C   0  0  0  0  0  0  0  0  0  0  0  0
    1.2125   -7.5292    0.0000 C   0  0  0  0  0  0  0  0  0  0  0  0
    2.0875   -8.0375    0.0000 C   0  0  0  0  0  0  0  0  0  0  0  0
   -1.4125   -8.0375    0.0000 C   0  0  0  0  0  0  0  0  0  0  0  0
   11.5125   -8.6917    0.0000 C   0  0  0  0  0  0  0  0  0  0  0  0
   11.1375   -7.3125    0.0000 C   0  0  0  0  0  0  0  0  0  0  0  0
   11.7250   -7.9000    0.0000 C   0  0  0  0  0  0  0  0  0  0  0  0
  2  1  1  0
  3  5  1  0
  4  2  1  0
  5  4  1  0
  6  1  1  0
  7  3  1  0
  8 10  1  0
  9  8  1  0
 10 11  1  0
 11  6  1  0
 12  9  1  0
 13  2  2  0
 14  3  2  0
  6 15  1  0
 16  8  2  0
 17  1  1  0
 11 18  1  0
 19 18  1  0
 20 15  1  0
  4 21  1  0
 22  4  1  0
  7 23  1  0
 24 19  1  0
 12 25  1  0
 26 20  2  0
 27 20  1  0
 28 24  1  0
 29 25  1  0
 30 31  1  0
 31 32  1  0
 32 33  1  0
 33 29  1  0
 34 30  1  0
 35 26  1  0
 36 27  2  0
 37 36  1  0
 37 35  2  0
 12  7  1  0
M  END
>  <Classification>  (638) 
0

>  <pchembl>  (638) 
4.7

>  <InChI_steorem>  (638) 
InChI=1S/C29H45NO7/c1-7-8-9-10-14-17-24-21(2)27(32)37-29(3,4)28(33)30(5)23(18-22-15-12-11-13-16-22)25(35-20-34-6)19-26(31)36-24/h11-13,15-16,21,23-25H,7-10,14,17-20H2,1-6H3

>  <source>  (638) 
ChEMBL25

>  <source_id>  (638) 
25

>  <optional_reference>  (638) 
10.1016/s0960-894x(99)00243-7

>  <optional_origin>  (638) 
None

>  <target>  (638) 
MDR1

$$$$

     RDKit          2D

 37 38  0  0  0  0  0  0  0  0999 V2000
    8.7667   -6.5250    0.0000 N   0  0  0  0  0  0  0  0  0  0  0  0
    7.9167   -6.5167    0.0000 C   0  0  0  0  0  0  0  0  0  0  0  0
    8.7542   -8.2500    0.0000 C   0  0  0  0  0  0  0  0  0  0  0  0
    7.2375   -5.8417    0.0000 C   0  0  0  0  0  0  0  0  0  0  0  0
    6.4125   -5.8417    0.0000 O   0  0  0  0  0  0  0  0  0  0  0  0
    6.0417   -6.5500    0.0000 C   0  0  0  0  0  0  0  0  0  0  0  0
    6.2375   -9.0542    0.0000 C   0  0  0  0  0  0  0  0  0  0  0  0
    7.1625   -9.0625    0.0000 C   0  0  0  0  0  0  0  0  0  0  0  0
    7.6000   -8.2500    0.0000 C   0  0  0  0  0  0  0  0  0  0  0  0
    5.6875   -8.0875    0.0000 O   0  0  0  0  0  0  0  0  0  0  0  0
    4.7125   -6.8167    0.0000 C   0  0  0  0  0  0  0  0  0  0  0  0
    7.3875   -6.8917    0.0000 O   0  0  0  0  0  0  0  0  0  0  0  0
    9.3375   -8.8292    0.0000 C   0  0  0  0  0  0  0  0  0  0  0  0
    4.7125   -7.8292    0.0000 C   0  0  0  0  0  0  0  0  0  0  0  0
    5.8125   -9.7625    0.0000 O   0  0  0  0  0  0  0  0  0  0  0  0
    6.5667   -7.0625    0.0000 O   0  0  0  0  0  0  0  0  0  0  0  0
    7.4625   -5.0500    0.0000 C   0  0  0  0  0  0  0  0  0  0  0  0
    9.4250   -6.0125    0.0000 C   0  0  0  0  0  0  0  0  0  0  0  0
    6.8792   -7.8375    0.0000 O   0  0  0  0  0  0  0  0  0  0  0  0
    6.0792   -8.0500    0.0000 C   0  0  0  0  0  0  0  0  0  0  0  0
   10.1375   -8.6167    0.0000 C   0  0  0  0  0  0  0  0  0  0  0  0
    5.8625   -7.2500    0.0000 O   0  0  0  0  0  0  0  0  0  0  0  0
    3.8375   -8.3375    0.0000 C   0  0  0  0  0  0  0  0  0  0  0  0
    8.2625   -4.8500    0.0000 C   0  0  0  0  0  0  0  0  0  0  0  0
    6.8917   -4.4417    0.0000 C   0  0  0  0  0  0  0  0  0  0  0  0
   10.7042   -9.2042    0.0000 C   0  0  0  0  0  0  0  0  0  0  0  0
   10.3417   -7.8250    0.0000 C   0  0  0  0  0  0  0  0  0  0  0  0
    5.0625   -7.0292    0.0000 C   0  0  0  0  0  0  0  0  0  0  0  0
    2.9625   -7.8292    0.0000 C   0  0  0  0  0  0  0  0  0  0  0  0
   -0.5375   -7.8292    0.0000 C   0  0  0  0  0  0  0  0  0  0  0  0
    0.3375   -8.3375    0.0000 C   0  0  0  0  0  0  0  0  0  0  0  0
    2.0875   -8.3375    0.0000 C   0  0  0  0  0  0  0  0  0  0  0  0
    1.2125   -7.8292    0.0000 C   0  0  0  0  0  0  0  0  0  0  0  0
   -1.4125   -8.3375    0.0000 C   0  0  0  0  0  0  0  0  0  0  0  0
   11.5125   -8.9917    0.0000 C   0  0  0  0  0  0  0  0  0  0  0  0
   11.1375   -7.6125    0.0000 C   0  0  0  0  0  0  0  0  0  0  0  0
   11.7250   -8.2000    0.0000 C   0  0  0  0  0  0  0  0  0  0  0  0
  2  1  1  0
  3  1  1  0
  4  2  1  0
  5  4  1  0
  6  5  1  0
  7  8  1  0
  8  9  1  0
  9  3  1  0
 10  7  1  0
 11  6  1  0
 12  2  2  0
  3 13  1  0
 14 10  1  0
 15  7  2  0
 16  6  2  0
  4 17  1  0
 18  1  1  0
  9 19  1  0
 20 19  1  0
 21 13  1  0
 22 20  1  0
 14 23  1  0
 24 17  1  0
 25 17  1  0
 26 21  2  0
 27 21  1  0
 28 22  1  0
 29 23  1  0
 30 31  1  0
 31 33  1  0
 32 29  1  0
 33 32  1  0
 34 30  1  0
 35 26  1  0
 36 27  2  0
 37 36  1  0
 37 35  2  0
 14 11  1  0
M  END
>  <Classification>  (639) 
0

>  <pchembl>  (639) 
4.46

>  <InChI_steorem>  (639) 
InChI=1S/C29H45NO7/c1-6-7-8-9-13-16-23-18-26(31)37-28(21(2)3)29(33)30(4)24(17-22-14-11-10-12-15-22)25(35-20-34-5)19-27(32)36-23/h10-12,14-15,21,23-25,28H,6-9,13,16-20H2,1-5H3

>  <source>  (639) 
ChEMBL25

>  <source_id>  (639) 
25

>  <optional_reference>  (639) 
10.1016/s0960-894x(99)00243-7

>  <optional_origin>  (639) 
None

>  <target>  (639) 
MDR1

$$$$

     RDKit          2D

 38 39  0  0  0  0  0  0  0  0999 V2000
    8.7667   -6.5167    0.0000 N   0  0  0  0  0  0  0  0  0  0  0  0
    7.7000   -6.4542    0.0000 C   0  0  0  0  0  0  0  0  0  0  0  0
    6.4125   -5.8375    0.0000 O   0  0  0  0  0  0  0  0  0  0  0  0
    5.7000   -6.5542    0.0000 C   0  0  0  0  0  0  0  0  0  0  0  0
    7.2375   -5.8375    0.0000 C   0  0  0  0  0  0  0  0  0  0  0  0
    8.7542   -8.2417    0.0000 C   0  0  0  0  0  0  0  0  0  0  0  0
    4.7125   -6.8125    0.0000 C   0  0  0  0  0  0  0  0  0  0  0  0
    6.2375   -9.0500    0.0000 C   0  0  0  0  0  0  0  0  0  0  0  0
    5.6875   -8.0792    0.0000 O   0  0  0  0  0  0  0  0  0  0  0  0
    7.1625   -9.0542    0.0000 C   0  0  0  0  0  0  0  0  0  0  0  0
    7.6000   -8.2417    0.0000 C   0  0  0  0  0  0  0  0  0  0  0  0
    4.7125   -7.8250    0.0000 C   0  0  0  0  0  0  0  0  0  0  0  0
    7.2917   -7.0500    0.0000 O   0  0  0  0  0  0  0  0  0  0  0  0
    6.5667   -7.0542    0.0000 O   0  0  0  0  0  0  0  0  0  0  0  0
    9.3375   -8.8250    0.0000 C   0  0  0  0  0  0  0  0  0  0  0  0
    5.8125   -9.7625    0.0000 O   0  0  0  0  0  0  0  0  0  0  0  0
    7.4625   -5.0417    0.0000 C   0  0  0  0  0  0  0  0  0  0  0  0
    9.4250   -6.0125    0.0000 C   0  0  0  0  0  0  0  0  0  0  0  0
    6.8792   -7.8292    0.0000 O   0  0  0  0  0  0  0  0  0  0  0  0
    6.0792   -8.0417    0.0000 C   0  0  0  0  0  0  0  0  0  0  0  0
   10.1375   -8.6125    0.0000 C   0  0  0  0  0  0  0  0  0  0  0  0
    3.9125   -6.1875    0.0000 C   0  0  0  0  0  0  0  0  0  0  0  0
    5.8625   -7.2417    0.0000 O   0  0  0  0  0  0  0  0  0  0  0  0
    3.8375   -8.3292    0.0000 C   0  0  0  0  0  0  0  0  0  0  0  0
    8.2625   -4.8500    0.0000 C   0  0  0  0  0  0  0  0  0  0  0  0
    6.8917   -4.4417    0.0000 C   0  0  0  0  0  0  0  0  0  0  0  0
   10.3417   -7.8250    0.0000 C   0  0  0  0  0  0  0  0  0  0  0  0
   10.7042   -9.2000    0.0000 C   0  0  0  0  0  0  0  0  0  0  0  0
    5.0625   -7.0250    0.0000 C   0  0  0  0  0  0  0  0  0  0  0  0
    2.9625   -7.8250    0.0000 C   0  0  0  0  0  0  0  0  0  0  0  0
   -0.5375   -7.8250    0.0000 C   0  0  0  0  0  0  0  0  0  0  0  0
    0.3375   -8.3292    0.0000 C   0  0  0  0  0  0  0  0  0  0  0  0
    2.0875   -8.3292    0.0000 C   0  0  0  0  0  0  0  0  0  0  0  0
    1.2125   -7.8250    0.0000 C   0  0  0  0  0  0  0  0  0  0  0  0
   -1.4125   -8.3292    0.0000 C   0  0  0  0  0  0  0  0  0  0  0  0
   11.1375   -7.6042    0.0000 C   0  0  0  0  0  0  0  0  0  0  0  0
   11.5125   -8.9875    0.0000 C   0  0  0  0  0  0  0  0  0  0  0  0
   11.7250   -8.1917    0.0000 C   0  0  0  0  0  0  0  0  0  0  0  0
  2  1  1  0
  3  5  1  0
  4  3  1  0
  5  2  1  0
  6  1  1  0
  7  4  1  0
  8 10  1  0
  9  8  1  0
 10 11  1  0
 11  6  1  0
 12  9  1  0
 13  2  2  0
 14  4  2  0
  6 15  1  0
 16  8  2  0
  5 17  1  0
 18  1  1  0
 11 19  1  0
 20 19  1  0
 21 15  1  0
  7 22  1  0
 23 20  1  0
 12 24  1  0
 25 17  1  0
 26 17  1  0
 27 21  2  0
 28 21  1  0
 29 23  1  0
 30 24  1  0
 31 32  1  0
 32 34  1  0
 33 30  1  0
 34 33  1  0
 35 31  1  0
 36 27  1  0
 37 28  2  0
 38 37  1  0
 38 36  2  0
 12  7  1  0
M  END
>  <Classification>  (640) 
0

>  <pchembl>  (640) 
4.38

>  <InChI_steorem>  (640) 
InChI=1S/C30H47NO7/c1-7-8-9-10-14-17-25-22(4)30(34)38-28(21(2)3)29(33)31(5)24(18-23-15-12-11-13-16-23)26(36-20-35-6)19-27(32)37-25/h11-13,15-16,21-22,24-26,28H,7-10,14,17-20H2,1-6H3

>  <source>  (640) 
ChEMBL25

>  <source_id>  (640) 
25

>  <optional_reference>  (640) 
10.1016/s0960-894x(99)00243-7

>  <optional_origin>  (640) 
None

>  <target>  (640) 
MDR1

$$$$

     RDKit          2D

 37 39  0  0  0  0  0  0  0  0999 V2000
    5.1625  -19.1125    0.0000 C   0  0  0  0  0  0  0  0  0  0  0  0
    5.1667  -19.9375    0.0000 C   0  0  0  0  0  0  0  0  0  0  0  0
    6.5917  -19.9375    0.0000 C   0  0  0  0  0  0  0  0  0  0  0  0
    5.8750  -18.7000    0.0000 C   0  0  0  0  0  0  0  0  0  0  0  0
    6.5875  -19.1125    0.0000 C   0  0  0  0  0  0  0  0  0  0  0  0
    5.8750  -20.3500    0.0000 C   0  0  0  0  0  0  0  0  0  0  0  0
    5.1625  -20.7625    0.0000 O   0  0  0  0  0  0  0  0  0  0  0  0
    4.4500  -18.7000    0.0000 C   0  0  0  0  0  0  0  0  0  0  0  0
    6.5875  -20.7625    0.0000 C   0  0  0  0  0  0  0  0  0  0  0  0
    3.7417  -19.1125    0.0000 C   0  0  0  0  0  0  0  0  0  0  0  0
    4.4500  -20.3500    0.0000 C   0  0  0  0  0  0  0  0  0  0  0  0
    5.1750  -16.9000    0.0000 C   0  0  0  0  0  0  0  0  0  0  0  0
    3.7417  -19.9375    0.0000 C   0  0  0  0  0  0  0  0  0  0  0  0
    5.8667  -17.8750    0.0000 O   0  0  0  0  0  0  0  0  0  0  0  0
    4.4500  -17.8750    0.0000 O   0  0  0  0  0  0  0  0  0  0  0  0
    5.8875  -21.5750    0.0000 O   0  0  0  0  0  0  0  0  0  0  0  0
    2.9417  -18.9000    0.0000 O   0  0  0  0  0  0  0  0  0  0  0  0
    4.8292  -22.1917    0.0000 C   0  0  0  0  0  0  0  0  0  0  0  0
    3.7375  -17.4625    0.0000 C   0  0  0  0  0  0  0  0  0  0  0  0
    6.5792  -17.4542    0.0000 C   0  0  0  0  0  0  0  0  0  0  0  0
    2.2250  -19.3042    0.0000 C   0  0  0  0  0  0  0  0  0  0  0  0
    7.3042  -18.7000    0.0000 O   0  0  0  0  0  0  0  0  0  0  0  0
    5.6167  -15.6292    0.0000 C   0  0  0  0  0  0  0  0  0  0  0  0
    5.7625  -16.3917    0.0000 O   0  0  0  0  0  0  0  0  0  0  0  0
    3.8667  -16.6417    0.0000 O   0  0  0  0  0  0  0  0  0  0  0  0
    1.5292  -18.8500    0.0000 O   0  0  0  0  0  0  0  0  0  0  0  0
    7.3667  -17.7042    0.0000 O   0  0  0  0  0  0  0  0  0  0  0  0
    4.0625  -21.8875    0.0000 O   0  0  0  0  0  0  0  0  0  0  0  0
    6.3292  -15.2167    0.0000 O   0  0  0  0  0  0  0  0  0  0  0  0
    7.1667  -20.1750    0.0000 C   0  0  0  0  0  0  0  0  0  0  0  0
    7.1667  -21.3417    0.0000 C   0  0  0  0  0  0  0  0  0  0  0  0
    4.4500  -21.1750    0.0000 C   0  0  0  0  0  0  0  0  0  0  0  0
    2.1750  -20.1292    0.0000 C   0  0  0  0  0  0  0  0  0  0  0  0
    2.9667  -17.7625    0.0000 C   0  0  0  0  0  0  0  0  0  0  0  0
    6.4000  -16.6500    0.0000 C   0  0  0  0  0  0  0  0  0  0  0  0
    4.9542  -23.0125    0.0000 C   0  0  0  0  0  0  0  0  0  0  0  0
    4.9000  -15.2167    0.0000 C   0  0  0  0  0  0  0  0  0  0  0  0
  2  1  1  0
  3  5  1  0
  4  1  1  0
  5  4  1  0
  6  2  1  0
  2  7  1  0
  8  1  1  0
  9  7  1  0
 10  8  1  0
 11  2  1  0
  1 12  1  0
 13 10  1  0
  4 14  1  0
  8 15  1  0
  6 16  1  0
 10 17  1  0
 18 16  1  0
 19 15  1  0
 20 14  1  0
 21 17  1  0
 22  5  2  0
 23 24  1  0
 24 12  1  0
 25 19  2  0
 26 21  2  0
 27 20  2  0
 28 18  2  0
 29 23  2  0
  9 30  1  0
  9 31  1  0
 11 32  1  0
 33 21  1  0
 34 19  1  0
 35 20  1  0
 36 18  1  0
 37 23  1  0
  3  6  1  0
 13 11  1  0
  3  9  1  0
M  END
>  <Classification>  (641) 
1

>  <pchembl>  (641) 
5.01

>  <InChI_steorem>  (641) 
InChI=1S/C25H34O12/c1-11-9-17(33-13(3)27)20(34-14(4)28)24(10-32-12(2)26)22(36-16(6)30)19(31)18-21(35-15(5)29)25(11,24)37-23(18,7)8/h11,17-18,20-22H,9-10H2,1-8H3

>  <source>  (641) 
ChEMBL25

>  <source_id>  (641) 
25

>  <optional_reference>  (641) 
10.1021/jm070290v

>  <optional_origin>  (641) 
None

>  <target>  (641) 
MDR1

$$$$

     RDKit          2D

 39 42  0  0  0  0  0  0  0  0999 V2000
    5.0042   -2.2292    0.0000 C   0  0  0  0  0  0  0  0  0  0  0  0
    5.0042   -2.9750    0.0000 C   0  0  0  0  0  0  0  0  0  0  0  0
    6.2917   -2.9750    0.0000 C   0  0  0  0  0  0  0  0  0  0  0  0
    5.6542   -1.8542    0.0000 C   0  0  0  0  0  0  0  0  0  0  0  0
    6.2917   -2.2292    0.0000 C   0  0  0  0  0  0  0  0  0  0  0  0
    5.6542   -3.3500    0.0000 C   0  0  0  0  0  0  0  0  0  0  0  0
    5.0042   -3.7167    0.0000 O   0  0  0  0  0  0  0  0  0  0  0  0
    6.2917   -3.7167    0.0000 C   0  0  0  0  0  0  0  0  0  0  0  0
    4.3667   -1.8542    0.0000 C   0  0  0  0  0  0  0  0  0  0  0  0
    5.6500   -1.1125    0.0000 O   0  0  0  0  0  0  0  0  0  0  0  0
    4.3667   -3.3500    0.0000 C   0  0  0  0  0  0  0  0  0  0  0  0
    3.7167   -2.2292    0.0000 C   0  0  0  0  0  0  0  0  0  0  0  0
    6.2875   -0.7292    0.0000 C   0  0  0  0  0  0  0  0  0  0  0  0
    5.0167   -0.2292    0.0000 C   0  0  0  0  0  0  0  0  0  0  0  0
    3.7167   -2.9750    0.0000 C   0  0  0  0  0  0  0  0  0  0  0  0
    5.6625   -4.4417    0.0000 O   0  0  0  0  0  0  0  0  0  0  0  0
    2.9917   -2.0375    0.0000 O   0  0  0  0  0  0  0  0  0  0  0  0
    4.7042   -5.0125    0.0000 C   0  0  0  0  0  0  0  0  0  0  0  0
    2.3500   -2.4125    0.0000 C   0  0  0  0  0  0  0  0  0  0  0  0
    6.9417   -1.8542    0.0000 O   0  0  0  0  0  0  0  0  0  0  0  0
    5.4167    0.9208    0.0000 C   0  0  0  0  0  0  0  0  0  0  0  0
    6.9375   -1.1042    0.0000 O   0  0  0  0  0  0  0  0  0  0  0  0
    5.5500    0.2333    0.0000 O   0  0  0  0  0  0  0  0  0  0  0  0
    6.7167    0.1000    0.0000 C   0  0  0  0  0  0  0  0  0  0  0  0
    4.0167   -4.7292    0.0000 O   0  0  0  0  0  0  0  0  0  0  0  0
    1.7292   -1.9917    0.0000 O   0  0  0  0  0  0  0  0  0  0  0  0
    6.0667    1.2958    0.0000 O   0  0  0  0  0  0  0  0  0  0  0  0
    4.3667   -1.1125    0.0000 O   0  0  0  0  0  0  0  0  0  0  0  0
    6.8167   -3.1917    0.0000 C   0  0  0  0  0  0  0  0  0  0  0  0
    6.8167   -4.2417    0.0000 C   0  0  0  0  0  0  0  0  0  0  0  0
    4.3667   -4.0917    0.0000 C   0  0  0  0  0  0  0  0  0  0  0  0
    4.8167   -5.7542    0.0000 C   0  0  0  0  0  0  0  0  0  0  0  0
    2.3042   -3.1500    0.0000 C   0  0  0  0  0  0  0  0  0  0  0  0
    4.7667    1.2958    0.0000 C   0  0  0  0  0  0  0  0  0  0  0  0
    7.5417    0.1208    0.0000 C   0  0  0  0  0  0  0  0  0  0  0  0
    6.2917    0.8083    0.0000 C   0  0  0  0  0  0  0  0  0  0  0  0
    6.6792    1.5333    0.0000 C   0  0  0  0  0  0  0  0  0  0  0  0
    7.9417    0.8458    0.0000 C   0  0  0  0  0  0  0  0  0  0  0  0
    7.5042    1.5583    0.0000 C   0  0  0  0  0  0  0  0  0  0  0  0
  2  1  1  0
  3  5  1  0
  4  1  1  0
  5  4  1  0
  6  2  1  0
  2  7  1  0
  8  7  1  0
  9  1  1  0
  4 10  1  0
 11  2  1  0
 12  9  1  0
 13 10  1  0
  1 14  1  0
 15 12  1  0
  6 16  1  0
 12 17  1  0
 18 16  1  0
 19 17  1  0
 20  5  2  0
 21 23  1  0
 22 13  2  0
 23 14  1  0
 24 13  1  0
 25 18  2  0
 26 19  2  0
 27 21  2  0
  9 28  1  0
  8 29  1  0
  8 30  1  0
 11 31  1  0
 32 18  1  0
 33 19  1  0
 34 21  1  0
 35 24  2  0
 36 24  1  0
 37 36  2  0
 38 35  1  0
 39 37  1  0
  3  6  1  0
 15 11  1  0
  3  8  1  0
 38 39  2  0
M  END
>  <Classification>  (642) 
0

>  <pchembl>  (642) 
4.74

>  <InChI_steorem>  (642) 
InChI=1S/C28H34O11/c1-14-12-19(36-16(3)30)22(33)27(13-35-15(2)29)24(38-25(34)18-10-8-7-9-11-18)21(32)20-23(37-17(4)31)28(14,27)39-26(20,5)6/h7-11,14,19-20,22-24,33H,12-13H2,1-6H3

>  <source>  (642) 
ChEMBL25

>  <source_id>  (642) 
25

>  <optional_reference>  (642) 
10.1021/jm070290v

>  <optional_origin>  (642) 
None

>  <target>  (642) 
MDR1

$$$$

     RDKit          2D

 41 44  0  0  0  0  0  0  0  0999 V2000
    5.0292   -2.7292    0.0000 C   0  0  0  0  0  0  0  0  0  0  0  0
    5.0375   -3.5042    0.0000 C   0  0  0  0  0  0  0  0  0  0  0  0
    4.3625   -2.3417    0.0000 C   0  0  0  0  0  0  0  0  0  0  0  0
    5.7000   -3.8917    0.0000 C   0  0  0  0  0  0  0  0  0  0  0  0
    5.0292   -4.2792    0.0000 O   0  0  0  0  0  0  0  0  0  0  0  0
    6.3750   -3.5042    0.0000 C   0  0  0  0  0  0  0  0  0  0  0  0
    5.7000   -2.3417    0.0000 C   0  0  0  0  0  0  0  0  0  0  0  0
    6.3667   -4.2792    0.0000 C   0  0  0  0  0  0  0  0  0  0  0  0
    3.7000   -2.7292    0.0000 C   0  0  0  0  0  0  0  0  0  0  0  0
    4.3625   -3.8917    0.0000 C   0  0  0  0  0  0  0  0  0  0  0  0
    6.3667   -2.7292    0.0000 C   0  0  0  0  0  0  0  0  0  0  0  0
    7.2167   -1.0667    0.0000 C   0  0  0  0  0  0  0  0  0  0  0  0
    6.4042   -1.2292    0.0000 O   0  0  0  0  0  0  0  0  0  0  0  0
    5.0417   -0.6542    0.0000 C   0  0  0  0  0  0  0  0  0  0  0  0
    3.7000   -3.5042    0.0000 C   0  0  0  0  0  0  0  0  0  0  0  0
    4.3625   -1.5667    0.0000 O   0  0  0  0  0  0  0  0  0  0  0  0
    5.7125   -5.0417    0.0000 O   0  0  0  0  0  0  0  0  0  0  0  0
    2.9500   -2.5292    0.0000 O   0  0  0  0  0  0  0  0  0  0  0  0
    3.6875   -1.1792    0.0000 C   0  0  0  0  0  0  0  0  0  0  0  0
    4.7250   -5.6167    0.0000 C   0  0  0  0  0  0  0  0  0  0  0  0
    2.1625   -2.5292    0.0000 C   0  0  0  0  0  0  0  0  0  0  0  0
    5.2375    0.2083    0.0000 C   0  0  0  0  0  0  0  0  0  0  0  0
    7.7625   -1.6875    0.0000 O   0  0  0  0  0  0  0  0  0  0  0  0
    5.3875   -0.2792    0.0000 O   0  0  0  0  0  0  0  0  0  0  0  0
    7.4792   -0.2875    0.0000 C   0  0  0  0  0  0  0  0  0  0  0  0
    1.9250   -1.7292    0.0000 O   0  0  0  0  0  0  0  0  0  0  0  0
    4.0417   -5.1417    0.0000 O   0  0  0  0  0  0  0  0  0  0  0  0
    3.6875   -0.4042    0.0000 O   0  0  0  0  0  0  0  0  0  0  0  0
    5.5875    0.5833    0.0000 O   0  0  0  0  0  0  0  0  0  0  0  0
    6.9125   -4.8292    0.0000 C   0  0  0  0  0  0  0  0  0  0  0  0
    6.9125   -3.7292    0.0000 C   0  0  0  0  0  0  0  0  0  0  0  0
    4.3625   -4.6542    0.0000 C   0  0  0  0  0  0  0  0  0  0  0  0
    1.5875   -3.1292    0.0000 C   0  0  0  0  0  0  0  0  0  0  0  0
    4.6417   -6.4417    0.0000 C   0  0  0  0  0  0  0  0  0  0  0  0
    3.0125   -1.5667    0.0000 C   0  0  0  0  0  0  0  0  0  0  0  0
    4.7417    0.3208    0.0000 C   0  0  0  0  0  0  0  0  0  0  0  0
    8.2917   -0.1292    0.0000 C   0  0  0  0  0  0  0  0  0  0  0  0
    6.9375    0.3250    0.0000 C   0  0  0  0  0  0  0  0  0  0  0  0
    7.2000    1.1083    0.0000 C   0  0  0  0  0  0  0  0  0  0  0  0
    8.5542    0.6500    0.0000 C   0  0  0  0  0  0  0  0  0  0  0  0
    8.0125    1.2708    0.0000 C   0  0  0  0  0  0  0  0  0  0  0  0
  2  1  1  0
  3  1  1  0
  4  2  1  0
  2  5  1  0
  6 11  1  0
  7  1  1  0
  8  5  1  0
  9  3  1  0
 10  2  1  0
 11  7  1  0
 12 13  1  0
  7 13  1  0
  1 14  1  0
 15  9  1  0
  3 16  1  0
  4 17  1  0
  9 18  1  0
 19 16  1  0
 20 17  1  0
 21 18  1  0
 22 24  1  0
 23 12  2  0
 24 14  1  0
 25 12  1  0
 26 21  2  0
 27 20  2  0
 28 19  2  0
 29 22  2  0
  8 30  1  0
  8 31  1  0
 10 32  1  0
 33 21  1  0
 34 20  1  0
 35 19  1  0
 36 22  1  0
 37 25  2  0
 38 25  1  0
 39 38  2  0
 40 37  1  0
 41 39  1  0
  6  4  1  0
 15 10  1  0
  6  8  1  0
 40 41  2  0
M  END
>  <Classification>  (643) 
1

>  <pchembl>  (643) 
5.63

>  <InChI_steorem>  (643) 
InChI=1S/C30H38O11/c1-16-13-23(37-18(3)32)26(39-20(5)34)29(15-36-17(2)31)24(40-27(35)21-11-9-8-10-12-21)14-22-25(38-19(4)33)30(16,29)41-28(22,6)7/h8-12,16,22-26H,13-15H2,1-7H3

>  <source>  (643) 
ChEMBL25

>  <source_id>  (643) 
25

>  <optional_reference>  (643) 
10.1021/jm070290v

>  <optional_origin>  (643) 
None

>  <target>  (643) 
MDR1

$$$$

     RDKit          2D

 42 45  0  0  0  0  0  0  0  0999 V2000
    5.0042   -2.2292    0.0000 C   0  0  0  0  0  0  0  0  0  0  0  0
    5.0042   -2.9750    0.0000 C   0  0  0  0  0  0  0  0  0  0  0  0
    6.2917   -2.9750    0.0000 C   0  0  0  0  0  0  0  0  0  0  0  0
    5.6542   -1.8542    0.0000 C   0  0  0  0  0  0  0  0  0  0  0  0
    4.3667   -1.8542    0.0000 C   0  0  0  0  0  0  0  0  0  0  0  0
    6.2917   -2.2292    0.0000 C   0  0  0  0  0  0  0  0  0  0  0  0
    5.6542   -3.3500    0.0000 C   0  0  0  0  0  0  0  0  0  0  0  0
    5.0042   -3.7167    0.0000 O   0  0  0  0  0  0  0  0  0  0  0  0
    6.2917   -3.7167    0.0000 C   0  0  0  0  0  0  0  0  0  0  0  0
    4.3667   -1.1125    0.0000 O   0  0  0  0  0  0  0  0  0  0  0  0
    3.7167   -2.2292    0.0000 C   0  0  0  0  0  0  0  0  0  0  0  0
    4.3667   -3.3500    0.0000 C   0  0  0  0  0  0  0  0  0  0  0  0
    3.7167   -0.7375    0.0000 C   0  0  0  0  0  0  0  0  0  0  0  0
    5.0167   -0.2292    0.0000 C   0  0  0  0  0  0  0  0  0  0  0  0
    3.7167   -2.9750    0.0000 C   0  0  0  0  0  0  0  0  0  0  0  0
    5.6500   -1.1125    0.0000 O   0  0  0  0  0  0  0  0  0  0  0  0
    5.6625   -4.4417    0.0000 O   0  0  0  0  0  0  0  0  0  0  0  0
    2.9917   -2.0375    0.0000 O   0  0  0  0  0  0  0  0  0  0  0  0
    6.2875   -0.7292    0.0000 C   0  0  0  0  0  0  0  0  0  0  0  0
    4.7042   -5.0125    0.0000 C   0  0  0  0  0  0  0  0  0  0  0  0
    2.3500   -2.4125    0.0000 C   0  0  0  0  0  0  0  0  0  0  0  0
    6.9417   -1.8542    0.0000 O   0  0  0  0  0  0  0  0  0  0  0  0
    5.4167    0.9208    0.0000 C   0  0  0  0  0  0  0  0  0  0  0  0
    3.0667   -1.1125    0.0000 O   0  0  0  0  0  0  0  0  0  0  0  0
    5.5500    0.2333    0.0000 O   0  0  0  0  0  0  0  0  0  0  0  0
    3.7167    0.0083    0.0000 C   0  0  0  0  0  0  0  0  0  0  0  0
    1.7292   -1.9917    0.0000 O   0  0  0  0  0  0  0  0  0  0  0  0
    4.0167   -4.7292    0.0000 O   0  0  0  0  0  0  0  0  0  0  0  0
    6.9375   -1.1042    0.0000 O   0  0  0  0  0  0  0  0  0  0  0  0
    6.0667    1.2958    0.0000 O   0  0  0  0  0  0  0  0  0  0  0  0
    6.8167   -4.2417    0.0000 C   0  0  0  0  0  0  0  0  0  0  0  0
    6.8167   -3.1917    0.0000 C   0  0  0  0  0  0  0  0  0  0  0  0
    4.3667   -4.0917    0.0000 C   0  0  0  0  0  0  0  0  0  0  0  0
    4.8167   -5.7542    0.0000 C   0  0  0  0  0  0  0  0  0  0  0  0
    2.3042   -3.1500    0.0000 C   0  0  0  0  0  0  0  0  0  0  0  0
    6.2792    0.0208    0.0000 C   0  0  0  0  0  0  0  0  0  0  0  0
    4.7667    1.2958    0.0000 C   0  0  0  0  0  0  0  0  0  0  0  0
    4.3667    0.3833    0.0000 C   0  0  0  0  0  0  0  0  0  0  0  0
    3.0750    0.3750    0.0000 C   0  0  0  0  0  0  0  0  0  0  0  0
    3.0667    1.1208    0.0000 C   0  0  0  0  0  0  0  0  0  0  0  0
    4.3667    1.1250    0.0000 C   0  0  0  0  0  0  0  0  0  0  0  0
    3.7167    1.4958    0.0000 C   0  0  0  0  0  0  0  0  0  0  0  0
  2  1  1  0
  3  6  1  0
  4  1  1  0
  5  1  1  0
  6  4  1  0
  7  2  1  0
  2  8  1  0
  9  8  1  0
  5 10  1  0
 11  5  1  0
 12  2  1  0
 13 10  1  0
  1 14  1  0
 15 11  1  0
  4 16  1  0
  7 17  1  0
 11 18  1  0
 19 16  1  0
 20 17  1  0
 21 18  1  0
 22  6  2  0
 23 25  1  0
 24 13  2  0
 25 14  1  0
 26 13  1  0
 27 21  2  0
 28 20  2  0
 29 19  2  0
 30 23  2  0
  9 31  1  0
  9 32  1  0
 12 33  1  0
 34 20  1  0
 35 21  1  0
 36 19  1  0
 37 23  1  0
 38 26  2  0
 39 26  1  0
 40 39  2  0
 41 38  1  0
 42 40  1  0
  3  7  1  0
 15 12  1  0
  3  9  1  0
 41 42  2  0
M  END
>  <Classification>  (644) 
1

>  <pchembl>  (644) 
5.24

>  <InChI_steorem>  (644) 
InChI=1S/C30H36O12/c1-15-13-21(38-17(3)32)24(41-27(36)20-11-9-8-10-12-20)29(14-37-16(2)31)26(40-19(5)34)23(35)22-25(39-18(4)33)30(15,29)42-28(22,6)7/h8-12,15,21-22,24-26H,13-14H2,1-7H3

>  <source>  (644) 
ChEMBL25

>  <source_id>  (644) 
25

>  <optional_reference>  (644) 
10.1021/jm070290v

>  <optional_origin>  (644) 
None

>  <target>  (644) 
MDR1

$$$$

     RDKit          2D

 42 45  0  0  0  0  0  0  0  0999 V2000
    5.0042   -2.2292    0.0000 C   0  0  0  0  0  0  0  0  0  0  0  0
    5.0042   -2.9750    0.0000 C   0  0  0  0  0  0  0  0  0  0  0  0
    6.2917   -2.9750    0.0000 C   0  0  0  0  0  0  0  0  0  0  0  0
    5.6542   -1.8542    0.0000 C   0  0  0  0  0  0  0  0  0  0  0  0
    6.2917   -2.2292    0.0000 C   0  0  0  0  0  0  0  0  0  0  0  0
    5.6542   -3.3500    0.0000 C   0  0  0  0  0  0  0  0  0  0  0  0
    5.0042   -3.7167    0.0000 O   0  0  0  0  0  0  0  0  0  0  0  0
    4.3667   -1.8542    0.0000 C   0  0  0  0  0  0  0  0  0  0  0  0
    6.2917   -3.7167    0.0000 C   0  0  0  0  0  0  0  0  0  0  0  0
    5.6500   -1.1125    0.0000 O   0  0  0  0  0  0  0  0  0  0  0  0
    3.7167   -2.2292    0.0000 C   0  0  0  0  0  0  0  0  0  0  0  0
    4.3667   -3.3500    0.0000 C   0  0  0  0  0  0  0  0  0  0  0  0
    6.2875   -0.7292    0.0000 C   0  0  0  0  0  0  0  0  0  0  0  0
    5.0167   -0.2292    0.0000 C   0  0  0  0  0  0  0  0  0  0  0  0
    3.7167   -2.9750    0.0000 C   0  0  0  0  0  0  0  0  0  0  0  0
    4.3667   -1.1125    0.0000 O   0  0  0  0  0  0  0  0  0  0  0  0
    5.6625   -4.4417    0.0000 O   0  0  0  0  0  0  0  0  0  0  0  0
    2.9917   -2.0375    0.0000 O   0  0  0  0  0  0  0  0  0  0  0  0
    3.7167   -0.7375    0.0000 C   0  0  0  0  0  0  0  0  0  0  0  0
    4.7042   -5.0125    0.0000 C   0  0  0  0  0  0  0  0  0  0  0  0
    2.3500   -2.4125    0.0000 C   0  0  0  0  0  0  0  0  0  0  0  0
    6.9417   -1.8542    0.0000 O   0  0  0  0  0  0  0  0  0  0  0  0
    5.4167    0.9208    0.0000 C   0  0  0  0  0  0  0  0  0  0  0  0
    6.9375   -1.1042    0.0000 O   0  0  0  0  0  0  0  0  0  0  0  0
    5.5500    0.2333    0.0000 O   0  0  0  0  0  0  0  0  0  0  0  0
    6.7167    0.1000    0.0000 C   0  0  0  0  0  0  0  0  0  0  0  0
    3.8417    0.0083    0.0000 O   0  0  0  0  0  0  0  0  0  0  0  0
    4.0167   -4.7292    0.0000 O   0  0  0  0  0  0  0  0  0  0  0  0
    1.7292   -1.9917    0.0000 O   0  0  0  0  0  0  0  0  0  0  0  0
    6.0667    1.2958    0.0000 O   0  0  0  0  0  0  0  0  0  0  0  0
    6.8167   -3.1917    0.0000 C   0  0  0  0  0  0  0  0  0  0  0  0
    6.8167   -4.2417    0.0000 C   0  0  0  0  0  0  0  0  0  0  0  0
    4.3667   -4.0917    0.0000 C   0  0  0  0  0  0  0  0  0  0  0  0
    4.8167   -5.7542    0.0000 C   0  0  0  0  0  0  0  0  0  0  0  0
    3.0167   -1.0000    0.0000 C   0  0  0  0  0  0  0  0  0  0  0  0
    2.3042   -3.1500    0.0000 C   0  0  0  0  0  0  0  0  0  0  0  0
    4.7667    1.2958    0.0000 C   0  0  0  0  0  0  0  0  0  0  0  0
    6.2917    0.8083    0.0000 C   0  0  0  0  0  0  0  0  0  0  0  0
    7.5417    0.1208    0.0000 C   0  0  0  0  0  0  0  0  0  0  0  0
    7.9417    0.8458    0.0000 C   0  0  0  0  0  0  0  0  0  0  0  0
    6.6792    1.5333    0.0000 C   0  0  0  0  0  0  0  0  0  0  0  0
    7.5042    1.5583    0.0000 C   0  0  0  0  0  0  0  0  0  0  0  0
  2  1  1  0
  3  5  1  0
  4  1  1  0
  5  4  1  0
  6  2  1  0
  2  7  1  0
  8  1  1  0
  9  7  1  0
  4 10  1  0
 11  8  1  0
 12  2  1  0
 13 10  1  0
  1 14  1  0
 15 11  1  0
  8 16  1  0
  6 17  1  0
 11 18  1  0
 19 16  1  0
 20 17  1  0
 21 18  1  0
 22  5  2  0
 23 25  1  0
 24 13  2  0
 25 14  1  0
 26 13  1  0
 27 19  2  0
 28 20  2  0
 29 21  2  0
 30 23  2  0
  9 31  1  0
  9 32  1  0
 12 33  1  0
 34 20  1  0
 35 19  1  0
 36 21  1  0
 37 23  1  0
 38 26  2  0
 39 26  1  0
 40 39  2  0
 41 38  1  0
 42 40  1  0
  3  6  1  0
 15 12  1  0
  3  9  1  0
 41 42  2  0
M  END
>  <Classification>  (645) 
1

>  <pchembl>  (645) 
5.59

>  <InChI_steorem>  (645) 
InChI=1S/C30H36O12/c1-15-13-21(38-17(3)32)24(39-18(4)33)29(14-37-16(2)31)26(41-27(36)20-11-9-8-10-12-20)23(35)22-25(40-19(5)34)30(15,29)42-28(22,6)7/h8-12,15,21-22,24-26H,13-14H2,1-7H3

>  <source>  (645) 
ChEMBL25

>  <source_id>  (645) 
25

>  <optional_reference>  (645) 
10.1021/jm070290v

>  <optional_origin>  (645) 
None

>  <target>  (645) 
MDR1

$$$$

     RDKit          2D

 41 47  0  0  0  0  0  0  0  0999 V2000
   -3.2917   -1.4272    0.0000 O   0  0  0  0  0  0  0  0  0  0  0  0
   -2.4043   -1.5688    0.0000 O   0  0  0  0  0  0  0  0  0  0  0  0
   -5.0389   -2.6539    0.0000 O   0  0  0  0  0  0  0  0  0  0  0  0
   -2.4454   -4.6028    0.0000 O   0  0  0  0  0  0  0  0  0  0  0  0
   -2.6824   -0.6892    0.0000 O   0  0  0  0  0  0  0  0  0  0  0  0
   -3.5708   -2.7326    0.0000 N   0  0  0  0  0  0  0  0  0  0  0  0
   -2.0022   -3.2443    0.0000 N   0  0  0  0  0  0  0  0  0  0  0  0
   -4.1113   -0.6875    0.0000 N   0  0  0  0  0  0  0  0  0  0  0  0
   -4.1084    1.7875    0.0000 N   0  0  0  0  0  0  0  0  0  0  0  0
   -1.5544    4.2930    0.0000 N   0  0  0  0  0  0  0  0  0  0  0  0
   -2.9571   -2.1813    0.0000 C   0  0  0  0  0  0  0  0  0  0  0  0
   -4.1123   -1.5125    0.0000 C   0  0  0  0  0  0  0  0  0  0  0  0
   -4.2848   -2.3192    0.0000 C   0  0  0  0  0  0  0  0  0  0  0  0
   -2.1728   -2.4372    0.0000 C   0  0  0  0  0  0  0  0  0  0  0  0
   -3.4003   -3.5398    0.0000 C   0  0  0  0  0  0  0  0  0  0  0  0
   -2.6160   -3.7956    0.0000 C   0  0  0  0  0  0  0  0  0  0  0  0
   -4.9327   -1.4252    0.0000 C   0  0  0  0  0  0  0  0  0  0  0  0
   -1.4578   -2.0255    0.0000 C   0  0  0  0  0  0  0  0  0  0  0  0
   -4.0140   -4.0911    0.0000 C   0  0  0  0  0  0  0  0  0  0  0  0
   -1.1818   -3.3316    0.0000 C   0  0  0  0  0  0  0  0  0  0  0  0
   -3.3964   -0.2758    0.0000 C   0  0  0  0  0  0  0  0  0  0  0  0
   -0.8454   -2.5783    0.0000 C   0  0  0  0  0  0  0  0  0  0  0  0
   -3.3954    0.5492    0.0000 C   0  0  0  0  0  0  0  0  0  0  0  0
   -2.6794    1.7858    0.0000 C   0  0  0  0  0  0  0  0  0  0  0  0
   -1.9669    2.1983    0.0000 C   0  0  0  0  0  0  0  0  0  0  0  0
   -1.9669    3.0233    0.0000 C   0  0  0  0  0  0  0  0  0  0  0  0
   -3.3934    2.1992    0.0000 C   0  0  0  0  0  0  0  0  0  0  0  0
   -5.4184   -2.0921    0.0000 C   0  0  0  0  0  0  0  0  0  0  0  0
   -5.2674   -0.6712    0.0000 C   0  0  0  0  0  0  0  0  0  0  0  0
   -2.6804    0.9608    0.0000 C   0  0  0  0  0  0  0  0  0  0  0  0
   -2.6794    3.4358    0.0000 C   0  0  0  0  0  0  0  0  0  0  0  0
   -4.1094    0.9625    0.0000 C   0  0  0  0  0  0  0  0  0  0  0  0
   -3.8435   -4.8982    0.0000 C   0  0  0  0  0  0  0  0  0  0  0  0
   -4.7983   -3.8352    0.0000 C   0  0  0  0  0  0  0  0  0  0  0  0
   -1.2491    3.4358    0.0000 C   0  0  0  0  0  0  0  0  0  0  0  0
   -3.3919    3.0233    0.0000 C   0  0  0  0  0  0  0  0  0  0  0  0
   -1.2491    1.7858    0.0000 C   0  0  0  0  0  0  0  0  0  0  0  0
   -2.3794    4.2930    0.0000 C   0  0  0  0  0  0  0  0  0  0  0  0
   -0.5366    3.0233    0.0000 C   0  0  0  0  0  0  0  0  0  0  0  0
   -0.5366    2.1983    0.0000 C   0  0  0  0  0  0  0  0  0  0  0  0
   -4.8224    2.2009    0.0000 C   0  0  0  0  0  0  0  0  0  0  0  0
  1 11  1  0
  1 12  1  0
 11  2  1  0
  3 13  2  0
  4 16  2  0
  5 21  2  0
  6 11  1  0
  6 13  1  0
  6 15  1  0
  7 14  1  0
  7 16  1  0
  7 20  1  0
 12  8  1  0
  8 21  1  0
  9 27  1  0
  9 32  1  0
  9 41  1  0
 10 35  1  0
 10 38  1  0
 11 14  1  0
 12 13  1  0
 12 17  1  0
 14 18  1  0
 15 16  1  0
 15 19  1  0
 17 28  1  0
 17 29  1  0
 18 22  1  0
 19 33  1  0
 19 34  1  0
 20 22  1  0
 23 21  1  0
 23 30  1  0
 23 32  1  0
 24 25  1  0
 24 27  1  0
 24 30  2  0
 25 26  2  0
 25 37  1  0
 26 31  1  0
 26 35  1  0
 27 36  1  0
 31 36  1  0
 31 38  2  0
 35 39  2  0
 37 40  2  0
 39 40  1  0
M  END
>  <Classification>  (646) 
0

>  <pchembl>  (646) 
4.61

>  <InChI_steorem>  (646) 
InChI=1S/C31H39N5O5/c1-16(2)26-28(38)35-11-7-10-24(35)31(40)36(26)29(39)30(41-31,17(3)4)33-27(37)19-12-21-20-8-6-9-22-25(20)18(14-32-22)13-23(21)34(5)15-19/h6,8-9,12,14,16-17,19,23-24,26,32,40H,7,10-11,13,15H2,1-5H3,(H,33,37)

>  <source>  (646) 
ChEMBL25

>  <source_id>  (646) 
25

>  <optional_reference>  (646) 
10.1124/mol.61.5.964

>  <optional_origin>  (646) 
None

>  <target>  (646) 
MDR1

$$$$

     RDKit          2D

 42 48  0  0  0  0  0  0  0  0999 V2000
   -3.5812   -1.2900    0.0000 O   0  0  0  0  0  0  0  0  0  0  0  0
   -4.4689   -1.4295    0.0000 O   0  0  0  0  0  0  0  0  0  0  0  0
   -1.8370   -2.5208    0.0000 O   0  0  0  0  0  0  0  0  0  0  0  0
   -4.4351   -4.4635    0.0000 O   0  0  0  0  0  0  0  0  0  0  0  0
   -4.1887   -0.5505    0.0000 O   0  0  0  0  0  0  0  0  0  0  0  0
   -3.3052   -2.5960    0.0000 N   0  0  0  0  0  0  0  0  0  0  0  0
   -4.8750   -3.1040    0.0000 N   0  0  0  0  0  0  0  0  0  0  0  0
   -2.7598   -0.5522    0.0000 N   0  0  0  0  0  0  0  0  0  0  0  0
   -4.1858    1.9245    0.0000 N   0  0  0  0  0  0  0  0  0  0  0  0
   -1.6318    4.4299    0.0000 N   0  0  0  0  0  0  0  0  0  0  0  0
   -3.9176   -2.0432    0.0000 C   0  0  0  0  0  0  0  0  0  0  0  0
   -2.7608   -1.3772    0.0000 C   0  0  0  0  0  0  0  0  0  0  0  0
   -2.5902   -2.1844    0.0000 C   0  0  0  0  0  0  0  0  0  0  0  0
   -4.7026   -2.2972    0.0000 C   0  0  0  0  0  0  0  0  0  0  0  0
   -3.4777   -3.4028    0.0000 C   0  0  0  0  0  0  0  0  0  0  0  0
   -4.2626   -3.6568    0.0000 C   0  0  0  0  0  0  0  0  0  0  0  0
   -1.9402   -1.2919    0.0000 C   0  0  0  0  0  0  0  0  0  0  0  0
   -5.4165   -1.8839    0.0000 C   0  0  0  0  0  0  0  0  0  0  0  0
   -5.6956   -3.1893    0.0000 C   0  0  0  0  0  0  0  0  0  0  0  0
   -2.8653   -3.9555    0.0000 C   0  0  0  0  0  0  0  0  0  0  0  0
   -3.4738   -0.1388    0.0000 C   0  0  0  0  0  0  0  0  0  0  0  0
   -6.0303   -2.4352    0.0000 C   0  0  0  0  0  0  0  0  0  0  0  0
   -3.4728    0.6862    0.0000 C   0  0  0  0  0  0  0  0  0  0  0  0
   -2.7568    1.9228    0.0000 C   0  0  0  0  0  0  0  0  0  0  0  0
   -2.0443    2.3353    0.0000 C   0  0  0  0  0  0  0  0  0  0  0  0
   -2.0443    3.1603    0.0000 C   0  0  0  0  0  0  0  0  0  0  0  0
   -3.4708    2.3362    0.0000 C   0  0  0  0  0  0  0  0  0  0  0  0
   -1.6037   -0.5387    0.0000 C   0  0  0  0  0  0  0  0  0  0  0  0
   -1.4561   -1.9600    0.0000 C   0  0  0  0  0  0  0  0  0  0  0  0
   -2.7578    1.0978    0.0000 C   0  0  0  0  0  0  0  0  0  0  0  0
   -2.7568    3.5728    0.0000 C   0  0  0  0  0  0  0  0  0  0  0  0
   -2.0803   -3.7015    0.0000 C   0  0  0  0  0  0  0  0  0  0  0  0
   -4.1868    1.0995    0.0000 C   0  0  0  0  0  0  0  0  0  0  0  0
   -1.3265    3.5728    0.0000 C   0  0  0  0  0  0  0  0  0  0  0  0
   -3.4693    3.1603    0.0000 C   0  0  0  0  0  0  0  0  0  0  0  0
   -1.3265    1.9228    0.0000 C   0  0  0  0  0  0  0  0  0  0  0  0
   -2.4568    4.4299    0.0000 C   0  0  0  0  0  0  0  0  0  0  0  0
   -0.6140    3.1603    0.0000 C   0  0  0  0  0  0  0  0  0  0  0  0
   -0.6140    2.3353    0.0000 C   0  0  0  0  0  0  0  0  0  0  0  0
   -1.4679   -4.2543    0.0000 C   0  0  0  0  0  0  0  0  0  0  0  0
   -1.9078   -2.8948    0.0000 C   0  0  0  0  0  0  0  0  0  0  0  0
   -4.8998    2.3379    0.0000 C   0  0  0  0  0  0  0  0  0  0  0  0
  1 11  1  0
  1 12  1  0
 11  2  1  0
  3 13  2  0
  4 16  2  0
  5 21  2  0
  6 11  1  0
  6 13  1  0
  6 15  1  0
  7 14  1  0
  7 16  1  0
  7 19  1  0
 12  8  1  0
  8 21  1  0
  9 27  1  0
  9 33  1  0
  9 42  1  0
 10 34  1  0
 10 37  1  0
 11 14  1  0
 12 13  1  0
 12 17  1  0
 14 18  1  0
 15 16  1  0
 15 20  1  0
 17 28  1  0
 17 29  1  0
 18 22  1  0
 19 22  1  0
 20 32  1  0
 23 21  1  0
 23 30  1  0
 23 33  1  0
 24 25  1  0
 24 27  1  0
 24 30  2  0
 25 26  2  0
 25 36  1  0
 26 31  1  0
 26 34  1  0
 27 35  1  0
 31 35  1  0
 31 37  2  0
 32 40  1  0
 32 41  1  0
 34 38  2  0
 36 39  2  0
 38 39  1  0
M  END
>  <Classification>  (647) 
1

>  <pchembl>  (647) 
5.19

>  <InChI_steorem>  (647) 
InChI=1S/C32H41N5O5/c1-17(2)12-25-29(39)36-11-7-10-26(36)32(41)37(25)30(40)31(42-32,18(3)4)34-28(38)20-13-22-21-8-6-9-23-27(21)19(15-33-23)14-24(22)35(5)16-20/h6,8-9,13,15,17-18,20,24-26,33,41H,7,10-12,14,16H2,1-5H3,(H,34,38)

>  <source>  (647) 
ChEMBL25

>  <source_id>  (647) 
25

>  <optional_reference>  (647) 
10.1124/mol.61.5.964

>  <optional_origin>  (647) 
None

>  <target>  (647) 
MDR1

$$$$

     RDKit          2D

 46 50  0  0  0  0  0  0  0  0999 V2000
    6.1629    1.1216    0.0000 C   0  0  0  0  0  0  0  0  0  0  0  0
    6.1616    0.2950    0.0000 C   0  0  0  0  0  0  0  0  0  0  0  0
    6.8735   -0.1175    0.0000 C   0  0  0  0  0  0  0  0  0  0  0  0
    7.5912    0.2955    0.0000 C   0  0  0  0  0  0  0  0  0  0  0  0
    7.5884    1.1253    0.0000 C   0  0  0  0  0  0  0  0  0  0  0  0
    6.8717    1.5340    0.0000 C   0  0  0  0  0  0  0  0  0  0  0  0
    8.2998    1.5404    0.0000 C   0  0  0  0  0  0  0  0  0  0  0  0
    9.0171    1.1310    0.0000 O   0  0  0  0  0  0  0  0  0  0  0  0
    8.2967    2.3646    0.0000 O   0  0  0  0  0  0  0  0  0  0  0  0
   10.0425   -3.2923    0.0000 C   0  0  0  0  0  0  0  0  0  0  0  0
    9.2414   -3.1005    0.0000 C   0  0  0  0  0  0  0  0  0  0  0  0
    9.0064   -2.3068    0.0000 O   0  0  0  0  0  0  0  0  0  0  0  0
    8.6755   -3.6982    0.0000 O   0  0  0  0  0  0  0  0  0  0  0  0
    8.3013   -0.1062    0.0000 C   0  0  0  0  0  0  0  0  0  0  0  0
    8.3013   -0.9304    0.0000 C   0  0  0  0  0  0  0  0  0  0  0  0
    9.0145   -1.3382    0.0000 C   0  0  0  0  0  0  0  0  0  0  0  0
    9.0145    0.3102    0.0000 C   0  0  0  0  0  0  0  0  0  0  0  0
    9.7277   -0.1062    0.0000 C   0  0  0  0  0  0  0  0  0  0  0  0
    9.7241   -0.9304    0.0000 C   0  0  0  0  0  0  0  0  0  0  0  0
   10.4298   -1.3432    0.0000 C   0  0  0  0  0  0  0  0  0  0  0  0
   11.1479   -0.9365    0.0000 C   0  0  0  0  0  0  0  0  0  0  0  0
   11.1515   -0.1124    0.0000 C   0  0  0  0  0  0  0  0  0  0  0  0
   10.4369    0.3052    0.0000 C   0  0  0  0  0  0  0  0  0  0  0  0
    9.7160   -1.7503    0.0000 O   0  0  0  0  0  0  0  0  0  0  0  0
    8.2970   -1.7545    0.0000 C   0  0  0  0  0  0  0  0  0  0  0  0
    7.4729   -1.7503    0.0000 C   0  0  0  0  0  0  0  0  0  0  0  0
    8.2927   -2.5788    0.0000 C   0  0  0  0  0  0  0  0  0  0  0  0
    9.7202    0.7180    0.0000 C   0  0  0  0  0  0  0  0  0  0  0  0
   10.4394    1.1293    0.0000 O   0  0  0  0  0  0  0  0  0  0  0  0
   11.1563    1.5393    0.0000 C   0  0  0  0  0  0  0  0  0  0  0  0
   11.1587    2.3634    0.0000 C   0  0  0  0  0  0  0  0  0  0  0  0
   11.8665    1.1251    0.0000 O   0  0  0  0  0  0  0  0  0  0  0  0
   10.4251   -2.1674    0.0000 C   0  0  0  0  0  0  0  0  0  0  0  0
   11.8819    0.3048    0.0000 O   0  0  0  0  0  0  0  0  0  0  0  0
   12.6084   -0.1193    0.0000 C   0  0  0  0  0  0  0  0  0  0  0  0
   13.3389    0.2978    0.0000 C   0  0  0  0  0  0  0  0  0  0  0  0
   12.6044   -0.9605    0.0000 O   0  0  0  0  0  0  0  0  0  0  0  0
    9.9368    1.5337    0.0000 O   0  0  0  0  0  0  0  0  0  0  0  0
    9.9326    2.3749    0.0000 C   0  0  0  0  0  0  0  0  0  0  0  0
   10.6589    2.7991    0.0000 O   0  0  0  0  0  0  0  0  0  0  0  0
    9.2020    2.7918    0.0000 C   0  0  0  0  0  0  0  0  0  0  0  0
   14.0620   -0.1265    0.0000 C   0  0  0  0  0  0  0  0  0  0  0  0
   14.7919    0.2899    0.0000 C   0  0  0  0  0  0  0  0  0  0  0  0
   14.7964    1.1319    0.0000 C   0  0  0  0  0  0  0  0  0  0  0  0
   14.0649    1.5558    0.0000 C   0  0  0  0  0  0  0  0  0  0  0  0
   13.3379    1.1370    0.0000 C   0  0  0  0  0  0  0  0  0  0  0  0
 22 23  1  0
 11 12  1  0
 19 24  1  0
  6  1  2  0
 15 25  1  0
 25 24  1  0
 16 12  1  0
 11 13  2  0
 25 26  1  0
 14 15  1  0
 25 27  1  0
  1  2  1  0
 18 28  1  0
  3  4  1  0
 23 29  1  0
 29 30  1  0
  7  8  1  0
 30 31  1  0
 14 17  1  0
 30 32  2  0
 15 16  1  0
 20 33  1  0
 17  8  1  0
 16 19  1  0
 22 34  1  0
 18 17  1  0
 34 35  1  0
 18 19  1  0
 35 36  1  0
  7  9  2  0
 35 37  2  0
  5  7  1  0
 28 38  1  0
  4  5  2  0
 38 39  1  0
  2  3  2  0
 39 40  2  0
 10 11  1  0
 39 41  1  0
  5  6  1  0
 36 42  2  0
 18 23  1  0
 42 43  1  0
 19 20  1  0
 43 44  2  0
 20 21  1  0
 44 45  1  0
 21 22  1  0
 45 46  2  0
 46 36  1  0
M  END
>  <Classification>  (648) 
1

>  <pchembl>  (648) 
6.2

>  <InChI_steorem>  (648) 
InChI=1S/C35H40O11/c1-20-17-27(44-31(39)24-13-9-7-10-14-24)30(43-23(4)38)34(19-41-21(2)36)28(45-32(40)25-15-11-8-12-16-25)18-26-29(42-22(3)37)35(20,34)46-33(26,5)6/h7-16,20,26-30H,17-19H2,1-6H3

>  <source>  (648) 
ChEMBL25

>  <source_id>  (648) 
25

>  <optional_reference>  (648) 
10.1021/jm070290v

>  <optional_origin>  (648) 
None

>  <target>  (648) 
MDR1

$$$$

     RDKit          2D

 45 52  0  0  0  0  0  0  0  0999 V2000
   -6.1580   -6.5705    0.0000 C   0  0  0  0  0  0  0  0  0  0  0  0
   -6.8725   -6.9830    0.0000 C   0  0  0  0  0  0  0  0  0  0  0  0
   -6.8725   -7.8080    0.0000 C   0  0  0  0  0  0  0  0  0  0  0  0
   -6.1580   -8.2205    0.0000 C   0  0  0  0  0  0  0  0  0  0  0  0
   -5.4435   -7.8080    0.0000 C   0  0  0  0  0  0  0  0  0  0  0  0
   -5.4435   -6.9830    0.0000 C   0  0  0  0  0  0  0  0  0  0  0  0
   -4.6590   -8.0630    0.0000 O   0  0  0  0  0  0  0  0  0  0  0  0
   -4.1740   -7.3955    0.0000 C   0  0  0  0  0  0  0  0  0  0  0  0
   -4.6589   -6.7281    0.0000 O   0  0  0  0  0  0  0  0  0  0  0  0
   -7.5870   -6.5705    0.0000 C   0  0  0  0  0  0  0  0  0  0  0  0
   -8.3015   -6.9830    0.0000 N   0  0  0  0  0  0  0  0  0  0  0  0
   -8.3015   -7.8080    0.0000 C   0  0  0  0  0  0  0  0  0  0  0  0
   -7.5870   -8.2205    0.0000 C   0  0  0  0  0  0  0  0  0  0  0  0
   -7.5870   -5.7455    0.0000 C   0  0  0  0  0  0  0  0  0  0  0  0
   -8.3015   -5.3330    0.0000 C   0  0  0  0  0  0  0  0  0  0  0  0
   -8.3015   -4.5080    0.0000 C   0  0  0  0  0  0  0  0  0  0  0  0
   -9.0159   -4.0955    0.0000 C   0  0  0  0  0  0  0  0  0  0  0  0
   -9.7304   -4.5080    0.0000 C   0  0  0  0  0  0  0  0  0  0  0  0
   -9.7304   -5.3330    0.0000 C   0  0  0  0  0  0  0  0  0  0  0  0
   -9.0160   -5.7455    0.0000 C   0  0  0  0  0  0  0  0  0  0  0  0
   -9.0159   -3.2705    0.0000 O   0  0  0  0  0  0  0  0  0  0  0  0
   -8.3015   -2.8580    0.0000 C   0  0  0  0  0  0  0  0  0  0  0  0
   -7.5870   -3.2705    0.0000 C   0  0  0  0  0  0  0  0  0  0  0  0
   -6.8725   -2.8580    0.0000 C   0  0  0  0  0  0  0  0  0  0  0  0
   -6.8725   -2.0330    0.0000 C   0  0  0  0  0  0  0  0  0  0  0  0
   -7.5870   -1.6205    0.0000 C   0  0  0  0  0  0  0  0  0  0  0  0
   -8.3015   -2.0330    0.0000 C   0  0  0  0  0  0  0  0  0  0  0  0
   -9.0160   -1.6205    0.0000 O   0  0  0  0  0  0  0  0  0  0  0  0
   -9.0160   -0.7955    0.0000 C   0  0  0  0  0  0  0  0  0  0  0  0
   -6.1580   -5.7455    0.0000 O   0  0  0  0  0  0  0  0  0  0  0  0
   -5.0311   -4.9795    0.0000 C   0  0  0  0  0  0  0  0  0  0  0  0
   -4.2882   -5.3385    0.0000 C   0  0  0  0  0  0  0  0  0  0  0  0
   -3.6060   -4.8747    0.0000 C   0  0  0  0  0  0  0  0  0  0  0  0
   -3.6665   -4.0519    0.0000 C   0  0  0  0  0  0  0  0  0  0  0  0
   -4.4093   -3.6929    0.0000 C   0  0  0  0  0  0  0  0  0  0  0  0
   -5.0916   -4.1567    0.0000 C   0  0  0  0  0  0  0  0  0  0  0  0
   -4.4698   -2.8701    0.0000 C   0  0  0  0  0  0  0  0  0  0  0  0
   -3.7875   -2.4063    0.0000 N   0  0  0  0  0  0  0  0  0  0  0  0
   -3.0447   -2.7653    0.0000 C   0  0  0  0  0  0  0  0  0  0  0  0
   -2.9842   -3.5881    0.0000 C   0  0  0  0  0  0  0  0  0  0  0  0
   -6.1580   -3.2705    0.0000 C   0  0  0  0  0  0  0  0  0  0  0  0
   -3.8480   -1.5835    0.0000 C   0  0  0  0  0  0  0  0  0  0  0  0
   -4.2277   -6.1613    0.0000 O   0  0  0  0  0  0  0  0  0  0  0  0
   -3.5133   -6.5738    0.0000 C   0  0  0  0  0  0  0  0  0  0  0  0
   -9.0160   -6.5705    0.0000 C   0  0  0  0  0  0  0  0  0  0  0  0
  1  2  2  0
  1  6  1  0
  3  4  2  0
  4  5  1  0
  6  9  1  0
  6  5  2  0
  5  7  1  0
  7  8  1  0
  8  9  1  0
  2 10  1  0
  2  3  1  0
 13  3  1  0
 10 11  1  0
 11 12  1  0
 12 13  1  0
 10 14  1  0
 14 15  1  0
 15 16  1  0
 15 20  2  0
 16 17  2  0
 17 18  1  0
 18 19  2  0
 19 20  1  0
 17 21  1  0
 21 22  1  0
 22 23  1  0
 22 27  2  0
 23 24  2  0
 24 25  1  0
 25 26  2  0
 26 27  1  0
 27 28  1  0
 28 29  1  0
  1 30  1  0
 30 31  1  0
 31 32  2  0
 31 36  1  0
 32 33  1  0
 33 34  2  0
 35 36  2  0
 40 34  1  0
 34 35  1  0
 35 37  1  0
 37 38  1  0
 38 39  1  0
 39 40  1  0
 24 41  1  0
 37 41  1  0
 38 42  1  0
 32 43  1  0
 43 44  1  0
 11 45  1  0
M  END
>  <Classification>  (649) 
1

>  <pchembl>  (649) 
5.69

>  <InChI_steorem>  (649) 
InChI=1S/C37H38N2O6/c1-38-12-10-24-18-31(41-4)33-20-27(24)28(38)15-23-8-9-30(40-3)32(17-23)44-26-7-5-6-22(14-26)16-29-35-25(11-13-39(29)2)19-34-36(37(35)45-33)43-21-42-34/h5-9,14,17-20,28-29H,10-13,15-16,21H2,1-4H3

>  <source>  (649) 
ChEMBL25

>  <source_id>  (649) 
25

>  <optional_reference>  (649) 
None

>  <optional_origin>  (649) 
None

>  <target>  (649) 
MDR1

$$$$

     RDKit          2D

 47 51  0  0  0  0  0  0  0  0999 V2000
    5.5167   -2.9292    0.0000 C   0  0  0  0  0  0  0  0  0  0  0  0
    5.5292   -3.7542    0.0000 C   0  0  0  0  0  0  0  0  0  0  0  0
    6.9542   -3.7542    0.0000 C   0  0  0  0  0  0  0  0  0  0  0  0
    6.2292   -2.5167    0.0000 C   0  0  0  0  0  0  0  0  0  0  0  0
    4.8042   -2.5292    0.0000 C   0  0  0  0  0  0  0  0  0  0  0  0
    6.9417   -2.9292    0.0000 C   0  0  0  0  0  0  0  0  0  0  0  0
    6.2292   -4.1667    0.0000 C   0  0  0  0  0  0  0  0  0  0  0  0
    5.5167   -4.5792    0.0000 O   0  0  0  0  0  0  0  0  0  0  0  0
    6.9417   -4.5792    0.0000 C   0  0  0  0  0  0  0  0  0  0  0  0
    6.2292   -1.6917    0.0000 O   0  0  0  0  0  0  0  0  0  0  0  0
    4.8042   -1.7042    0.0000 O   0  0  0  0  0  0  0  0  0  0  0  0
    4.1042   -2.9292    0.0000 C   0  0  0  0  0  0  0  0  0  0  0  0
    4.8042   -4.1667    0.0000 C   0  0  0  0  0  0  0  0  0  0  0  0
    4.0917   -1.2917    0.0000 C   0  0  0  0  0  0  0  0  0  0  0  0
    6.9417   -1.2792    0.0000 C   0  0  0  0  0  0  0  0  0  0  0  0
    5.5292   -0.7167    0.0000 C   0  0  0  0  0  0  0  0  0  0  0  0
    4.1042   -3.7542    0.0000 C   0  0  0  0  0  0  0  0  0  0  0  0
    6.2417   -5.3917    0.0000 O   0  0  0  0  0  0  0  0  0  0  0  0
    3.3042   -2.7167    0.0000 O   0  0  0  0  0  0  0  0  0  0  0  0
    5.1917   -6.0125    0.0000 C   0  0  0  0  0  0  0  0  0  0  0  0
    2.5792   -3.1250    0.0000 C   0  0  0  0  0  0  0  0  0  0  0  0
    7.6667   -2.5167    0.0000 O   0  0  0  0  0  0  0  0  0  0  0  0
    5.9792    0.5458    0.0000 C   0  0  0  0  0  0  0  0  0  0  0  0
    3.3792   -1.7042    0.0000 O   0  0  0  0  0  0  0  0  0  0  0  0
    7.6542   -1.6917    0.0000 O   0  0  0  0  0  0  0  0  0  0  0  0
    6.1167   -0.2167    0.0000 O   0  0  0  0  0  0  0  0  0  0  0  0
    4.0917   -0.4667    0.0000 C   0  0  0  0  0  0  0  0  0  0  0  0
    7.4000   -0.3417    0.0000 C   0  0  0  0  0  0  0  0  0  0  0  0
    4.4167   -5.7042    0.0000 O   0  0  0  0  0  0  0  0  0  0  0  0
    1.9000   -2.6667    0.0000 O   0  0  0  0  0  0  0  0  0  0  0  0
    6.6917    0.9583    0.0000 O   0  0  0  0  0  0  0  0  0  0  0  0
    7.5292   -5.1542    0.0000 C   0  0  0  0  0  0  0  0  0  0  0  0
    7.5292   -3.9917    0.0000 C   0  0  0  0  0  0  0  0  0  0  0  0
    4.8042   -4.9917    0.0000 C   0  0  0  0  0  0  0  0  0  0  0  0
    5.3167   -6.8292    0.0000 C   0  0  0  0  0  0  0  0  0  0  0  0
    2.5292   -3.9542    0.0000 C   0  0  0  0  0  0  0  0  0  0  0  0
    5.2542    0.9583    0.0000 C   0  0  0  0  0  0  0  0  0  0  0  0
    6.9875    0.3750    0.0000 C   0  0  0  0  0  0  0  0  0  0  0  0
    8.2250   -0.3375    0.0000 C   0  0  0  0  0  0  0  0  0  0  0  0
    4.8042   -0.0542    0.0000 C   0  0  0  0  0  0  0  0  0  0  0  0
    3.3792   -0.0542    0.0000 C   0  0  0  0  0  0  0  0  0  0  0  0
    8.6375    0.3833    0.0000 C   0  0  0  0  0  0  0  0  0  0  0  0
    4.8042    0.7708    0.0000 C   0  0  0  0  0  0  0  0  0  0  0  0
    3.3792    0.7708    0.0000 C   0  0  0  0  0  0  0  0  0  0  0  0
    7.3917    1.0958    0.0000 C   0  0  0  0  0  0  0  0  0  0  0  0
    8.2167    1.0958    0.0000 C   0  0  0  0  0  0  0  0  0  0  0  0
    4.0917    1.1833    0.0000 C   0  0  0  0  0  0  0  0  0  0  0  0
  2  1  1  0
  3  6  1  0
  4  1  1  0
  5  1  1  0
  6  4  1  0
  7  2  1  0
  2  8  1  0
  9  8  1  0
  4 10  1  0
  5 11  1  0
 12  5  1  0
 13  2  1  0
 14 11  1  0
 15 10  1  0
  1 16  1  0
 17 12  1  0
  7 18  1  0
 12 19  1  0
 20 18  1  0
 21 19  1  0
 22  6  2  0
 23 26  1  0
 24 14  2  0
 25 15  2  0
 26 16  1  0
 27 14  1  0
 28 15  1  0
 29 20  2  0
 30 21  2  0
 31 23  2  0
  9 32  1  0
  9 33  1  0
 13 34  1  0
 35 20  1  0
 36 21  1  0
 37 23  1  0
 38 28  2  0
 39 28  1  0
 40 27  2  0
 41 27  1  0
 42 39  2  0
 43 40  1  0
 44 41  2  0
 45 38  1  0
 46 42  1  0
 47 44  1  0
  3  7  1  0
 13 17  1  0
  3  9  1  0
 43 47  2  0
 45 46  2  0
M  END
>  <Classification>  (650) 
1

>  <pchembl>  (650) 
5.79

>  <InChI_steorem>  (650) 
InChI=1S/C35H38O12/c1-19-17-25(43-21(3)37)28(45-31(40)23-13-9-7-10-14-23)34(18-42-20(2)36)30(46-32(41)24-15-11-8-12-16-24)27(39)26-29(44-22(4)38)35(19,34)47-33(26,5)6/h7-16,19,25-26,28-30H,17-18H2,1-6H3

>  <source>  (650) 
ChEMBL25

>  <source_id>  (650) 
25

>  <optional_reference>  (650) 
10.1021/jm070290v

>  <optional_origin>  (650) 
None

>  <target>  (650) 
MDR1

$$$$

     RDKit          2D

 50 54  0  0  0  0  0  0  0  0999 V2000
    4.8292   -2.7292    0.0000 C   0  0  0  0  0  0  0  0  0  0  0  0
    4.8375   -3.5042    0.0000 C   0  0  0  0  0  0  0  0  0  0  0  0
    6.1750   -3.5042    0.0000 C   0  0  0  0  0  0  0  0  0  0  0  0
    5.5000   -2.3417    0.0000 C   0  0  0  0  0  0  0  0  0  0  0  0
    5.5000   -3.8917    0.0000 C   0  0  0  0  0  0  0  0  0  0  0  0
    6.1667   -2.7292    0.0000 C   0  0  0  0  0  0  0  0  0  0  0  0
    4.8292   -4.2792    0.0000 O   0  0  0  0  0  0  0  0  0  0  0  0
    4.1625   -2.3417    0.0000 C   0  0  0  0  0  0  0  0  0  0  0  0
    6.1667   -4.2792    0.0000 C   0  0  0  0  0  0  0  0  0  0  0  0
    6.2042   -1.2292    0.0000 O   0  0  0  0  0  0  0  0  0  0  0  0
    6.8417   -2.3417    0.0000 O   0  0  0  0  0  0  0  0  0  0  0  0
    3.5000   -2.7292    0.0000 C   0  0  0  0  0  0  0  0  0  0  0  0
    4.1625   -3.8917    0.0000 C   0  0  0  0  0  0  0  0  0  0  0  0
    7.5125   -2.7292    0.0000 C   0  0  0  0  0  0  0  0  0  0  0  0
    7.0167   -1.0667    0.0000 C   0  0  0  0  0  0  0  0  0  0  0  0
    4.8417   -0.6542    0.0000 C   0  0  0  0  0  0  0  0  0  0  0  0
    3.5000   -3.5042    0.0000 C   0  0  0  0  0  0  0  0  0  0  0  0
    4.1625   -1.5667    0.0000 O   0  0  0  0  0  0  0  0  0  0  0  0
    5.5125   -5.0417    0.0000 O   0  0  0  0  0  0  0  0  0  0  0  0
    2.7500   -2.5292    0.0000 O   0  0  0  0  0  0  0  0  0  0  0  0
    4.5250   -5.6167    0.0000 C   0  0  0  0  0  0  0  0  0  0  0  0
    3.4875   -1.1792    0.0000 C   0  0  0  0  0  0  0  0  0  0  0  0
    1.9625   -2.5292    0.0000 C   0  0  0  0  0  0  0  0  0  0  0  0
    5.0375    0.2083    0.0000 C   0  0  0  0  0  0  0  0  0  0  0  0
    7.5125   -3.4917    0.0000 O   0  0  0  0  0  0  0  0  0  0  0  0
    7.5625   -1.6875    0.0000 O   0  0  0  0  0  0  0  0  0  0  0  0
    5.1875   -0.2792    0.0000 O   0  0  0  0  0  0  0  0  0  0  0  0
    7.2792   -0.2875    0.0000 C   0  0  0  0  0  0  0  0  0  0  0  0
    8.2542   -2.5292    0.0000 C   0  0  0  0  0  0  0  0  0  0  0  0
    3.8417   -5.1417    0.0000 O   0  0  0  0  0  0  0  0  0  0  0  0
    1.7250   -1.7292    0.0000 O   0  0  0  0  0  0  0  0  0  0  0  0
    3.4875   -0.4042    0.0000 O   0  0  0  0  0  0  0  0  0  0  0  0
    5.3875    0.5833    0.0000 O   0  0  0  0  0  0  0  0  0  0  0  0
    6.7125   -4.8292    0.0000 C   0  0  0  0  0  0  0  0  0  0  0  0
    6.7125   -3.7292    0.0000 C   0  0  0  0  0  0  0  0  0  0  0  0
    4.1625   -4.6542    0.0000 C   0  0  0  0  0  0  0  0  0  0  0  0
    2.8167   -1.5667    0.0000 C   0  0  0  0  0  0  0  0  0  0  0  0
    1.3875   -3.1292    0.0000 C   0  0  0  0  0  0  0  0  0  0  0  0
    4.4417   -6.4417    0.0000 C   0  0  0  0  0  0  0  0  0  0  0  0
    4.5417    0.3208    0.0000 C   0  0  0  0  0  0  0  0  0  0  0  0
    8.7917   -3.0667    0.0000 C   0  0  0  0  0  0  0  0  0  0  0  0
    8.4417   -1.7875    0.0000 C   0  0  0  0  0  0  0  0  0  0  0  0
    8.0917   -0.1292    0.0000 C   0  0  0  0  0  0  0  0  0  0  0  0
    6.7375    0.3250    0.0000 C   0  0  0  0  0  0  0  0  0  0  0  0
    9.1875   -1.5875    0.0000 C   0  0  0  0  0  0  0  0  0  0  0  0
    8.3542    0.6500    0.0000 C   0  0  0  0  0  0  0  0  0  0  0  0
    7.0000    1.1083    0.0000 C   0  0  0  0  0  0  0  0  0  0  0  0
    9.5375   -2.8667    0.0000 C   0  0  0  0  0  0  0  0  0  0  0  0
    9.7292   -2.1292    0.0000 C   0  0  0  0  0  0  0  0  0  0  0  0
    7.8125    1.2708    0.0000 C   0  0  0  0  0  0  0  0  0  0  0  0
  2  1  1  0
  3  6  1  0
  4  1  1  0
  5  2  1  0
  6  4  1  0
  2  7  1  0
  8  1  1  0
  9  7  1  0
  4 10  1  0
  6 11  1  0
 12  8  1  0
 13  2  1  0
 14 11  1  0
 15 10  1  0
  1 16  1  0
 17 12  1  0
  8 18  1  0
  5 19  1  0
 12 20  1  0
 21 19  1  0
 22 18  1  0
 23 20  1  0
 24 27  1  0
 25 14  2  0
 26 15  2  0
 27 16  1  0
 28 15  1  0
 29 14  1  0
 30 21  2  0
 31 23  2  0
 32 22  2  0
 33 24  2  0
  9 34  1  0
  9 35  1  0
 13 36  1  0
 37 22  1  0
 38 23  1  0
 39 21  1  0
 40 24  1  0
 41 29  2  0
 42 29  1  0
 43 28  2  0
 44 28  1  0
 45 42  2  0
 46 43  1  0
 47 44  2  0
 48 41  1  0
 49 45  1  0
 50 47  1  0
  3  5  1  0
 13 17  1  0
  3  9  1  0
 46 50  2  0
 48 49  2  0
M  END
>  <Classification>  (651) 
1

>  <pchembl>  (651) 
5.77

>  <InChI_steorem>  (651) 
InChI=1S/C37H42O13/c1-20-18-27(45-22(3)39)30(46-23(4)40)36(19-44-21(2)38)32(49-34(43)26-16-12-9-13-17-26)29(48-33(42)25-14-10-8-11-15-25)28-31(47-24(5)41)37(20,36)50-35(28,6)7/h8-17,20,27-32H,18-19H2,1-7H3

>  <source>  (651) 
ChEMBL25

>  <source_id>  (651) 
25

>  <optional_reference>  (651) 
10.1021/jm070290v

>  <optional_origin>  (651) 
None

>  <target>  (651) 
MDR1

$$$$

     RDKit          2D

 59 59  0  0  0  0  0  0  0  0999 V2000
    1.5167   -1.4292    0.0000 N   0  0  0  0  0  0  0  0  0  0  0  0
    3.3042   -3.4917    0.0000 N   0  0  0  0  0  0  0  0  0  0  0  0
    4.3417   -0.2042    0.0000 N   0  0  0  0  0  0  0  0  0  0  0  0
    3.7625   -0.0417    0.0000 C   0  0  0  0  0  0  0  0  0  0  0  0
    3.9000   -3.4917    0.0000 C   0  0  0  0  0  0  0  0  0  0  0  0
    1.6750   -0.2292    0.0000 C   0  0  0  0  0  0  0  0  0  0  0  0
    1.3000   -0.7542    0.0000 C   0  0  0  0  0  0  0  0  0  0  0  0
    1.2167   -1.9417    0.0000 C   0  0  0  0  0  0  0  0  0  0  0  0
    2.4125   -2.9792    0.0000 C   0  0  0  0  0  0  0  0  0  0  0  0
    2.5500   -0.1417    0.0000 O   0  0  0  0  0  0  0  0  0  0  0  0
    2.1125   -2.4667    0.0000 N   0  0  0  0  0  0  0  0  0  0  0  0
    3.2500    0.2583    0.0000 C   0  0  0  0  0  0  0  0  0  0  0  0
    1.5167   -2.4667    0.0000 C   0  0  0  0  0  0  0  0  0  0  0  0
    3.0042   -2.9792    0.0000 C   0  0  0  0  0  0  0  0  0  0  0  0
    4.2000   -4.0167    0.0000 C   0  0  0  0  0  0  0  0  0  0  0  0
    4.5000   -0.7792    0.0000 C   0  0  0  0  0  0  0  0  0  0  0  0
    4.7917   -4.0167    0.0000 N   0  0  0  0  0  0  0  0  0  0  0  0
    5.0792   -0.9292    0.0000 C   0  0  0  0  0  0  0  0  0  0  0  0
    5.3042   -4.3792    0.0000 C   0  0  0  0  0  0  0  0  0  0  0  0
    0.5750   -0.6917    0.0000 C   0  0  0  0  0  0  0  0  0  0  0  0
    5.2292   -1.5167    0.0000 N   0  0  0  0  0  0  0  0  0  0  0  0
    4.2000   -2.9792    0.0000 O   0  0  0  0  0  0  0  0  0  0  0  0
    3.3417   -0.4667    0.0000 O   0  0  0  0  0  0  0  0  0  0  0  0
    1.3625    0.2708    0.0000 O   0  0  0  0  0  0  0  0  0  0  0  0
    2.1125   -3.4917    0.0000 O   0  0  0  0  0  0  0  0  0  0  0  0
    0.6250   -1.9417    0.0000 O   0  0  0  0  0  0  0  0  0  0  0  0
    1.2167   -2.9792    0.0000 C   0  0  0  0  0  0  0  0  0  0  0  0
    5.3750   -0.4292    0.0000 O   0  0  0  0  0  0  0  0  0  0  0  0
    5.3542   -4.9792    0.0000 O   0  0  0  0  0  0  0  0  0  0  0  0
    3.2417    0.8583    0.0000 C   0  0  0  0  0  0  0  0  0  0  0  0
    3.9000   -4.5167    0.0000 C   0  0  0  0  0  0  0  0  0  0  0  0
    2.1125   -1.4292    0.0000 C   0  0  0  0  0  0  0  0  0  0  0  0
    3.0042   -4.0167    0.0000 C   0  0  0  0  0  0  0  0  0  0  0  0
    4.7667    0.2208    0.0000 C   0  0  0  0  0  0  0  0  0  0  0  0
    3.3042   -2.4667    0.0000 C   0  0  0  0  0  0  0  0  0  0  0  0
    4.0750   -1.2042    0.0000 C   0  0  0  0  0  0  0  0  0  0  0  0
    0.2625   -1.2042    0.0000 O   0  0  0  0  0  0  0  0  0  0  0  0
    5.8042   -3.8792    0.0000 C   0  0  0  0  0  0  0  0  0  0  0  0
    5.8125   -1.6667    0.0000 C   0  0  0  0  0  0  0  0  0  0  0  0
    0.6250   -2.9792    0.0000 C   0  0  0  0  0  0  0  0  0  0  0  0
    0.4500   -0.3292    0.0000 C   0  0  0  0  0  0  0  0  0  0  0  0
    0.0750   -0.6292    0.0000 C   0  0  0  0  0  0  0  0  0  0  0  0
    4.2000   -5.0417    0.0000 C   0  0  0  0  0  0  0  0  0  0  0  0
    3.7625    1.1458    0.0000 C   0  0  0  0  0  0  0  0  0  0  0  0
    2.7375    1.1458    0.0000 C   0  0  0  0  0  0  0  0  0  0  0  0
    3.3042   -4.5167    0.0000 C   0  0  0  0  0  0  0  0  0  0  0  0
    4.2250   -1.7792    0.0000 C   0  0  0  0  0  0  0  0  0  0  0  0
    3.9000   -2.4667    0.0000 C   0  0  0  0  0  0  0  0  0  0  0  0
    3.0042   -1.9417    0.0000 C   0  0  0  0  0  0  0  0  0  0  0  0
    3.5000   -1.0417    0.0000 C   0  0  0  0  0  0  0  0  0  0  0  0
    0.3250   -3.4917    0.0000 C   0  0  0  0  0  0  0  0  0  0  0  0
    0.3250   -2.4667    0.0000 C   0  0  0  0  0  0  0  0  0  0  0  0
    3.9000   -5.5542    0.0000 C   0  0  0  0  0  0  0  0  0  0  0  0
    3.7625    1.7458    0.0000 C   0  0  0  0  0  0  0  0  0  0  0  0
    5.9667   -2.2417    0.0000 C   0  0  0  0  0  0  0  0  0  0  0  0
    6.3375   -3.8167    0.0000 C   0  0  0  0  0  0  0  0  0  0  0  0
    6.5500   -2.4042    0.0000 C   0  0  0  0  0  0  0  0  0  0  0  0
    6.7000   -2.9792    0.0000 C   0  0  0  0  0  0  0  0  0  0  0  0
    6.4625   -3.3042    0.0000 C   0  0  0  0  0  0  0  0  0  0  0  0
  2 14  1  0
  3  4  1  0
  4 12  1  0
  5  2  1  0
  6  7  1  0
  7  1  1  0
  8  1  1  0
  9 11  1  0
 10  6  1  0
 11 13  1  0
 12 10  1  0
 13  8  1  0
 14  9  1  0
 15  5  1  0
 16  3  1  0
 17 15  1  0
 18 16  1  0
 19 17  1  0
  7 20  1  0
 21 18  1  0
 22  5  2  0
 23  4  2  0
 24  6  2  0
 25  9  2  0
 26  8  2  0
 13 27  1  0
 28 18  2  0
 29 19  2  0
 12 30  1  0
 15 31  1  0
 32  1  1  0
 33  2  1  0
 34  3  1  0
 14 35  1  0
 16 36  1  0
 37 20  1  0
 38 19  1  0
 39 21  1  0
 40 27  1  0
 41 20  1  0
 42 20  1  0
 43 31  1  0
 44 30  1  0
 30 45  1  0
 31 46  1  0
 47 36  1  0
 48 35  1  0
 49 35  1  0
 50 36  1  0
 51 40  1  0
 52 40  1  0
 53 43  1  0
 54 44  1  0
 55 39  1  0
 56 38  1  0
 57 55  1  0
 58 57  1  0
 59 56  1  0
 59 58  1  0
M  END
>  <Classification>  (652) 
1

>  <pchembl>  (652) 
5.13

>  <InChI_steorem>  (652) 
InChI=1S/C44H80N6O9/c1-16-29(9)33-41(55)48(13)35(28(7)8)39(53)46-31(25-26(3)4)40(54)50(15)37(44(11,12)58)43(57)59-36(30(10)17-2)42(56)49(14)34(27(5)6)38(52)45-24-22-20-18-19-21-23-32(51)47-33/h26-31,33-37,58H,16-25H2,1-15H3,(H,45,52)(H,46,53)(H,47,51)

>  <source>  (652) 
ChEMBL25

>  <source_id>  (652) 
25

>  <optional_reference>  (652) 
10.1021/jm990955w

>  <optional_origin>  (652) 
None

>  <target>  (652) 
MDR1

$$$$

     RDKit          2D

 61 69  0  0  0  0  0  0  0  0999 V2000
    0.1011   -5.6287    0.0000 C   0  0  0  0  0  0  0  0  0  0  0  0
    0.8127   -6.8616    0.0000 C   0  0  0  0  0  0  0  0  0  0  0  0
    1.5243   -6.4548    0.0000 C   0  0  0  0  0  0  0  0  0  0  0  0
    1.5243   -5.6287    0.0000 N   0  0  0  0  0  0  0  0  0  0  0  0
    0.8127   -5.2097    0.0000 C   0  0  0  0  0  0  0  0  0  0  0  0
   -0.6181   -5.2157    0.0000 C   0  0  0  0  0  0  0  0  0  0  0  0
   -1.3309   -5.6328    0.0000 C   0  0  0  0  0  0  0  0  0  0  0  0
    2.2418   -6.8667    0.0000 C   0  0  0  0  0  0  0  0  0  0  0  0
    2.2406   -7.6928    0.0000 C   0  0  0  0  0  0  0  0  0  0  0  0
    2.9563   -6.4567    0.0000 O   0  0  0  0  0  0  0  0  0  0  0  0
    3.6738   -6.8688    0.0000 C   0  0  0  0  0  0  0  0  0  0  0  0
    4.3885   -6.4588    0.0000 C   0  0  0  0  0  0  0  0  0  0  0  0
    3.6726   -7.6947    0.0000 O   0  0  0  0  0  0  0  0  0  0  0  0
    5.1059   -6.8708    0.0000 C   0  0  0  0  0  0  0  0  0  0  0  0
    5.8205   -6.4608    0.0000 C   0  0  0  0  0  0  0  0  0  0  0  0
    6.5729   -6.7986    0.0000 N   0  0  0  0  0  0  0  0  0  0  0  0
    7.1251   -6.1845    0.0000 N   0  0  0  0  0  0  0  0  0  0  0  0
    6.7151   -5.4698    0.0000 N   0  0  0  0  0  0  0  0  0  0  0  0
    5.9065   -5.6403    0.0000 C   0  0  0  0  0  0  0  0  0  0  0  0
    7.0519   -4.7139    0.0000 C   0  0  0  0  0  0  0  0  0  0  0  0
    7.8736   -4.6268    0.0000 C   0  0  0  0  0  0  0  0  0  0  0  0
    8.2105   -3.8749    0.0000 C   0  0  0  0  0  0  0  0  0  0  0  0
    9.0322   -3.7877    0.0000 O   0  0  0  0  0  0  0  0  0  0  0  0
    7.7256   -3.2062    0.0000 O   0  0  0  0  0  0  0  0  0  0  0  0
    9.5170   -4.4565    0.0000 C   0  0  0  0  0  0  0  0  0  0  0  0
   10.3387   -4.3734    0.0000 C   0  0  0  0  0  0  0  0  0  0  0  0
    9.1802   -5.2123    0.0000 C   0  0  0  0  0  0  0  0  0  0  0  0
   10.8239   -5.0459    0.0000 C   0  0  0  0  0  0  0  0  0  0  0  0
   11.6423   -4.9651    0.0000 C   0  0  0  0  0  0  0  0  0  0  0  0
   11.9830   -4.2106    0.0000 C   0  0  0  0  0  0  0  0  0  0  0  0
   11.4992   -3.5400    0.0000 C   0  0  0  0  0  0  0  0  0  0  0  0
   10.6746   -3.6198    0.0000 N   0  0  0  0  0  0  0  0  0  0  0  0
   10.8570   -4.2833    0.0000 C   0  0  0  0  0  0  0  0  0  0  0  0
   11.4814   -4.2870    0.0000 C   0  0  0  0  0  0  0  0  0  0  0  0
   12.8051   -4.1264    0.0000 C   0  0  0  0  0  0  0  0  0  0  0  0
   13.2875   -4.7969    0.0000 C   0  0  0  0  0  0  0  0  0  0  0  0
    8.3597   -5.2954    0.0000 C   0  0  0  0  0  0  0  0  0  0  0  0
    8.0229   -6.0465    0.0000 C   0  0  0  0  0  0  0  0  0  0  0  0
    8.5079   -6.7161    0.0000 N   0  0  0  0  0  0  0  0  0  0  0  0
    9.6666   -5.8747    0.0000 C   0  0  0  0  0  0  0  0  0  0  0  0
    9.3322   -6.6272    0.0000 C   0  0  0  0  0  0  0  0  0  0  0  0
    9.8149   -7.2900    0.0000 C   0  0  0  0  0  0  0  0  0  0  0  0
   10.6321   -7.2018    0.0000 C   0  0  0  0  0  0  0  0  0  0  0  0
   10.9643   -6.4490    0.0000 C   0  0  0  0  0  0  0  0  0  0  0  0
   10.4795   -5.7892    0.0000 C   0  0  0  0  0  0  0  0  0  0  0  0
   11.7855   -6.3569    0.0000 O   0  0  0  0  0  0  0  0  0  0  0  0
   12.2742   -7.0229    0.0000 C   0  0  0  0  0  0  0  0  0  0  0  0
    2.2374   -9.3472    0.0000 N   0  0  0  0  0  0  0  0  0  0  0  0
    2.9544   -8.9289    0.0000 C   0  0  0  0  0  0  0  0  0  0  0  0
    2.9524   -8.1050    0.0000 C   0  0  0  0  0  0  0  0  0  0  0  0
    1.5194   -8.9304    0.0000 C   0  0  0  0  0  0  0  0  0  0  0  0
    1.5232   -8.1053    0.0000 C   0  0  0  0  0  0  0  0  0  0  0  0
    0.8130   -7.6891    0.0000 C   0  0  0  0  0  0  0  0  0  0  0  0
    0.0944   -8.1011    0.0000 C   0  0  0  0  0  0  0  0  0  0  0  0
    0.0945   -8.9293    0.0000 C   0  0  0  0  0  0  0  0  0  0  0  0
    0.8094   -9.3418    0.0000 C   0  0  0  0  0  0  0  0  0  0  0  0
   -0.6188   -7.6848    0.0000 O   0  0  0  0  0  0  0  0  0  0  0  0
   -1.3336   -8.0985    0.0000 C   0  0  0  0  0  0  0  0  0  0  0  0
    0.7155   -5.6247    0.0000 C   0  0  0  0  0  0  0  0  0  0  0  0
    0.7522   -6.2065    0.0000 C   0  0  0  0  0  0  0  0  0  0  0  0
    0.1174   -6.4019    0.0000 C   0  0  0  0  0  0  0  0  0  0  0  0
 12 14  1  0
  6  7  2  0
 26 32  1  0
 28 29  1  0
 29 30  1  0
 30 31  1  0
 31 32  1  0
 14 15  1  0
 32 33  1  0
 15 16  1  0
 33 34  1  0
 29 34  1  0
  1  5  1  0
 30 35  1  0
 35 36  2  0
 61  2  1  0
  3  8  1  0
 27 37  2  0
 16 17  2  0
 37 38  1  0
 17 18  1  0
 38 39  2  0
 39 41  1  0
 40 27  1  0
 18 19  1  0
 19 15  2  0
 40 41  2  0
  3  2  1  0
 41 42  1  0
 18 20  1  0
 42 43  2  0
  8  9  1  0
 43 44  1  0
 20 21  1  0
 44 45  2  0
 45 40  1  0
  3  4  1  0
 44 46  1  0
 21 22  1  0
 46 47  1  0
  9 52  2  0
  8 10  1  0
 51 48  2  0
 22 23  1  0
 48 49  1  0
  4  5  1  0
 49 50  2  0
 50  9  1  0
 22 24  2  0
 10 11  1  0
 51 52  1  0
 25 23  1  0
 52 53  1  0
  1 61  1  0
 53 54  2  0
 25 26  1  0
 54 55  1  0
 11 12  1  0
 55 56  2  0
 56 51  1  0
 25 27  1  0
 54 57  1  0
 26 28  1  0
 57 58  1  0
  1  6  1  0
  4 59  1  0
 11 13  2  0
 59 60  1  0
 60 61  1  0
M  END
>  <Classification>  (653) 
1

>  <pchembl>  (653) 
5.21

>  <InChI_steorem>  (653) 
InChI=1S/C48H55N7O6/c1-5-30-27-53-20-15-32(30)23-43(53)47(37-13-18-49-41-10-8-35(58-3)25-39(37)41)60-45(56)12-7-34-29-55(52-51-34)22-17-46(57)61-48(44-24-33-16-21-54(44)28-31(33)6-2)38-14-19-50-42-11-9-36(59-4)26-40(38)42/h5-6,8-11,13-14,18-19,25-26,29-33,43-44,47-48H,1-2,7,12,15-17,20-24,27-28H2,3-4H3

>  <source>  (653) 
ChEMBL25

>  <source_id>  (653) 
25

>  <optional_reference>  (653) 
10.1016/j.bmcl.2012.04.125

>  <optional_origin>  (653) 
None

>  <target>  (653) 
MDR1

$$$$

     RDKit          2D

 63 71  0  0  0  0  0  0  0  0999 V2000
    7.6367   -1.3142    0.0000 C   0  0  0  0  0  0  0  0  0  0  0  0
    8.4616   -1.2312    0.0000 O   0  0  0  0  0  0  0  0  0  0  0  0
    7.1523   -0.6461    0.0000 O   0  0  0  0  0  0  0  0  0  0  0  0
    8.9460   -1.8992    0.0000 C   0  0  0  0  0  0  0  0  0  0  0  0
    9.7669   -1.8121    0.0000 C   0  0  0  0  0  0  0  0  0  0  0  0
    8.6054   -2.6503    0.0000 C   0  0  0  0  0  0  0  0  0  0  0  0
   10.2515   -2.4840    0.0000 C   0  0  0  0  0  0  0  0  0  0  0  0
   11.0692   -2.4033    0.0000 C   0  0  0  0  0  0  0  0  0  0  0  0
   11.4096   -1.6495    0.0000 C   0  0  0  0  0  0  0  0  0  0  0  0
   10.9263   -0.9796    0.0000 C   0  0  0  0  0  0  0  0  0  0  0  0
   10.1025   -1.0634    0.0000 N   0  0  0  0  0  0  0  0  0  0  0  0
   10.3884   -1.6893    0.0000 C   0  0  0  0  0  0  0  0  0  0  0  0
   10.9375   -1.6842    0.0000 C   0  0  0  0  0  0  0  0  0  0  0  0
   12.2308   -1.5695    0.0000 C   0  0  0  0  0  0  0  0  0  0  0  0
   12.7128   -2.2394    0.0000 C   0  0  0  0  0  0  0  0  0  0  0  0
    7.7857   -2.7333    0.0000 C   0  0  0  0  0  0  0  0  0  0  0  0
    7.4492   -3.4876    0.0000 C   0  0  0  0  0  0  0  0  0  0  0  0
    7.9338   -4.1567    0.0000 N   0  0  0  0  0  0  0  0  0  0  0  0
    9.0914   -3.3161    0.0000 C   0  0  0  0  0  0  0  0  0  0  0  0
    8.7572   -4.0637    0.0000 C   0  0  0  0  0  0  0  0  0  0  0  0
    9.2395   -4.7259    0.0000 C   0  0  0  0  0  0  0  0  0  0  0  0
   10.0558   -4.6418    0.0000 C   0  0  0  0  0  0  0  0  0  0  0  0
   10.3918   -3.8858    0.0000 C   0  0  0  0  0  0  0  0  0  0  0  0
    9.9075   -3.2266    0.0000 C   0  0  0  0  0  0  0  0  0  0  0  0
   11.2122   -3.7979    0.0000 O   0  0  0  0  0  0  0  0  0  0  0  0
   11.7005   -4.4630    0.0000 C   0  0  0  0  0  0  0  0  0  0  0  0
   -1.6233   -3.9077    0.0000 C   0  0  0  0  0  0  0  0  0  0  0  0
   -1.6233   -4.7330    0.0000 C   0  0  0  0  0  0  0  0  0  0  0  0
   -0.9124   -5.1435    0.0000 C   0  0  0  0  0  0  0  0  0  0  0  0
   -0.1974   -4.7330    0.0000 C   0  0  0  0  0  0  0  0  0  0  0  0
   -0.1974   -3.9077    0.0000 N   0  0  0  0  0  0  0  0  0  0  0  0
   -0.9124   -3.4931    0.0000 C   0  0  0  0  0  0  0  0  0  0  0  0
   -2.3418   -3.4992    0.0000 C   0  0  0  0  0  0  0  0  0  0  0  0
   -3.0539   -3.9118    0.0000 C   0  0  0  0  0  0  0  0  0  0  0  0
    0.5153   -5.1486    0.0000 C   0  0  0  0  0  0  0  0  0  0  0  0
    0.5141   -5.9737    0.0000 C   0  0  0  0  0  0  0  0  0  0  0  0
    1.2333   -4.7349    0.0000 O   0  0  0  0  0  0  0  0  0  0  0  0
    1.9459   -5.1506    0.0000 C   0  0  0  0  0  0  0  0  0  0  0  0
    2.6640   -4.7370    0.0000 C   0  0  0  0  0  0  0  0  0  0  0  0
    1.9449   -5.9758    0.0000 O   0  0  0  0  0  0  0  0  0  0  0  0
    3.3766   -5.1527    0.0000 C   0  0  0  0  0  0  0  0  0  0  0  0
    4.0905   -4.7390    0.0000 C   0  0  0  0  0  0  0  0  0  0  0  0
    4.8422   -5.0806    0.0000 N   0  0  0  0  0  0  0  0  0  0  0  0
    5.3979   -4.4669    0.0000 N   0  0  0  0  0  0  0  0  0  0  0  0
    4.9842   -3.7490    0.0000 N   0  0  0  0  0  0  0  0  0  0  0  0
    4.1764   -3.9193    0.0000 C   0  0  0  0  0  0  0  0  0  0  0  0
    5.3207   -2.9979    0.0000 C   0  0  0  0  0  0  0  0  0  0  0  0
    6.1417   -2.9108    0.0000 C   0  0  0  0  0  0  0  0  0  0  0  0
    0.5110   -7.6226    0.0000 N   0  0  0  0  0  0  0  0  0  0  0  0
    1.2313   -7.2086    0.0000 C   0  0  0  0  0  0  0  0  0  0  0  0
    1.2294   -6.3855    0.0000 C   0  0  0  0  0  0  0  0  0  0  0  0
   -0.2022   -7.2102    0.0000 C   0  0  0  0  0  0  0  0  0  0  0  0
   -0.1984   -6.3858    0.0000 C   0  0  0  0  0  0  0  0  0  0  0  0
   -0.9120   -5.9701    0.0000 C   0  0  0  0  0  0  0  0  0  0  0  0
   -1.6258   -6.3816    0.0000 C   0  0  0  0  0  0  0  0  0  0  0  0
   -1.6257   -7.2090    0.0000 C   0  0  0  0  0  0  0  0  0  0  0  0
   -0.9156   -7.6171    0.0000 C   0  0  0  0  0  0  0  0  0  0  0  0
   -2.3425   -5.9658    0.0000 O   0  0  0  0  0  0  0  0  0  0  0  0
   -3.0564   -6.3792    0.0000 C   0  0  0  0  0  0  0  0  0  0  0  0
    6.4781   -2.1556    0.0000 C   0  0  0  0  0  0  0  0  0  0  0  0
    7.2990   -2.0726    0.0000 C   0  0  0  0  0  0  0  0  0  0  0  0
   -1.0053   -3.9077    0.0000 C   0  0  0  0  0  0  0  0  0  0  0  0
   -1.0013   -4.5094    0.0000 C   0  0  0  0  0  0  0  0  0  0  0  0
 27 32  1  0
 28 29  1  0
 30 29  1  0
 30 31  1  0
 31 32  1  0
 27 33  1  0
  4  5  1  0
 33 34  2  0
  6 16  2  0
  1  3  2  0
 30 35  1  0
 16 17  1  0
 35 36  1  0
  5 11  1  0
 35 37  1  0
 17 18  2  0
 37 38  1  0
 18 20  1  0
 38 39  1  0
 19  6  1  0
 38 40  2  0
  7  8  1  0
 39 41  1  0
  8  9  1  0
 41 42  1  0
 42 43  1  0
 19 20  2  0
  9 10  1  0
 20 21  1  0
 10 11  1  0
 43 44  2  0
 44 45  1  0
 45 46  1  0
 46 42  2  0
 21 22  2  0
 45 47  1  0
  4  6  1  0
 47 48  1  0
 36 53  2  0
 22 23  1  0
 52 49  2  0
 11 12  1  0
 49 50  1  0
 23 24  2  0
 50 51  2  0
 51 36  1  0
 24 19  1  0
  5  7  1  0
 52 53  1  0
 23 25  1  0
 53 54  1  0
 12 13  1  0
 54 55  2  0
 25 26  1  0
 55 56  1  0
 27 28  1  0
 56 57  2  0
 57 52  1  0
  8 13  1  0
 55 58  1  0
  1  2  1  0
 58 59  1  0
  9 14  1  0
 48 60  1  0
  4  2  1  0
 60 61  1  0
 61  1  1  0
 14 15  2  0
 31 62  1  0
 62 63  1  0
 28 63  1  0
M  END
>  <Classification>  (654) 
1

>  <pchembl>  (654) 
5.21

>  <InChI_steorem>  (654) 
InChI=1S/C50H59N7O6/c1-5-32-29-55-23-18-34(32)25-45(55)49(39-16-20-51-43-13-11-37(60-3)27-41(39)43)62-47(58)9-7-8-22-57-31-36(53-54-57)10-15-48(59)63-50(46-26-35-19-24-56(46)30-33(35)6-2)40-17-21-52-44-14-12-38(61-4)28-42(40)44/h5-6,11-14,16-17,20-21,27-28,31-35,45-46,49-50H,1-2,7-10,15,18-19,22-26,29-30H2,3-4H3

>  <source>  (654) 
ChEMBL25

>  <source_id>  (654) 
25

>  <optional_reference>  (654) 
10.1016/j.bmcl.2012.04.125

>  <optional_origin>  (654) 
None

>  <target>  (654) 
MDR1

$$$$

     RDKit          2D

 65 73  0  0  0  0  0  0  0  0999 V2000
   -2.8714   -2.8102    0.0000 C   0  0  0  0  0  0  0  0  0  0  0  0
   -2.8714   -3.6354    0.0000 C   0  0  0  0  0  0  0  0  0  0  0  0
   -2.1565   -4.0459    0.0000 C   0  0  0  0  0  0  0  0  0  0  0  0
   -1.4456   -3.6354    0.0000 C   0  0  0  0  0  0  0  0  0  0  0  0
   -1.4456   -2.8102    0.0000 N   0  0  0  0  0  0  0  0  0  0  0  0
   -2.1565   -2.3956    0.0000 C   0  0  0  0  0  0  0  0  0  0  0  0
   -3.5858   -2.4018    0.0000 C   0  0  0  0  0  0  0  0  0  0  0  0
   -4.2979   -2.8143    0.0000 C   0  0  0  0  0  0  0  0  0  0  0  0
   -0.7289   -4.0510    0.0000 C   0  0  0  0  0  0  0  0  0  0  0  0
   -0.7301   -4.8761    0.0000 C   0  0  0  0  0  0  0  0  0  0  0  0
   -0.0151   -3.6373    0.0000 O   0  0  0  0  0  0  0  0  0  0  0  0
    0.7016   -4.0530    0.0000 C   0  0  0  0  0  0  0  0  0  0  0  0
    0.7004   -4.8781    0.0000 O   0  0  0  0  0  0  0  0  0  0  0  0
   -0.7332   -6.5247    0.0000 N   0  0  0  0  0  0  0  0  0  0  0  0
   -0.0171   -6.1109    0.0000 C   0  0  0  0  0  0  0  0  0  0  0  0
   -0.0190   -5.2878    0.0000 C   0  0  0  0  0  0  0  0  0  0  0  0
   -1.4505   -6.1123    0.0000 C   0  0  0  0  0  0  0  0  0  0  0  0
   -1.4467   -5.2881    0.0000 C   0  0  0  0  0  0  0  0  0  0  0  0
   -2.1562   -4.8725    0.0000 C   0  0  0  0  0  0  0  0  0  0  0  0
   -2.8740   -5.2839    0.0000 C   0  0  0  0  0  0  0  0  0  0  0  0
   -2.8739   -6.1113    0.0000 C   0  0  0  0  0  0  0  0  0  0  0  0
   -2.1598   -6.5193    0.0000 C   0  0  0  0  0  0  0  0  0  0  0  0
   -3.5865   -4.8682    0.0000 O   0  0  0  0  0  0  0  0  0  0  0  0
   -4.3004   -5.2815    0.0000 C   0  0  0  0  0  0  0  0  0  0  0  0
    7.8224   -0.2189    0.0000 C   0  0  0  0  0  0  0  0  0  0  0  0
    8.6433   -0.1358    0.0000 O   0  0  0  0  0  0  0  0  0  0  0  0
    7.3380    0.4491    0.0000 O   0  0  0  0  0  0  0  0  0  0  0  0
    9.1276   -0.8038    0.0000 C   0  0  0  0  0  0  0  0  0  0  0  0
    9.9484   -0.7167    0.0000 C   0  0  0  0  0  0  0  0  0  0  0  0
    8.7911   -1.5549    0.0000 C   0  0  0  0  0  0  0  0  0  0  0  0
   10.4331   -1.3887    0.0000 C   0  0  0  0  0  0  0  0  0  0  0  0
   11.2507   -1.3079    0.0000 C   0  0  0  0  0  0  0  0  0  0  0  0
   11.5910   -0.5542    0.0000 C   0  0  0  0  0  0  0  0  0  0  0  0
   11.1076    0.1157    0.0000 C   0  0  0  0  0  0  0  0  0  0  0  0
   10.2839    0.0319    0.0000 N   0  0  0  0  0  0  0  0  0  0  0  0
   10.4823   -0.5982    0.0000 C   0  0  0  0  0  0  0  0  0  0  0  0
   11.1190   -0.5888    0.0000 C   0  0  0  0  0  0  0  0  0  0  0  0
   12.4122   -0.4742    0.0000 C   0  0  0  0  0  0  0  0  0  0  0  0
   12.8940   -1.1440    0.0000 C   0  0  0  0  0  0  0  0  0  0  0  0
    7.9715   -1.6379    0.0000 C   0  0  0  0  0  0  0  0  0  0  0  0
    7.6350   -2.3922    0.0000 C   0  0  0  0  0  0  0  0  0  0  0  0
    8.1195   -3.0611    0.0000 N   0  0  0  0  0  0  0  0  0  0  0  0
    9.2771   -2.2207    0.0000 C   0  0  0  0  0  0  0  0  0  0  0  0
    8.9429   -2.9682    0.0000 C   0  0  0  0  0  0  0  0  0  0  0  0
    9.4252   -3.6304    0.0000 C   0  0  0  0  0  0  0  0  0  0  0  0
   10.2415   -3.5462    0.0000 C   0  0  0  0  0  0  0  0  0  0  0  0
   10.5733   -2.7902    0.0000 C   0  0  0  0  0  0  0  0  0  0  0  0
   10.0891   -2.1311    0.0000 C   0  0  0  0  0  0  0  0  0  0  0  0
   11.3936   -2.7024    0.0000 O   0  0  0  0  0  0  0  0  0  0  0  0
   11.8819   -3.3675    0.0000 C   0  0  0  0  0  0  0  0  0  0  0  0
    2.8460   -3.6414    0.0000 C   0  0  0  0  0  0  0  0  0  0  0  0
    3.5587   -4.0570    0.0000 C   0  0  0  0  0  0  0  0  0  0  0  0
    4.2766   -3.6435    0.0000 C   0  0  0  0  0  0  0  0  0  0  0  0
    5.0281   -3.9850    0.0000 N   0  0  0  0  0  0  0  0  0  0  0  0
    5.5798   -3.3714    0.0000 N   0  0  0  0  0  0  0  0  0  0  0  0
    5.1661   -2.6535    0.0000 N   0  0  0  0  0  0  0  0  0  0  0  0
    4.3584   -2.8239    0.0000 C   0  0  0  0  0  0  0  0  0  0  0  0
    5.5067   -1.9025    0.0000 C   0  0  0  0  0  0  0  0  0  0  0  0
    6.3275   -1.8154    0.0000 C   0  0  0  0  0  0  0  0  0  0  0  0
    6.6640   -1.0603    0.0000 C   0  0  0  0  0  0  0  0  0  0  0  0
    7.4849   -0.9772    0.0000 C   0  0  0  0  0  0  0  0  0  0  0  0
    2.1322   -4.0550    0.0000 C   0  0  0  0  0  0  0  0  0  0  0  0
    1.4155   -3.6394    0.0000 C   0  0  0  0  0  0  0  0  0  0  0  0
   -2.2538   -2.8042    0.0000 C   0  0  0  0  0  0  0  0  0  0  0  0
   -2.2498   -3.3773    0.0000 C   0  0  0  0  0  0  0  0  0  0  0  0
 14 15  2  0
  7  8  2  0
 15 16  1  0
 29 35  1  0
 31 32  1  0
 32 33  1  0
 33 34  1  0
 34 35  1  0
 16 10  2  0
 35 36  1  0
  1  6  1  0
 36 37  1  0
 32 37  1  0
 33 38  1  0
 17 18  2  0
 38 39  2  0
  2  3  1  0
 18 19  1  0
 30 40  2  0
  4  9  1  0
 40 41  1  0
 19 20  2  0
 41 42  2  0
 42 44  1  0
 43 30  1  0
  4  3  1  0
 20 21  1  0
 43 44  2  0
  9 10  1  0
 44 45  1  0
 21 22  2  0
 45 46  2  0
 22 17  1  0
 46 47  1  0
  4  5  1  0
 47 48  2  0
 48 43  1  0
 20 23  1  0
 47 49  1  0
  9 11  1  0
 49 50  1  0
 23 24  1  0
  5  6  1  0
 51 52  1  0
 11 12  1  0
 52 53  1  0
 53 54  1  0
 25 26  1  0
 25 27  2  0
 12 13  2  0
 54 55  2  0
 55 56  1  0
 56 57  1  0
 57 53  2  0
 28 26  1  0
 56 58  1  0
 10 18  1  0
 58 59  1  0
 28 29  1  0
 59 60  1  0
  1  7  1  0
 60 61  1  0
 61 25  1  0
 28 30  1  0
 51 62  1  0
 29 31  1  0
 62 63  1  0
 63 12  1  0
 17 14  1  0
  5 64  1  0
  1  2  1  0
  2 65  1  0
 65 64  1  0
M  END
>  <Classification>  (655) 
1

>  <pchembl>  (655) 
5.34

>  <InChI_steorem>  (655) 
InChI=1S/C52H63N7O6/c1-5-34-31-57-25-20-36(34)27-47(57)51(41-18-22-53-45-16-14-39(62-3)29-43(41)45)64-49(60)12-8-7-11-38-33-59(56-55-38)24-10-9-13-50(61)65-52(48-28-37-21-26-58(48)32-35(37)6-2)42-19-23-54-46-17-15-40(63-4)30-44(42)46/h5-6,14-19,22-23,29-30,33-37,47-48,51-52H,1-2,7-13,20-21,24-28,31-32H2,3-4H3

>  <source>  (655) 
ChEMBL25

>  <source_id>  (655) 
25

>  <optional_reference>  (655) 
10.1016/j.bmcl.2012.04.125

>  <optional_origin>  (655) 
None

>  <target>  (655) 
MDR1

$$$$

     RDKit          2D

 65 73  0  0  0  0  0  0  0  0999 V2000
    8.0040   -0.4616    0.0000 C   0  0  0  0  0  0  0  0  0  0  0  0
    8.8250   -0.3745    0.0000 O   0  0  0  0  0  0  0  0  0  0  0  0
    7.5196    0.2106    0.0000 O   0  0  0  0  0  0  0  0  0  0  0  0
    9.3095   -1.0426    0.0000 C   0  0  0  0  0  0  0  0  0  0  0  0
   10.1304   -0.9595    0.0000 C   0  0  0  0  0  0  0  0  0  0  0  0
    8.9729   -1.7978    0.0000 C   0  0  0  0  0  0  0  0  0  0  0  0
   10.6151   -1.6315    0.0000 C   0  0  0  0  0  0  0  0  0  0  0  0
   11.4328   -1.5467    0.0000 C   0  0  0  0  0  0  0  0  0  0  0  0
   11.7732   -0.7969    0.0000 C   0  0  0  0  0  0  0  0  0  0  0  0
   11.2899   -0.1228    0.0000 C   0  0  0  0  0  0  0  0  0  0  0  0
   10.4659   -0.2067    0.0000 N   0  0  0  0  0  0  0  0  0  0  0  0
   10.6978   -0.8492    0.0000 C   0  0  0  0  0  0  0  0  0  0  0  0
   11.3052   -0.8316    0.0000 C   0  0  0  0  0  0  0  0  0  0  0  0
   12.5986   -0.7128    0.0000 C   0  0  0  0  0  0  0  0  0  0  0  0
   13.0805   -1.3827    0.0000 C   0  0  0  0  0  0  0  0  0  0  0  0
    8.1532   -1.8767    0.0000 C   0  0  0  0  0  0  0  0  0  0  0  0
    7.8166   -2.6311    0.0000 C   0  0  0  0  0  0  0  0  0  0  0  0
    8.3012   -3.3002    0.0000 N   0  0  0  0  0  0  0  0  0  0  0  0
    9.4589   -2.4596    0.0000 C   0  0  0  0  0  0  0  0  0  0  0  0
    9.1247   -3.2113    0.0000 C   0  0  0  0  0  0  0  0  0  0  0  0
    9.6070   -3.8736    0.0000 C   0  0  0  0  0  0  0  0  0  0  0  0
   10.4235   -3.7854    0.0000 C   0  0  0  0  0  0  0  0  0  0  0  0
   10.7553   -3.0334    0.0000 C   0  0  0  0  0  0  0  0  0  0  0  0
   10.2711   -2.3700    0.0000 C   0  0  0  0  0  0  0  0  0  0  0  0
   11.5758   -2.9414    0.0000 O   0  0  0  0  0  0  0  0  0  0  0  0
   12.0642   -3.6066    0.0000 C   0  0  0  0  0  0  0  0  0  0  0  0
   -2.4171   -3.8903    0.0000 C   0  0  0  0  0  0  0  0  0  0  0  0
   -2.4171   -4.7156    0.0000 C   0  0  0  0  0  0  0  0  0  0  0  0
   -1.7020   -5.1262    0.0000 C   0  0  0  0  0  0  0  0  0  0  0  0
   -0.9911   -4.7156    0.0000 C   0  0  0  0  0  0  0  0  0  0  0  0
   -0.9911   -3.8903    0.0000 N   0  0  0  0  0  0  0  0  0  0  0  0
   -1.7020   -3.4717    0.0000 C   0  0  0  0  0  0  0  0  0  0  0  0
   -3.1316   -3.4777    0.0000 C   0  0  0  0  0  0  0  0  0  0  0  0
   -3.8478   -3.8944    0.0000 C   0  0  0  0  0  0  0  0  0  0  0  0
   -0.2743   -5.1313    0.0000 C   0  0  0  0  0  0  0  0  0  0  0  0
   -0.2755   -5.9565    0.0000 C   0  0  0  0  0  0  0  0  0  0  0  0
    0.4397   -4.7176    0.0000 O   0  0  0  0  0  0  0  0  0  0  0  0
    1.1524   -5.1333    0.0000 C   0  0  0  0  0  0  0  0  0  0  0  0
    1.8704   -4.7196    0.0000 C   0  0  0  0  0  0  0  0  0  0  0  0
    1.1512   -5.9586    0.0000 O   0  0  0  0  0  0  0  0  0  0  0  0
    2.5832   -5.1354    0.0000 C   0  0  0  0  0  0  0  0  0  0  0  0
    3.3012   -4.7217    0.0000 C   0  0  0  0  0  0  0  0  0  0  0  0
    4.0489   -5.0592    0.0000 N   0  0  0  0  0  0  0  0  0  0  0  0
    4.6046   -4.4456    0.0000 N   0  0  0  0  0  0  0  0  0  0  0  0
    4.1910   -3.7316    0.0000 N   0  0  0  0  0  0  0  0  0  0  0  0
    3.3831   -3.9019    0.0000 C   0  0  0  0  0  0  0  0  0  0  0  0
    4.5275   -2.9763    0.0000 C   0  0  0  0  0  0  0  0  0  0  0  0
    5.3525   -2.8933    0.0000 C   0  0  0  0  0  0  0  0  0  0  0  0
   -0.2786   -7.6055    0.0000 N   0  0  0  0  0  0  0  0  0  0  0  0
    0.4376   -7.1875    0.0000 C   0  0  0  0  0  0  0  0  0  0  0  0
    0.4357   -6.3643    0.0000 C   0  0  0  0  0  0  0  0  0  0  0  0
   -0.9959   -7.1890    0.0000 C   0  0  0  0  0  0  0  0  0  0  0  0
   -0.9921   -6.3646    0.0000 C   0  0  0  0  0  0  0  0  0  0  0  0
   -1.7017   -5.9529    0.0000 C   0  0  0  0  0  0  0  0  0  0  0  0
   -2.4196   -6.3604    0.0000 C   0  0  0  0  0  0  0  0  0  0  0  0
   -2.4195   -7.1879    0.0000 C   0  0  0  0  0  0  0  0  0  0  0  0
   -1.7053   -7.6000    0.0000 C   0  0  0  0  0  0  0  0  0  0  0  0
   -3.1323   -5.9486    0.0000 O   0  0  0  0  0  0  0  0  0  0  0  0
   -3.8505   -6.3579    0.0000 C   0  0  0  0  0  0  0  0  0  0  0  0
    5.6890   -2.1381    0.0000 C   0  0  0  0  0  0  0  0  0  0  0  0
    6.5100   -2.0510    0.0000 C   0  0  0  0  0  0  0  0  0  0  0  0
    6.8466   -1.2998    0.0000 C   0  0  0  0  0  0  0  0  0  0  0  0
    7.6675   -1.2127    0.0000 C   0  0  0  0  0  0  0  0  0  0  0  0
   -1.7992   -3.8903    0.0000 C   0  0  0  0  0  0  0  0  0  0  0  0
   -1.7992   -4.3945    0.0000 C   0  0  0  0  0  0  0  0  0  0  0  0
 30 29  1  0
 30 31  1  0
 31 32  1  0
 27 33  1  0
  4  5  1  0
 33 34  2  0
  6 16  2  0
  1  3  2  0
 30 35  1  0
 16 17  1  0
 35 36  1  0
  5 11  1  0
 35 37  1  0
 17 18  2  0
 37 38  1  0
 18 20  1  0
 38 39  1  0
 19  6  1  0
 38 40  2  0
  7  8  1  0
 39 41  1  0
  8  9  1  0
 41 42  1  0
 42 43  1  0
 19 20  2  0
  9 10  1  0
 20 21  1  0
 10 11  1  0
 43 44  2  0
 44 45  1  0
 45 46  1  0
 46 42  2  0
 21 22  2  0
 45 47  1  0
  4  6  1  0
 47 48  1  0
 36 53  2  0
 22 23  1  0
 52 49  2  0
 11 12  1  0
 49 50  1  0
 23 24  2  0
 50 51  2  0
 51 36  1  0
 24 19  1  0
  5  7  1  0
 52 53  1  0
 23 25  1  0
 53 54  1  0
 12 13  1  0
 54 55  2  0
 25 26  1  0
 55 56  1  0
 27 28  1  0
 56 57  2  0
 57 52  1  0
  8 13  1  0
 55 58  1  0
  1  2  1  0
 58 59  1  0
  9 14  1  0
 48 60  1  0
  4  2  1  0
 60 61  1  0
 14 15  2  0
 61 62  1  0
 62 63  1  0
 63  1  1  0
 27 32  1  0
 31 64  1  0
 28 29  1  0
 28 65  1  0
 65 64  1  0
M  END
>  <Classification>  (656) 
1

>  <pchembl>  (656) 
5.44

>  <InChI_steorem>  (656) 
InChI=1S/C52H63N7O6/c1-5-34-31-57-25-20-36(34)27-47(57)51(41-18-22-53-45-15-13-39(62-3)29-43(41)45)64-49(60)11-9-7-8-10-24-59-33-38(55-56-59)12-17-50(61)65-52(48-28-37-21-26-58(48)32-35(37)6-2)42-19-23-54-46-16-14-40(63-4)30-44(42)46/h5-6,13-16,18-19,22-23,29-30,33-37,47-48,51-52H,1-2,7-12,17,20-21,24-28,31-32H2,3-4H3

>  <source>  (656) 
ChEMBL25

>  <source_id>  (656) 
25

>  <optional_reference>  (656) 
10.1016/j.bmcl.2012.04.125

>  <optional_origin>  (656) 
None

>  <target>  (656) 
MDR1

$$$$

     RDKit          2D

 67 75  0  0  0  0  0  0  0  0999 V2000
   -2.3553   -4.8867    0.0000 C   0  0  0  0  0  0  0  0  0  0  0  0
   -2.3553   -5.7120    0.0000 C   0  0  0  0  0  0  0  0  0  0  0  0
   -1.6444   -6.1184    0.0000 C   0  0  0  0  0  0  0  0  0  0  0  0
   -0.9294   -5.7120    0.0000 C   0  0  0  0  0  0  0  0  0  0  0  0
   -0.9294   -4.8867    0.0000 N   0  0  0  0  0  0  0  0  0  0  0  0
   -1.6444   -4.4681    0.0000 C   0  0  0  0  0  0  0  0  0  0  0  0
   -3.0739   -4.4741    0.0000 C   0  0  0  0  0  0  0  0  0  0  0  0
   -3.7860   -4.8908    0.0000 C   0  0  0  0  0  0  0  0  0  0  0  0
   -0.2167   -6.1276    0.0000 C   0  0  0  0  0  0  0  0  0  0  0  0
   -0.2179   -6.9528    0.0000 C   0  0  0  0  0  0  0  0  0  0  0  0
    0.5012   -5.7139    0.0000 O   0  0  0  0  0  0  0  0  0  0  0  0
    1.2140   -6.1296    0.0000 C   0  0  0  0  0  0  0  0  0  0  0  0
    1.2128   -6.9548    0.0000 O   0  0  0  0  0  0  0  0  0  0  0  0
   -0.2210   -8.6015    0.0000 N   0  0  0  0  0  0  0  0  0  0  0  0
    0.4993   -8.1837    0.0000 C   0  0  0  0  0  0  0  0  0  0  0  0
    0.4973   -7.3605    0.0000 C   0  0  0  0  0  0  0  0  0  0  0  0
   -0.9343   -8.1851    0.0000 C   0  0  0  0  0  0  0  0  0  0  0  0
   -0.9305   -7.3608    0.0000 C   0  0  0  0  0  0  0  0  0  0  0  0
   -1.6440   -6.9491    0.0000 C   0  0  0  0  0  0  0  0  0  0  0  0
   -2.3579   -7.3567    0.0000 C   0  0  0  0  0  0  0  0  0  0  0  0
   -2.3578   -8.1841    0.0000 C   0  0  0  0  0  0  0  0  0  0  0  0
   -1.6477   -8.5962    0.0000 C   0  0  0  0  0  0  0  0  0  0  0  0
   -3.0745   -6.9448    0.0000 O   0  0  0  0  0  0  0  0  0  0  0  0
   -3.7885   -7.3541    0.0000 C   0  0  0  0  0  0  0  0  0  0  0  0
    9.4918   -1.4601    0.0000 C   0  0  0  0  0  0  0  0  0  0  0  0
   10.3168   -1.3731    0.0000 O   0  0  0  0  0  0  0  0  0  0  0  0
    9.0074   -0.7880    0.0000 O   0  0  0  0  0  0  0  0  0  0  0  0
   10.8012   -2.0411    0.0000 C   0  0  0  0  0  0  0  0  0  0  0  0
   11.6221   -1.9581    0.0000 C   0  0  0  0  0  0  0  0  0  0  0  0
   10.4647   -2.7963    0.0000 C   0  0  0  0  0  0  0  0  0  0  0  0
   12.1067   -2.6301    0.0000 C   0  0  0  0  0  0  0  0  0  0  0  0
   12.9244   -2.5452    0.0000 C   0  0  0  0  0  0  0  0  0  0  0  0
   13.2648   -1.7956    0.0000 C   0  0  0  0  0  0  0  0  0  0  0  0
   12.7815   -1.1215    0.0000 C   0  0  0  0  0  0  0  0  0  0  0  0
   11.9576   -1.2053    0.0000 N   0  0  0  0  0  0  0  0  0  0  0  0
   12.1061   -1.7852    0.0000 C   0  0  0  0  0  0  0  0  0  0  0  0
   12.8844   -1.7677    0.0000 C   0  0  0  0  0  0  0  0  0  0  0  0
   14.0861   -1.7115    0.0000 C   0  0  0  0  0  0  0  0  0  0  0  0
   14.5679   -2.3813    0.0000 C   0  0  0  0  0  0  0  0  0  0  0  0
    9.6409   -2.8753    0.0000 C   0  0  0  0  0  0  0  0  0  0  0  0
    9.3044   -3.6296    0.0000 C   0  0  0  0  0  0  0  0  0  0  0  0
    9.7889   -4.2987    0.0000 N   0  0  0  0  0  0  0  0  0  0  0  0
   10.9506   -3.4581    0.0000 C   0  0  0  0  0  0  0  0  0  0  0  0
   10.6124   -4.2098    0.0000 C   0  0  0  0  0  0  0  0  0  0  0  0
   11.0946   -4.8721    0.0000 C   0  0  0  0  0  0  0  0  0  0  0  0
   11.9151   -4.7838    0.0000 C   0  0  0  0  0  0  0  0  0  0  0  0
   12.2469   -4.0318    0.0000 C   0  0  0  0  0  0  0  0  0  0  0  0
   11.7627   -3.3685    0.0000 C   0  0  0  0  0  0  0  0  0  0  0  0
   13.0673   -3.9399    0.0000 O   0  0  0  0  0  0  0  0  0  0  0  0
   13.5557   -4.6050    0.0000 C   0  0  0  0  0  0  0  0  0  0  0  0
    3.3586   -5.7180    0.0000 C   0  0  0  0  0  0  0  0  0  0  0  0
    4.0754   -6.1336    0.0000 C   0  0  0  0  0  0  0  0  0  0  0  0
    4.7893   -5.7201    0.0000 C   0  0  0  0  0  0  0  0  0  0  0  0
    5.5410   -6.0575    0.0000 N   0  0  0  0  0  0  0  0  0  0  0  0
    6.0926   -5.4439    0.0000 N   0  0  0  0  0  0  0  0  0  0  0  0
    5.6830   -4.7300    0.0000 N   0  0  0  0  0  0  0  0  0  0  0  0
    4.8752   -4.9004    0.0000 C   0  0  0  0  0  0  0  0  0  0  0  0
    6.0195   -3.9748    0.0000 C   0  0  0  0  0  0  0  0  0  0  0  0
    6.8404   -3.8918    0.0000 C   0  0  0  0  0  0  0  0  0  0  0  0
    7.1770   -3.1366    0.0000 C   0  0  0  0  0  0  0  0  0  0  0  0
    7.9978   -3.0495    0.0000 C   0  0  0  0  0  0  0  0  0  0  0  0
    8.3343   -2.2984    0.0000 C   0  0  0  0  0  0  0  0  0  0  0  0
    9.1552   -2.2113    0.0000 C   0  0  0  0  0  0  0  0  0  0  0  0
    2.6447   -6.1316    0.0000 C   0  0  0  0  0  0  0  0  0  0  0  0
    1.9279   -5.7160    0.0000 C   0  0  0  0  0  0  0  0  0  0  0  0
   -1.7376   -4.8846    0.0000 C   0  0  0  0  0  0  0  0  0  0  0  0
   -1.7336   -5.3765    0.0000 C   0  0  0  0  0  0  0  0  0  0  0  0
 15 16  2  0
 29 35  1  0
 31 32  1  0
 32 33  1  0
 33 34  1  0
 34 35  1  0
 16 10  1  0
 35 36  1  0
  1  6  1  0
 36 37  1  0
 32 37  1  0
 33 38  1  0
 17 18  1  0
 38 39  2  0
  2  3  1  0
 18 19  1  0
 30 40  2  0
  4  9  1  0
 40 41  1  0
 19 20  2  0
 41 42  2  0
 42 44  1  0
 43 30  1  0
  4  3  1  0
 20 21  1  0
 43 44  2  0
  9 10  1  0
 44 45  1  0
 21 22  2  0
 45 46  2  0
 22 17  1  0
 46 47  1  0
  4  5  1  0
 47 48  2  0
 48 43  1  0
 20 23  1  0
 47 49  1  0
  9 11  1  0
 49 50  1  0
 23 24  1  0
  5  6  1  0
 51 52  1  0
 11 12  1  0
 52 53  1  0
 53 54  1  0
 25 26  1  0
 25 27  2  0
 12 13  2  0
 54 55  2  0
 55 56  1  0
 56 57  1  0
 57 53  2  0
 28 26  1  0
 56 58  1  0
 10 18  2  0
 58 59  1  0
 28 29  1  0
 59 60  1  0
  1  7  1  0
 60 61  1  0
 28 30  1  0
 61 62  1  0
 29 31  1  0
 62 63  1  0
 63 25  1  0
 17 14  2  0
 51 64  1  0
  1  2  1  0
 64 65  1  0
 65 12  1  0
 14 15  1  0
  5 66  1  0
  7  8  2  0
  2 67  1  0
 67 66  1  0
M  END
>  <Classification>  (657) 
1

>  <pchembl>  (657) 
5.54

>  <InChI_steorem>  (657) 
InChI=1S/C54H67N7O6/c1-5-36-33-59-27-22-38(36)29-49(59)53(43-20-24-55-47-18-16-41(64-3)31-45(43)47)66-51(62)14-9-7-8-12-26-61-35-40(57-58-61)13-10-11-15-52(63)67-54(50-30-39-23-28-60(50)34-37(39)6-2)44-21-25-56-48-19-17-42(65-4)32-46(44)48/h5-6,16-21,24-25,31-32,35-39,49-50,53-54H,1-2,7-15,22-23,26-30,33-34H2,3-4H3

>  <source>  (657) 
ChEMBL25

>  <source_id>  (657) 
25

>  <optional_reference>  (657) 
10.1016/j.bmcl.2012.04.125

>  <optional_origin>  (657) 
None

>  <target>  (657) 
MDR1

$$$$

     RDKit          2D

 67 75  0  0  0  0  0  0  0  0999 V2000
    9.7829   -1.0697    0.0000 C   0  0  0  0  0  0  0  0  0  0  0  0
   10.6035   -0.9846    0.0000 O   0  0  0  0  0  0  0  0  0  0  0  0
    9.2988   -0.4016    0.0000 O   0  0  0  0  0  0  0  0  0  0  0  0
   11.0876   -1.6528    0.0000 C   0  0  0  0  0  0  0  0  0  0  0  0
   11.9082   -1.5677    0.0000 C   0  0  0  0  0  0  0  0  0  0  0  0
   10.7509   -2.4060    0.0000 C   0  0  0  0  0  0  0  0  0  0  0  0
   12.3926   -2.2398    0.0000 C   0  0  0  0  0  0  0  0  0  0  0  0
   13.2098   -2.1570    0.0000 C   0  0  0  0  0  0  0  0  0  0  0  0
   13.5506   -1.4051    0.0000 C   0  0  0  0  0  0  0  0  0  0  0  0
   13.0675   -0.7350    0.0000 C   0  0  0  0  0  0  0  0  0  0  0  0
   12.2438   -0.8168    0.0000 N   0  0  0  0  0  0  0  0  0  0  0  0
   12.4498   -1.4740    0.0000 C   0  0  0  0  0  0  0  0  0  0  0  0
   13.0791   -1.4406    0.0000 C   0  0  0  0  0  0  0  0  0  0  0  0
   14.3715   -1.3231    0.0000 C   0  0  0  0  0  0  0  0  0  0  0  0
   14.8531   -1.9931    0.0000 C   0  0  0  0  0  0  0  0  0  0  0  0
    9.9316   -2.4869    0.0000 C   0  0  0  0  0  0  0  0  0  0  0  0
    9.5949   -3.2394    0.0000 C   0  0  0  0  0  0  0  0  0  0  0  0
   10.0792   -3.9085    0.0000 N   0  0  0  0  0  0  0  0  0  0  0  0
   11.2366   -3.0677    0.0000 C   0  0  0  0  0  0  0  0  0  0  0  0
   10.9024   -3.8174    0.0000 C   0  0  0  0  0  0  0  0  0  0  0  0
   11.3843   -4.4796    0.0000 C   0  0  0  0  0  0  0  0  0  0  0  0
   12.2003   -4.3933    0.0000 C   0  0  0  0  0  0  0  0  0  0  0  0
   12.5322   -3.6391    0.0000 C   0  0  0  0  0  0  0  0  0  0  0  0
   12.0482   -2.9801    0.0000 C   0  0  0  0  0  0  0  0  0  0  0  0
   13.3522   -3.5490    0.0000 O   0  0  0  0  0  0  0  0  0  0  0  0
   13.8404   -4.2143    0.0000 C   0  0  0  0  0  0  0  0  0  0  0  0
   -2.3289   -3.6542    0.0000 C   0  0  0  0  0  0  0  0  0  0  0  0
   -2.3289   -4.4793    0.0000 C   0  0  0  0  0  0  0  0  0  0  0  0
   -1.6168   -4.8876    0.0000 C   0  0  0  0  0  0  0  0  0  0  0  0
   -0.9047   -4.4793    0.0000 C   0  0  0  0  0  0  0  0  0  0  0  0
   -0.9047   -3.6542    0.0000 N   0  0  0  0  0  0  0  0  0  0  0  0
   -1.6168   -3.2375    0.0000 C   0  0  0  0  0  0  0  0  0  0  0  0
   -3.0447   -3.2438    0.0000 C   0  0  0  0  0  0  0  0  0  0  0  0
   -3.7579   -3.6584    0.0000 C   0  0  0  0  0  0  0  0  0  0  0  0
   -0.1908   -4.8928    0.0000 C   0  0  0  0  0  0  0  0  0  0  0  0
   -0.1920   -5.7179    0.0000 C   0  0  0  0  0  0  0  0  0  0  0  0
    0.5243   -4.4814    0.0000 O   0  0  0  0  0  0  0  0  0  0  0  0
    1.2383   -4.8949    0.0000 C   0  0  0  0  0  0  0  0  0  0  0  0
    1.2371   -5.7200    0.0000 O   0  0  0  0  0  0  0  0  0  0  0  0
   -0.1952   -7.3664    0.0000 N   0  0  0  0  0  0  0  0  0  0  0  0
    0.5222   -6.9505    0.0000 C   0  0  0  0  0  0  0  0  0  0  0  0
    0.5203   -6.1275    0.0000 C   0  0  0  0  0  0  0  0  0  0  0  0
   -0.9097   -6.9520    0.0000 C   0  0  0  0  0  0  0  0  0  0  0  0
   -0.9058   -6.1278    0.0000 C   0  0  0  0  0  0  0  0  0  0  0  0
   -1.6164   -5.7142    0.0000 C   0  0  0  0  0  0  0  0  0  0  0  0
   -2.3315   -6.1235    0.0000 C   0  0  0  0  0  0  0  0  0  0  0  0
   -2.3314   -6.9509    0.0000 C   0  0  0  0  0  0  0  0  0  0  0  0
   -1.6201   -7.3608    0.0000 C   0  0  0  0  0  0  0  0  0  0  0  0
   -3.0454   -5.7098    0.0000 O   0  0  0  0  0  0  0  0  0  0  0  0
   -3.7606   -6.1210    0.0000 C   0  0  0  0  0  0  0  0  0  0  0  0
    4.8115   -4.4876    0.0000 C   0  0  0  0  0  0  0  0  0  0  0  0
    5.5254   -4.9011    0.0000 C   0  0  0  0  0  0  0  0  0  0  0  0
    6.2406   -4.4897    0.0000 C   0  0  0  0  0  0  0  0  0  0  0  0
    6.9902   -4.8273    0.0000 N   0  0  0  0  0  0  0  0  0  0  0  0
    7.5432   -4.2150    0.0000 N   0  0  0  0  0  0  0  0  0  0  0  0
    7.1316   -3.4998    0.0000 N   0  0  0  0  0  0  0  0  0  0  0  0
    6.3245   -3.6702    0.0000 C   0  0  0  0  0  0  0  0  0  0  0  0
    7.4683   -2.7464    0.0000 C   0  0  0  0  0  0  0  0  0  0  0  0
    8.2889   -2.6613    0.0000 C   0  0  0  0  0  0  0  0  0  0  0  0
    8.6256   -1.9081    0.0000 C   0  0  0  0  0  0  0  0  0  0  0  0
    9.4462   -1.8230    0.0000 C   0  0  0  0  0  0  0  0  0  0  0  0
    4.0963   -4.8990    0.0000 C   0  0  0  0  0  0  0  0  0  0  0  0
    3.3825   -4.4855    0.0000 C   0  0  0  0  0  0  0  0  0  0  0  0
    2.6673   -4.8970    0.0000 C   0  0  0  0  0  0  0  0  0  0  0  0
    1.9533   -4.4834    0.0000 C   0  0  0  0  0  0  0  0  0  0  0  0
   -1.7335   -3.6500    0.0000 C   0  0  0  0  0  0  0  0  0  0  0  0
   -1.7293   -4.3043    0.0000 C   0  0  0  0  0  0  0  0  0  0  0  0
 31 32  1  0
 27 33  1  0
  4  5  1  0
 33 34  2  0
  6 16  2  0
  1  3  2  0
 30 35  1  0
 16 17  1  0
 35 36  1  0
  5 11  1  0
 35 37  1  0
 17 18  2  0
 37 38  1  0
 18 20  1  0
 38 39  2  0
 36 44  2  0
 19  6  1  0
 43 40  2  0
  7  8  1  0
 40 41  1  0
  8  9  1  0
 41 42  2  0
 42 36  1  0
 19 20  2  0
  9 10  1  0
 43 44  1  0
 20 21  1  0
 44 45  1  0
 10 11  1  0
 45 46  2  0
 21 22  2  0
 46 47  1  0
  4  6  1  0
 47 48  2  0
 48 43  1  0
 22 23  1  0
 46 49  1  0
 11 12  1  0
 49 50  1  0
 23 24  2  0
 24 19  1  0
 51 52  1  0
  5  7  1  0
 52 53  1  0
 53 54  1  0
 23 25  1  0
 12 13  1  0
 25 26  1  0
 27 28  1  0
 54 55  2  0
 55 56  1  0
 56 57  1  0
 57 53  2  0
  8 13  1  0
 56 58  1  0
  1  2  1  0
 58 59  1  0
  9 14  1  0
 59 60  1  0
  4  2  1  0
 60 61  1  0
 61  1  1  0
 14 15  2  0
 51 62  1  0
 62 63  1  0
 27 32  1  0
 63 64  1  0
 28 29  1  0
 64 65  1  0
 65 38  1  0
 30 29  1  0
 31 66  1  0
 30 31  1  0
 28 67  1  0
 67 66  1  0
M  END
>  <Classification>  (658) 
1

>  <pchembl>  (658) 
5.55

>  <InChI_steorem>  (658) 
InChI=1S/C54H67N7O6/c1-5-36-33-59-27-22-38(36)29-49(59)53(43-20-24-55-47-18-16-41(64-3)31-45(43)47)66-51(62)14-10-8-7-9-13-40-35-61(58-57-40)26-12-11-15-52(63)67-54(50-30-39-23-28-60(50)34-37(39)6-2)44-21-25-56-48-19-17-42(65-4)32-46(44)48/h5-6,16-21,24-25,31-32,35-39,49-50,53-54H,1-2,7-15,22-23,26-30,33-34H2,3-4H3

>  <source>  (658) 
ChEMBL25

>  <source_id>  (658) 
25

>  <optional_reference>  (658) 
10.1016/j.bmcl.2012.04.125

>  <optional_origin>  (658) 
None

>  <target>  (658) 
MDR1

$$$$

     RDKit          2D

 69 77  0  0  0  0  0  0  0  0999 V2000
   -4.1871   -3.6376    0.0000 C   0  0  0  0  0  0  0  0  0  0  0  0
   -4.1871   -4.4626    0.0000 C   0  0  0  0  0  0  0  0  0  0  0  0
   -3.4751   -4.8709    0.0000 C   0  0  0  0  0  0  0  0  0  0  0  0
   -2.7630   -4.4626    0.0000 C   0  0  0  0  0  0  0  0  0  0  0  0
   -2.7630   -3.6376    0.0000 N   0  0  0  0  0  0  0  0  0  0  0  0
   -3.4751   -3.2209    0.0000 C   0  0  0  0  0  0  0  0  0  0  0  0
   -4.9028   -3.2271    0.0000 C   0  0  0  0  0  0  0  0  0  0  0  0
   -5.6160   -3.6417    0.0000 C   0  0  0  0  0  0  0  0  0  0  0  0
   -2.0492   -4.8761    0.0000 C   0  0  0  0  0  0  0  0  0  0  0  0
   -2.0504   -5.7011    0.0000 C   0  0  0  0  0  0  0  0  0  0  0  0
   -1.3341   -4.4646    0.0000 O   0  0  0  0  0  0  0  0  0  0  0  0
   -0.6202   -4.8782    0.0000 C   0  0  0  0  0  0  0  0  0  0  0  0
   -0.6214   -5.7032    0.0000 O   0  0  0  0  0  0  0  0  0  0  0  0
   -2.0536   -7.3494    0.0000 N   0  0  0  0  0  0  0  0  0  0  0  0
   -1.3362   -6.9335    0.0000 C   0  0  0  0  0  0  0  0  0  0  0  0
   -1.3381   -6.1107    0.0000 C   0  0  0  0  0  0  0  0  0  0  0  0
   -2.7680   -6.9351    0.0000 C   0  0  0  0  0  0  0  0  0  0  0  0
   -2.7641   -6.1110    0.0000 C   0  0  0  0  0  0  0  0  0  0  0  0
   -3.4747   -5.6974    0.0000 C   0  0  0  0  0  0  0  0  0  0  0  0
   -4.1897   -6.1067    0.0000 C   0  0  0  0  0  0  0  0  0  0  0  0
   -4.1896   -6.9339    0.0000 C   0  0  0  0  0  0  0  0  0  0  0  0
   -3.4784   -7.3438    0.0000 C   0  0  0  0  0  0  0  0  0  0  0  0
   -4.9035   -5.6929    0.0000 O   0  0  0  0  0  0  0  0  0  0  0  0
   -5.6187   -6.1042    0.0000 C   0  0  0  0  0  0  0  0  0  0  0  0
    9.0809   -0.2149    0.0000 C   0  0  0  0  0  0  0  0  0  0  0  0
    9.9015   -0.1298    0.0000 O   0  0  0  0  0  0  0  0  0  0  0  0
    8.5969    0.4532    0.0000 O   0  0  0  0  0  0  0  0  0  0  0  0
   10.3855   -0.7979    0.0000 C   0  0  0  0  0  0  0  0  0  0  0  0
   11.2061   -0.7128    0.0000 C   0  0  0  0  0  0  0  0  0  0  0  0
   10.0489   -1.5511    0.0000 C   0  0  0  0  0  0  0  0  0  0  0  0
   11.6904   -1.3849    0.0000 C   0  0  0  0  0  0  0  0  0  0  0  0
   12.5076   -1.3021    0.0000 C   0  0  0  0  0  0  0  0  0  0  0  0
   12.8483   -0.5503    0.0000 C   0  0  0  0  0  0  0  0  0  0  0  0
   12.3653    0.1197    0.0000 C   0  0  0  0  0  0  0  0  0  0  0  0
   11.5417    0.0380    0.0000 N   0  0  0  0  0  0  0  0  0  0  0  0
   11.7310   -0.6275    0.0000 C   0  0  0  0  0  0  0  0  0  0  0  0
   12.3768   -0.5859    0.0000 C   0  0  0  0  0  0  0  0  0  0  0  0
   13.6692   -0.4683    0.0000 C   0  0  0  0  0  0  0  0  0  0  0  0
   14.1506   -1.1383    0.0000 C   0  0  0  0  0  0  0  0  0  0  0  0
    9.2296   -1.6321    0.0000 C   0  0  0  0  0  0  0  0  0  0  0  0
    8.8930   -2.3844    0.0000 C   0  0  0  0  0  0  0  0  0  0  0  0
    9.3771   -3.0535    0.0000 N   0  0  0  0  0  0  0  0  0  0  0  0
   10.5345   -2.2128    0.0000 C   0  0  0  0  0  0  0  0  0  0  0  0
   10.2003   -2.9624    0.0000 C   0  0  0  0  0  0  0  0  0  0  0  0
   10.6822   -3.6246    0.0000 C   0  0  0  0  0  0  0  0  0  0  0  0
   11.4981   -3.5383    0.0000 C   0  0  0  0  0  0  0  0  0  0  0  0
   11.8300   -2.7842    0.0000 C   0  0  0  0  0  0  0  0  0  0  0  0
   11.3461   -2.1252    0.0000 C   0  0  0  0  0  0  0  0  0  0  0  0
   12.6500   -2.6941    0.0000 O   0  0  0  0  0  0  0  0  0  0  0  0
   13.1381   -3.3592    0.0000 C   0  0  0  0  0  0  0  0  0  0  0  0
    2.9527   -4.4708    0.0000 C   0  0  0  0  0  0  0  0  0  0  0  0
    3.6666   -4.8844    0.0000 C   0  0  0  0  0  0  0  0  0  0  0  0
    4.3817   -4.4729    0.0000 C   0  0  0  0  0  0  0  0  0  0  0  0
    5.1313   -4.8105    0.0000 N   0  0  0  0  0  0  0  0  0  0  0  0
    5.6842   -4.1982    0.0000 N   0  0  0  0  0  0  0  0  0  0  0  0
    5.2727   -3.4831    0.0000 N   0  0  0  0  0  0  0  0  0  0  0  0
    4.4656   -3.6536    0.0000 C   0  0  0  0  0  0  0  0  0  0  0  0
    5.6093   -2.7299    0.0000 C   0  0  0  0  0  0  0  0  0  0  0  0
    6.4299   -2.6448    0.0000 C   0  0  0  0  0  0  0  0  0  0  0  0
    6.7665   -1.8916    0.0000 C   0  0  0  0  0  0  0  0  0  0  0  0
    7.5871   -1.8065    0.0000 C   0  0  0  0  0  0  0  0  0  0  0  0
    7.9237   -1.0533    0.0000 C   0  0  0  0  0  0  0  0  0  0  0  0
    8.7443   -0.9681    0.0000 C   0  0  0  0  0  0  0  0  0  0  0  0
    2.2376   -4.8823    0.0000 C   0  0  0  0  0  0  0  0  0  0  0  0
    1.5238   -4.4688    0.0000 C   0  0  0  0  0  0  0  0  0  0  0  0
    0.8087   -4.8802    0.0000 C   0  0  0  0  0  0  0  0  0  0  0  0
    0.0948   -4.4667    0.0000 C   0  0  0  0  0  0  0  0  0  0  0  0
   -3.5542   -4.1250    0.0000 C   0  0  0  0  0  0  0  0  0  0  0  0
   -3.5542   -3.6250    0.0000 C   0  0  0  0  0  0  0  0  0  0  0  0
 31 32  1  0
 32 33  1  0
 33 34  1  0
 34 35  1  0
 16 10  1  0
 35 36  1  0
  1  6  1  0
 36 37  1  0
 32 37  1  0
 33 38  1  0
 17 18  1  0
 38 39  2  0
  2  3  1  0
 18 19  1  0
 30 40  2  0
  4  9  1  0
 40 41  1  0
 19 20  2  0
 41 42  2  0
 42 44  1  0
 43 30  1  0
  4  3  1  0
 20 21  1  0
 43 44  2  0
  9 10  1  0
 44 45  1  0
 21 22  2  0
 45 46  2  0
 22 17  1  0
 46 47  1  0
  4  5  1  0
 47 48  2  0
 48 43  1  0
 20 23  1  0
 47 49  1  0
  9 11  1  0
 49 50  1  0
 23 24  1  0
  5  6  1  0
 51 52  1  0
 11 12  1  0
 52 53  1  0
 53 54  1  0
 25 26  1  0
 25 27  2  0
 12 13  2  0
 54 55  2  0
 55 56  1  0
 56 57  1  0
 57 53  2  0
 28 26  1  0
 56 58  1  0
 10 18  2  0
 58 59  1  0
 28 29  1  0
 59 60  1  0
  1  7  1  0
 60 61  1  0
 28 30  1  0
 61 62  1  0
 29 31  1  0
 62 63  1  0
 63 25  1  0
 17 14  2  0
 51 64  1  0
  1  2  1  0
 64 65  1  0
 14 15  1  0
 65 66  1  0
  7  8  2  0
 66 67  1  0
 67 12  1  0
 15 16  2  0
  2 68  1  0
 29 35  1  0
 68 69  1  0
 69  5  1  0
M  END
>  <Classification>  (659) 
1

>  <pchembl>  (659) 
5.57

>  <InChI_steorem>  (659) 
InChI=1S/C56H71N7O6/c1-5-38-35-61-29-24-40(38)31-51(61)55(45-22-26-57-49-20-18-43(66-3)33-47(45)49)68-53(64)16-12-8-7-11-15-42-37-63(60-59-42)28-14-10-9-13-17-54(65)69-56(52-32-41-25-30-62(52)36-39(41)6-2)46-23-27-58-50-21-19-44(67-4)34-48(46)50/h5-6,18-23,26-27,33-34,37-41,51-52,55-56H,1-2,7-17,24-25,28-32,35-36H2,3-4H3

>  <source>  (659) 
ChEMBL25

>  <source_id>  (659) 
25

>  <optional_reference>  (659) 
10.1016/j.bmcl.2012.04.125

>  <optional_origin>  (659) 
None

>  <target>  (659) 
MDR1

$$$$

     RDKit          2D

 72 74  0  0  0  0  0  0  0  0999 V2000
    0.7125   -1.4292    0.0000 N   0  0  0  0  0  0  0  0  0  0  0  0
    3.5375   -0.2042    0.0000 N   0  0  0  0  0  0  0  0  0  0  0  0
    2.9542   -0.0417    0.0000 C   0  0  0  0  0  0  0  0  0  0  0  0
    0.8667   -0.2292    0.0000 C   0  0  0  0  0  0  0  0  0  0  0  0
    0.4917   -0.7667    0.0000 C   0  0  0  0  0  0  0  0  0  0  0  0
    5.2375   -4.0417    0.0000 N   0  0  0  0  0  0  0  0  0  0  0  0
    5.8292   -3.5917    0.0000 C   0  0  0  0  0  0  0  0  0  0  0  0
    5.7875   -2.5167    0.0000 N   0  0  0  0  0  0  0  0  0  0  0  0
    0.4125   -1.9417    0.0000 C   0  0  0  0  0  0  0  0  0  0  0  0
    4.2750   -0.9417    0.0000 C   0  0  0  0  0  0  0  0  0  0  0  0
    5.2167   -2.2542    0.0000 C   0  0  0  0  0  0  0  0  0  0  0  0
    3.9875   -4.0167    0.0000 N   0  0  0  0  0  0  0  0  0  0  0  0
    2.5000   -3.4917    0.0000 N   0  0  0  0  0  0  0  0  0  0  0  0
    1.7417   -0.1417    0.0000 O   0  0  0  0  0  0  0  0  0  0  0  0
    4.2875   -4.5167    0.0000 C   0  0  0  0  0  0  0  0  0  0  0  0
    3.1000   -3.4917    0.0000 C   0  0  0  0  0  0  0  0  0  0  0  0
    4.7000   -1.3667    0.0000 N   0  0  0  0  0  0  0  0  0  0  0  0
    1.6042   -2.9792    0.0000 C   0  0  0  0  0  0  0  0  0  0  0  0
    1.3125   -2.4667    0.0000 N   0  0  0  0  0  0  0  0  0  0  0  0
    6.0500   -2.9917    0.0000 C   0  0  0  0  0  0  0  0  0  0  0  0
    2.4417    0.2583    0.0000 C   0  0  0  0  0  0  0  0  0  0  0  0
    5.2125   -1.6542    0.0000 C   0  0  0  0  0  0  0  0  0  0  0  0
    0.7125   -2.4667    0.0000 C   0  0  0  0  0  0  0  0  0  0  0  0
    3.6917   -0.7792    0.0000 C   0  0  0  0  0  0  0  0  0  0  0  0
    4.8875   -4.5167    0.0000 C   0  0  0  0  0  0  0  0  0  0  0  0
    3.3917   -4.0167    0.0000 C   0  0  0  0  0  0  0  0  0  0  0  0
    2.1917   -2.9792    0.0000 C   0  0  0  0  0  0  0  0  0  0  0  0
   -0.2333   -0.7042    0.0000 C   0  0  0  0  0  0  0  0  0  0  0  0
    2.5375   -0.4667    0.0000 O   0  0  0  0  0  0  0  0  0  0  0  0
    6.3000   -3.8667    0.0000 O   0  0  0  0  0  0  0  0  0  0  0  0
    0.5542    0.2708    0.0000 O   0  0  0  0  0  0  0  0  0  0  0  0
    4.5750   -0.4292    0.0000 O   0  0  0  0  0  0  0  0  0  0  0  0
   -0.1833   -1.9417    0.0000 O   0  0  0  0  0  0  0  0  0  0  0  0
    4.7042   -2.5542    0.0000 O   0  0  0  0  0  0  0  0  0  0  0  0
    3.9875   -5.0417    0.0000 O   0  0  0  0  0  0  0  0  0  0  0  0
    3.3917   -2.9792    0.0000 O   0  0  0  0  0  0  0  0  0  0  0  0
    1.3125   -3.4917    0.0000 O   0  0  0  0  0  0  0  0  0  0  0  0
    5.7250   -1.3542    0.0000 C   0  0  0  0  0  0  0  0  0  0  0  0
    0.4125   -2.9792    0.0000 C   0  0  0  0  0  0  0  0  0  0  0  0
    2.4375    0.8583    0.0000 C   0  0  0  0  0  0  0  0  0  0  0  0
    1.3125   -1.4292    0.0000 C   0  0  0  0  0  0  0  0  0  0  0  0
    3.9625    0.2208    0.0000 C   0  0  0  0  0  0  0  0  0  0  0  0
    3.2667   -1.2042    0.0000 C   0  0  0  0  0  0  0  0  0  0  0  0
    5.8000   -4.2292    0.0000 C   0  0  0  0  0  0  0  0  0  0  0  0
    2.5000   -2.4667    0.0000 C   0  0  0  0  0  0  0  0  0  0  0  0
    3.1000   -4.5167    0.0000 C   0  0  0  0  0  0  0  0  0  0  0  0
    6.2042   -2.1292    0.0000 C   0  0  0  0  0  0  0  0  0  0  0  0
   -0.5375   -1.2042    0.0000 O   0  0  0  0  0  0  0  0  0  0  0  0
    6.3167   -1.3542    0.0000 C   0  0  0  0  0  0  0  0  0  0  0  0
    6.5792   -2.9917    0.0000 C   0  0  0  0  0  0  0  0  0  0  0  0
    5.2375   -5.0042    0.0000 C   0  0  0  0  0  0  0  0  0  0  0  0
    5.8000   -4.8167    0.0000 C   0  0  0  0  0  0  0  0  0  0  0  0
   -0.1833   -2.9792    0.0000 C   0  0  0  0  0  0  0  0  0  0  0  0
   -0.7333   -0.6417    0.0000 C   0  0  0  0  0  0  0  0  0  0  0  0
   -0.3500   -0.3292    0.0000 C   0  0  0  0  0  0  0  0  0  0  0  0
    2.9542    1.1458    0.0000 C   0  0  0  0  0  0  0  0  0  0  0  0
    3.3917   -5.0417    0.0000 C   0  0  0  0  0  0  0  0  0  0  0  0
    1.9292    1.1458    0.0000 C   0  0  0  0  0  0  0  0  0  0  0  0
    3.4250   -1.7792    0.0000 C   0  0  0  0  0  0  0  0  0  0  0  0
    3.1000   -2.4667    0.0000 C   0  0  0  0  0  0  0  0  0  0  0  0
    2.1917   -1.9417    0.0000 C   0  0  0  0  0  0  0  0  0  0  0  0
    2.6917   -1.0417    0.0000 C   0  0  0  0  0  0  0  0  0  0  0  0
    2.5000   -4.5167    0.0000 C   0  0  0  0  0  0  0  0  0  0  0  0
    6.6167   -1.8667    0.0000 C   0  0  0  0  0  0  0  0  0  0  0  0
    6.6125   -0.8292    0.0000 C   0  0  0  0  0  0  0  0  0  0  0  0
   -0.4750   -2.4667    0.0000 C   0  0  0  0  0  0  0  0  0  0  0  0
   -0.4750   -3.4917    0.0000 C   0  0  0  0  0  0  0  0  0  0  0  0
    3.1000   -5.5542    0.0000 C   0  0  0  0  0  0  0  0  0  0  0  0
    2.9542    1.7458    0.0000 C   0  0  0  0  0  0  0  0  0  0  0  0
    7.2125   -1.8542    0.0000 C   0  0  0  0  0  0  0  0  0  0  0  0
    7.2000   -0.8292    0.0000 C   0  0  0  0  0  0  0  0  0  0  0  0
    7.5042   -1.3417    0.0000 C   0  0  0  0  0  0  0  0  0  0  0  0
  2  3  1  0
  3 21  1  0
  4  5  1  0
  5  1  1  0
  6 25  1  0
  7  6  1  0
  8 11  1  0
  9  1  1  0
 10 24  1  0
 11 22  1  0
 12 26  1  0
 13 27  1  0
 14  4  1  0
 15 12  1  0
 16 13  1  0
 17 10  1  0
 18 19  1  0
 19 23  1  0
 20  8  1  0
 21 14  1  0
 22 17  1  0
 23  9  1  0
 24  2  1  0
 25 15  1  0
 26 16  1  0
 27 18  1  0
  5 28  1  0
 29  3  2  0
 30  7  2  0
 31  4  2  0
 32 10  2  0
 33  9  2  0
 34 11  2  0
 35 15  2  0
 36 16  2  0
 37 18  2  0
 22 38  1  0
 23 39  1  0
 21 40  1  0
 41  1  1  0
 42  2  1  0
 24 43  1  0
 44  6  1  0
 27 45  1  0
 26 46  1  0
 47  8  1  0
 48 28  1  0
 49 38  1  0
 20 50  1  0
 25 51  1  0
 52 51  1  0
 53 39  1  0
 54 28  1  0
 55 28  1  0
 56 40  1  0
 57 46  1  0
 40 58  1  0
 59 43  1  0
 60 45  1  0
 61 45  1  0
 62 43  1  0
 46 63  1  0
 64 49  2  0
 65 49  1  0
 66 53  1  0
 67 53  1  0
 68 57  1  0
 69 56  1  0
 70 64  1  0
 71 65  2  0
 72 71  1  0
 44 52  1  0
  7 20  1  0
 72 70  2  0
M  END
>  <Classification>  (660) 
1

>  <pchembl>  (660) 
5.32

>  <InChI_steorem>  (660) 
InChI=1S/C53H86N8O11/c1-17-32(9)40-46(64)56-39(30(5)6)45(63)54-36(27-29(3)4)50(68)60(16)43(53(12,13)71)52(70)72-42(33(10)18-2)51(69)59(15)41(31(7)8)47(65)55-37(28-35-23-20-19-21-24-35)49(67)58(14)34(11)48(66)61-26-22-25-38(61)44(62)57-40/h19-21,23-24,29-34,36-43,71H,17-18,22,25-28H2,1-16H3,(H,54,63)(H,55,65)(H,56,64)(H,57,62)

>  <source>  (660) 
ChEMBL25

>  <source_id>  (660) 
25

>  <optional_reference>  (660) 
10.1021/jm990955w

>  <optional_origin>  (660) 
None

>  <target>  (660) 
MDR1

$$$$

     RDKit          2D

 73 75  0  0  0  0  0  0  0  0999 V2000
    1.4728   -1.9733    0.0000 N   0  0  0  0  0  0  0  0  0  0  0  0
    3.9408   -4.8210    0.0000 N   0  0  0  0  0  0  0  0  0  0  0  0
    5.3733   -0.2819    0.0000 N   0  0  0  0  0  0  0  0  0  0  0  0
    8.3936   -3.5093    0.0000 N   0  0  0  0  0  0  0  0  0  0  0  0
    7.7032   -4.7520    0.0000 C   0  0  0  0  0  0  0  0  0  0  0  0
    4.7520   -4.8210    0.0000 C   0  0  0  0  0  0  0  0  0  0  0  0
    4.5621   -0.0576    0.0000 C   0  0  0  0  0  0  0  0  0  0  0  0
    1.6799   -0.3165    0.0000 C   0  0  0  0  0  0  0  0  0  0  0  0
    7.7032   -5.5804    0.0000 N   0  0  0  0  0  0  0  0  0  0  0  0
    7.6860   -3.1124    0.0000 C   0  0  0  0  0  0  0  0  0  0  0  0
    1.1621   -1.0413    0.0000 C   0  0  0  0  0  0  0  0  0  0  0  0
    8.4108   -4.3378    0.0000 C   0  0  0  0  0  0  0  0  0  0  0  0
    6.3743   -1.2830    0.0000 C   0  0  0  0  0  0  0  0  0  0  0  0
    6.9611   -1.8698    0.0000 N   0  0  0  0  0  0  0  0  0  0  0  0
    1.0413   -2.6809    0.0000 C   0  0  0  0  0  0  0  0  0  0  0  0
    2.6982   -4.1134    0.0000 C   0  0  0  0  0  0  0  0  0  0  0  0
    5.9946   -5.5459    0.0000 N   0  0  0  0  0  0  0  0  0  0  0  0
    2.8880   -0.1956    0.0000 O   0  0  0  0  0  0  0  0  0  0  0  0
    6.4088   -6.2362    0.0000 C   0  0  0  0  0  0  0  0  0  0  0  0
    2.2840   -3.4058    0.0000 N   0  0  0  0  0  0  0  0  0  0  0  0
    7.6860   -2.2840    0.0000 C   0  0  0  0  0  0  0  0  0  0  0  0
    5.1662   -5.5459    0.0000 C   0  0  0  0  0  0  0  0  0  0  0  0
    3.8545    0.3566    0.0000 C   0  0  0  0  0  0  0  0  0  0  0  0
    1.4728   -3.4058    0.0000 C   0  0  0  0  0  0  0  0  0  0  0  0
    5.5804   -1.0758    0.0000 C   0  0  0  0  0  0  0  0  0  0  0  0
    3.5266   -4.1134    0.0000 C   0  0  0  0  0  0  0  0  0  0  0  0
    7.2200   -6.2362    0.0000 C   0  0  0  0  0  0  0  0  0  0  0  0
    0.1611   -0.9550    0.0000 C   0  0  0  0  0  0  0  0  0  0  0  0
    6.9784   -4.3550    0.0000 O   0  0  0  0  0  0  0  0  0  0  0  0
    5.1662   -4.1134    0.0000 O   0  0  0  0  0  0  0  0  0  0  0  0
    3.9926   -0.6444    0.0000 O   0  0  0  0  0  0  0  0  0  0  0  0
    6.9784   -3.5266    0.0000 O   0  0  0  0  0  0  0  0  0  0  0  0
    1.2484    0.3739    0.0000 O   0  0  0  0  0  0  0  0  0  0  0  0
    6.7885   -0.5926    0.0000 O   0  0  0  0  0  0  0  0  0  0  0  0
    2.2840   -4.8210    0.0000 O   0  0  0  0  0  0  0  0  0  0  0  0
    0.2302   -2.6809    0.0000 O   0  0  0  0  0  0  0  0  0  0  0  0
    5.9946   -6.9611    0.0000 O   0  0  0  0  0  0  0  0  0  0  0  0
    1.0413   -4.1134    0.0000 C   0  0  0  0  0  0  0  0  0  0  0  0
    8.3936   -1.8525    0.0000 C   0  0  0  0  0  0  0  0  0  0  0  0
    4.7520   -6.2362    0.0000 C   0  0  0  0  0  0  0  0  0  0  0  0
    3.8545    1.1851    0.0000 C   0  0  0  0  0  0  0  0  0  0  0  0
    2.2840   -1.9733    0.0000 C   0  0  0  0  0  0  0  0  0  0  0  0
    3.5266   -5.5459    0.0000 C   0  0  0  0  0  0  0  0  0  0  0  0
    5.9601    0.3049    0.0000 C   0  0  0  0  0  0  0  0  0  0  0  0
    4.9936   -1.6626    0.0000 C   0  0  0  0  0  0  0  0  0  0  0  0
    3.9408   -3.4058    0.0000 C   0  0  0  0  0  0  0  0  0  0  0  0
    8.4971   -5.8393    0.0000 C   0  0  0  0  0  0  0  0  0  0  0  0
    9.1357   -4.7347    0.0000 C   0  0  0  0  0  0  0  0  0  0  0  0
    9.1012   -3.0951    0.0000 C   0  0  0  0  0  0  0  0  0  0  0  0
   -0.2703   -1.6626    0.0000 O   0  0  0  0  0  0  0  0  0  0  0  0
    7.7032   -6.9093    0.0000 C   0  0  0  0  0  0  0  0  0  0  0  0
    9.8433   -4.3205    0.0000 O   0  0  0  0  0  0  0  0  0  0  0  0
    8.4971   -6.6504    0.0000 C   0  0  0  0  0  0  0  0  0  0  0  0
    0.2302   -4.1134    0.0000 C   0  0  0  0  0  0  0  0  0  0  0  0
   -0.0115   -0.4545    0.0000 C   0  0  0  0  0  0  0  0  0  0  0  0
   -0.5292   -0.8687    0.0000 C   0  0  0  0  0  0  0  0  0  0  0  0
    9.1185   -2.2667    0.0000 C   0  0  0  0  0  0  0  0  0  0  0  0
    8.3763   -1.0413    0.0000 C   0  0  0  0  0  0  0  0  0  0  0  0
    5.1662   -6.9611    0.0000 C   0  0  0  0  0  0  0  0  0  0  0  0
    4.5621    1.5820    0.0000 C   0  0  0  0  0  0  0  0  0  0  0  0
    3.1469    1.5820    0.0000 C   0  0  0  0  0  0  0  0  0  0  0  0
    3.9408   -6.2362    0.0000 C   0  0  0  0  0  0  0  0  0  0  0  0
    5.2007   -2.4565    0.0000 C   0  0  0  0  0  0  0  0  0  0  0  0
    4.7520   -3.4058    0.0000 C   0  0  0  0  0  0  0  0  0  0  0  0
    3.5266   -2.6809    0.0000 C   0  0  0  0  0  0  0  0  0  0  0  0
    4.1997   -1.4383    0.0000 C   0  0  0  0  0  0  0  0  0  0  0  0
   -0.1840   -4.8210    0.0000 C   0  0  0  0  0  0  0  0  0  0  0  0
   -0.1840   -3.4058    0.0000 C   0  0  0  0  0  0  0  0  0  0  0  0
    4.7520   -7.6687    0.0000 C   0  0  0  0  0  0  0  0  0  0  0  0
    4.5621    2.4104    0.0000 C   0  0  0  0  0  0  0  0  0  0  0  0
    9.1012   -0.6099    0.0000 C   0  0  0  0  0  0  0  0  0  0  0  0
    9.8261   -1.8525    0.0000 C   0  0  0  0  0  0  0  0  0  0  0  0
    9.8261   -1.0241    0.0000 C   0  0  0  0  0  0  0  0  0  0  0  0
  2 26  1  0
  3  7  1  0
  4 10  1  0
  5  9  1  0
  6  2  1  0
  7 23  1  0
  8 11  1  0
  9 27  1  0
 10 21  1  0
 11  1  1  0
 12  4  1  0
 13 25  1  0
 14 13  1  0
 15  1  1  0
 16 20  1  0
 17 22  1  0
 18  8  1  0
 19 17  1  0
 20 24  1  0
 21 14  1  0
 22  6  1  0
 23 18  1  0
 24 15  1  0
 25  3  1  0
 26 16  1  0
 27 19  1  0
 11 28  1  0
 29  5  2  0
 30  6  2  0
 31  7  2  0
 32 10  2  0
 33  8  2  0
 34 13  2  0
 35 16  2  0
 36 15  2  0
 37 19  2  0
 24 38  1  0
 21 39  1  0
 22 40  1  0
 23 41  1  0
 42  1  1  0
 43  2  1  0
 44  3  1  0
 25 45  1  0
 26 46  1  0
 47  9  1  0
 12 48  1  0
 49  4  1  0
 50 28  1  0
 27 51  1  0
 52 48  1  0
 53 51  1  0
 54 38  1  0
 55 28  1  0
 56 28  1  0
 57 39  1  0
 58 39  1  0
 59 40  1  0
 60 41  1  0
 41 61  1  0
 40 62  1  0
 63 45  1  0
 64 46  1  0
 65 46  1  0
 66 45  1  0
 67 54  1  0
 68 54  1  0
 69 59  1  0
 70 60  1  0
 71 58  1  0
 72 57  1  0
 73 71  1  0
 47 53  1  0
 12  5  1  0
 73 72  1  0
M  END
>  <Classification>  (661) 
1

>  <pchembl>  (661) 
5.29

>  <InChI_steorem>  (661) 
InChI=1S/C53H92N8O12/c1-17-32(9)38-49(68)58(14)40(30(5)6)45(64)54-35(27-29(3)4)47(66)60(16)43(53(11,12)72)52(71)73-42(33(10)18-2)51(70)59(15)41(31(7)8)46(65)56-39(34-23-20-19-21-24-34)50(69)57(13)37(28-62)48(67)61-26-22-25-36(61)44(63)55-38/h29-43,62,72H,17-28H2,1-16H3,(H,54,64)(H,55,63)(H,56,65)

>  <source>  (661) 
ChEMBL25

>  <source_id>  (661) 
25

>  <optional_reference>  (661) 
10.1021/jm990955w

>  <optional_origin>  (661) 
None

>  <target>  (661) 
MDR1

$$$$

     RDKit          2D

 74 76  0  0  0  0  0  0  0  0999 V2000
    0.3875   -1.4292    0.0000 N   0  0  0  0  0  0  0  0  0  0  0  0
    2.1750   -3.4917    0.0000 N   0  0  0  0  0  0  0  0  0  0  0  0
    3.2125   -0.2042    0.0000 N   0  0  0  0  0  0  0  0  0  0  0  0
    2.7667   -3.4917    0.0000 C   0  0  0  0  0  0  0  0  0  0  0  0
    2.6292   -0.0417    0.0000 C   0  0  0  0  0  0  0  0  0  0  0  0
    0.5417   -0.2292    0.0000 C   0  0  0  0  0  0  0  0  0  0  0  0
    0.1667   -0.7542    0.0000 C   0  0  0  0  0  0  0  0  0  0  0  0
    4.9042   -4.0417    0.0000 N   0  0  0  0  0  0  0  0  0  0  0  0
    4.9042   -3.4417    0.0000 C   0  0  0  0  0  0  0  0  0  0  0  0
    5.4042   -2.5417    0.0000 N   0  0  0  0  0  0  0  0  0  0  0  0
    0.0875   -1.9417    0.0000 C   0  0  0  0  0  0  0  0  0  0  0  0
    1.2792   -2.9792    0.0000 C   0  0  0  0  0  0  0  0  0  0  0  0
    3.9500   -0.9292    0.0000 C   0  0  0  0  0  0  0  0  0  0  0  0
    3.6625   -4.0167    0.0000 N   0  0  0  0  0  0  0  0  0  0  0  0
    4.8917   -2.2542    0.0000 C   0  0  0  0  0  0  0  0  0  0  0  0
    1.4167   -0.1417    0.0000 O   0  0  0  0  0  0  0  0  0  0  0  0
    3.9625   -4.5167    0.0000 C   0  0  0  0  0  0  0  0  0  0  0  0
    4.3667   -1.3667    0.0000 N   0  0  0  0  0  0  0  0  0  0  0  0
    0.9792   -2.4667    0.0000 N   0  0  0  0  0  0  0  0  0  0  0  0
    3.0667   -4.0167    0.0000 C   0  0  0  0  0  0  0  0  0  0  0  0
    5.4167   -3.1417    0.0000 C   0  0  0  0  0  0  0  0  0  0  0  0
    2.1167    0.2583    0.0000 C   0  0  0  0  0  0  0  0  0  0  0  0
    0.3875   -2.4667    0.0000 C   0  0  0  0  0  0  0  0  0  0  0  0
    4.8875   -1.6542    0.0000 C   0  0  0  0  0  0  0  0  0  0  0  0
    3.3667   -0.7792    0.0000 C   0  0  0  0  0  0  0  0  0  0  0  0
    1.8750   -2.9792    0.0000 C   0  0  0  0  0  0  0  0  0  0  0  0
    4.5542   -4.5167    0.0000 C   0  0  0  0  0  0  0  0  0  0  0  0
   -0.5583   -0.6917    0.0000 C   0  0  0  0  0  0  0  0  0  0  0  0
    2.2125   -0.4667    0.0000 O   0  0  0  0  0  0  0  0  0  0  0  0
    3.0667   -2.9792    0.0000 O   0  0  0  0  0  0  0  0  0  0  0  0
    4.3792   -3.1542    0.0000 O   0  0  0  0  0  0  0  0  0  0  0  0
    0.2292    0.2708    0.0000 O   0  0  0  0  0  0  0  0  0  0  0  0
    0.9792   -3.4917    0.0000 O   0  0  0  0  0  0  0  0  0  0  0  0
    4.2417   -0.4292    0.0000 O   0  0  0  0  0  0  0  0  0  0  0  0
   -0.5083   -1.9417    0.0000 O   0  0  0  0  0  0  0  0  0  0  0  0
    4.3792   -2.5542    0.0000 O   0  0  0  0  0  0  0  0  0  0  0  0
    3.6625   -5.0417    0.0000 O   0  0  0  0  0  0  0  0  0  0  0  0
    5.4000   -1.3542    0.0000 C   0  0  0  0  0  0  0  0  0  0  0  0
    0.0875   -2.9792    0.0000 C   0  0  0  0  0  0  0  0  0  0  0  0
    2.7667   -4.5167    0.0000 C   0  0  0  0  0  0  0  0  0  0  0  0
    2.1125    0.8583    0.0000 C   0  0  0  0  0  0  0  0  0  0  0  0
    0.9792   -1.4292    0.0000 C   0  0  0  0  0  0  0  0  0  0  0  0
    1.8750   -4.0167    0.0000 C   0  0  0  0  0  0  0  0  0  0  0  0
    3.6375    0.2208    0.0000 C   0  0  0  0  0  0  0  0  0  0  0  0
    2.9417   -1.2042    0.0000 C   0  0  0  0  0  0  0  0  0  0  0  0
    2.1750   -2.4667    0.0000 C   0  0  0  0  0  0  0  0  0  0  0  0
    5.4750   -4.2292    0.0000 C   0  0  0  0  0  0  0  0  0  0  0  0
    5.9167   -2.2417    0.0000 C   0  0  0  0  0  0  0  0  0  0  0  0
    6.0000   -1.3542    0.0000 C   0  0  0  0  0  0  0  0  0  0  0  0
   -0.8708   -1.2042    0.0000 O   0  0  0  0  0  0  0  0  0  0  0  0
    7.1917   -1.3417    0.0000 C   0  0  0  0  0  0  0  0  0  0  0  0
    6.3000   -1.8667    0.0000 C   0  0  0  0  0  0  0  0  0  0  0  0
    6.2917   -0.8292    0.0000 C   0  0  0  0  0  0  0  0  0  0  0  0
    6.8875   -0.8292    0.0000 C   0  0  0  0  0  0  0  0  0  0  0  0
    6.8917   -1.8667    0.0000 C   0  0  0  0  0  0  0  0  0  0  0  0
    5.9292   -3.4292    0.0000 C   0  0  0  0  0  0  0  0  0  0  0  0
    4.9042   -5.0042    0.0000 C   0  0  0  0  0  0  0  0  0  0  0  0
    7.7917   -1.3417    0.0000 O   0  0  0  0  0  0  0  0  0  0  0  0
    5.4750   -4.8167    0.0000 C   0  0  0  0  0  0  0  0  0  0  0  0
   -0.5083   -2.9792    0.0000 C   0  0  0  0  0  0  0  0  0  0  0  0
   -0.6833   -0.3292    0.0000 C   0  0  0  0  0  0  0  0  0  0  0  0
   -1.0583   -0.6292    0.0000 C   0  0  0  0  0  0  0  0  0  0  0  0
    2.6292    1.1458    0.0000 C   0  0  0  0  0  0  0  0  0  0  0  0
    3.0667   -5.0417    0.0000 C   0  0  0  0  0  0  0  0  0  0  0  0
    2.1750   -4.5167    0.0000 C   0  0  0  0  0  0  0  0  0  0  0  0
    1.6042    1.1458    0.0000 C   0  0  0  0  0  0  0  0  0  0  0  0
    2.3667   -1.0417    0.0000 C   0  0  0  0  0  0  0  0  0  0  0  0
    3.0917   -1.7792    0.0000 C   0  0  0  0  0  0  0  0  0  0  0  0
    1.8750   -1.9417    0.0000 C   0  0  0  0  0  0  0  0  0  0  0  0
    2.7667   -2.4667    0.0000 C   0  0  0  0  0  0  0  0  0  0  0  0
   -0.8083   -3.4917    0.0000 C   0  0  0  0  0  0  0  0  0  0  0  0
   -0.8083   -2.4667    0.0000 C   0  0  0  0  0  0  0  0  0  0  0  0
    2.6292    1.7458    0.0000 C   0  0  0  0  0  0  0  0  0  0  0  0
    2.7667   -5.5542    0.0000 C   0  0  0  0  0  0  0  0  0  0  0  0
  2 26  1  0
  3  5  1  0
  4  2  1  0
  5 22  1  0
  6  7  1  0
  7  1  1  0
  8 27  1  0
  9  8  1  0
 10 15  1  0
 11  1  1  0
 12 19  1  0
 13 25  1  0
 14 20  1  0
 15 24  1  0
 16  6  1  0
 17 14  1  0
 18 13  1  0
 19 23  1  0
 20  4  1  0
 21 10  1  0
 22 16  1  0
 23 11  1  0
 24 18  1  0
 25  3  1  0
 26 12  1  0
 27 17  1  0
  7 28  1  0
 29  5  2  0
 30  4  2  0
 31  9  2  0
 32  6  2  0
 33 12  2  0
 34 13  2  0
 35 11  2  0
 36 15  2  0
 37 17  2  0
 24 38  1  0
 23 39  1  0
 20 40  1  0
 22 41  1  0
 42  1  1  0
 43  2  1  0
 44  3  1  0
 25 45  1  0
 26 46  1  0
 47  8  1  0
 48 10  1  0
 49 38  1  0
 50 28  1  0
 51 54  2  0
 52 49  1  0
 53 49  2  0
 54 53  1  0
 55 52  2  0
 21 56  1  0
 27 57  1  0
 58 51  1  0
 59 57  1  0
 60 39  1  0
 61 28  1  0
 62 28  1  0
 63 41  1  0
 64 40  1  0
 40 65  1  0
 41 66  1  0
 67 45  1  0
 68 45  1  0
 69 46  1  0
 70 46  1  0
 71 60  1  0
 72 60  1  0
 73 63  1  0
 74 64  1  0
 47 59  1  0
 21  9  1  0
 51 55  1  0
M  END
>  <Classification>  (662) 
1

>  <pchembl>  (662) 
5.24

>  <InChI_steorem>  (662) 
InChI=1S/C54H88N8O12/c1-18-32(9)40-51(70)59(15)41(30(5)6)46(65)55-37(27-29(3)4)50(69)61(17)44(54(12,13)73)53(72)74-43(33(10)19-2)52(71)60(16)42(31(7)8)47(66)56-38(28-35-22-24-36(63)25-23-35)49(68)58(14)34(11)48(67)62-26-20-21-39(62)45(64)57-40/h22-25,29-34,37-44,63,73H,18-21,26-28H2,1-17H3,(H,55,65)(H,56,66)(H,57,64)

>  <source>  (662) 
ChEMBL25

>  <source_id>  (662) 
25

>  <optional_reference>  (662) 
10.1021/jm990955w

>  <optional_origin>  (662) 
None

>  <target>  (662) 
MDR1

$$$$

     RDKit          2D

 73 81  0  0  0  0  0  0  0  0999 V2000
   11.2182   -0.4173    0.0000 C   0  0  0  0  0  0  0  0  0  0  0  0
   12.0388   -0.3322    0.0000 O   0  0  0  0  0  0  0  0  0  0  0  0
   10.7342    0.2508    0.0000 O   0  0  0  0  0  0  0  0  0  0  0  0
   12.5228   -1.0003    0.0000 C   0  0  0  0  0  0  0  0  0  0  0  0
   13.3434   -0.9152    0.0000 C   0  0  0  0  0  0  0  0  0  0  0  0
   12.1862   -1.7535    0.0000 C   0  0  0  0  0  0  0  0  0  0  0  0
   13.8277   -1.5873    0.0000 C   0  0  0  0  0  0  0  0  0  0  0  0
   14.6449   -1.5045    0.0000 C   0  0  0  0  0  0  0  0  0  0  0  0
   14.9855   -0.7527    0.0000 C   0  0  0  0  0  0  0  0  0  0  0  0
   14.5026   -0.0827    0.0000 C   0  0  0  0  0  0  0  0  0  0  0  0
   13.6790   -0.1644    0.0000 N   0  0  0  0  0  0  0  0  0  0  0  0
   13.9142   -0.7840    0.0000 C   0  0  0  0  0  0  0  0  0  0  0  0
   14.5141   -0.7883    0.0000 C   0  0  0  0  0  0  0  0  0  0  0  0
   15.8064   -0.6707    0.0000 C   0  0  0  0  0  0  0  0  0  0  0  0
   16.2879   -1.3406    0.0000 C   0  0  0  0  0  0  0  0  0  0  0  0
   11.3668   -1.8345    0.0000 C   0  0  0  0  0  0  0  0  0  0  0  0
   11.0302   -2.5868    0.0000 C   0  0  0  0  0  0  0  0  0  0  0  0
   11.5144   -3.2559    0.0000 N   0  0  0  0  0  0  0  0  0  0  0  0
   12.6718   -2.4152    0.0000 C   0  0  0  0  0  0  0  0  0  0  0  0
   12.3376   -3.1648    0.0000 C   0  0  0  0  0  0  0  0  0  0  0  0
   12.8194   -3.8270    0.0000 C   0  0  0  0  0  0  0  0  0  0  0  0
   13.6354   -3.7407    0.0000 C   0  0  0  0  0  0  0  0  0  0  0  0
   13.9672   -2.9866    0.0000 C   0  0  0  0  0  0  0  0  0  0  0  0
   13.4834   -2.3276    0.0000 C   0  0  0  0  0  0  0  0  0  0  0  0
   14.7873   -2.8965    0.0000 O   0  0  0  0  0  0  0  0  0  0  0  0
   15.2754   -3.5616    0.0000 C   0  0  0  0  0  0  0  0  0  0  0  0
   -4.6327   -4.6730    0.0000 C   0  0  0  0  0  0  0  0  0  0  0  0
   -4.6327   -5.4980    0.0000 C   0  0  0  0  0  0  0  0  0  0  0  0
   -3.9207   -5.9063    0.0000 C   0  0  0  0  0  0  0  0  0  0  0  0
   -3.2087   -5.4980    0.0000 C   0  0  0  0  0  0  0  0  0  0  0  0
   -3.2087   -4.6730    0.0000 N   0  0  0  0  0  0  0  0  0  0  0  0
   -3.9207   -4.2563    0.0000 C   0  0  0  0  0  0  0  0  0  0  0  0
   -5.3484   -4.2626    0.0000 C   0  0  0  0  0  0  0  0  0  0  0  0
   -6.0634   -4.6772    0.0000 C   0  0  0  0  0  0  0  0  0  0  0  0
   -2.4948   -5.9115    0.0000 C   0  0  0  0  0  0  0  0  0  0  0  0
   -2.4960   -6.7365    0.0000 C   0  0  0  0  0  0  0  0  0  0  0  0
   -1.7797   -5.5000    0.0000 O   0  0  0  0  0  0  0  0  0  0  0  0
   -1.0658   -5.9136    0.0000 C   0  0  0  0  0  0  0  0  0  0  0  0
   -1.0670   -6.7386    0.0000 O   0  0  0  0  0  0  0  0  0  0  0  0
   -2.4992   -8.3849    0.0000 N   0  0  0  0  0  0  0  0  0  0  0  0
   -1.7818   -7.9690    0.0000 C   0  0  0  0  0  0  0  0  0  0  0  0
   -1.7837   -7.1461    0.0000 C   0  0  0  0  0  0  0  0  0  0  0  0
   -3.2136   -7.9705    0.0000 C   0  0  0  0  0  0  0  0  0  0  0  0
   -3.2097   -7.1464    0.0000 C   0  0  0  0  0  0  0  0  0  0  0  0
   -3.9203   -6.7328    0.0000 C   0  0  0  0  0  0  0  0  0  0  0  0
   -4.6353   -7.1421    0.0000 C   0  0  0  0  0  0  0  0  0  0  0  0
   -4.6352   -7.9694    0.0000 C   0  0  0  0  0  0  0  0  0  0  0  0
   -3.9240   -8.3793    0.0000 C   0  0  0  0  0  0  0  0  0  0  0  0
   -5.3491   -6.7284    0.0000 O   0  0  0  0  0  0  0  0  0  0  0  0
   -6.0691   -7.1396    0.0000 C   0  0  0  0  0  0  0  0  0  0  0  0
    3.9361   -5.5083    0.0000 C   0  0  0  0  0  0  0  0  0  0  0  0
    4.6499   -5.9219    0.0000 C   0  0  0  0  0  0  0  0  0  0  0  0
    5.3650   -5.5104    0.0000 C   0  0  0  0  0  0  0  0  0  0  0  0
    6.1146   -5.8480    0.0000 N   0  0  0  0  0  0  0  0  0  0  0  0
    6.6676   -5.2357    0.0000 N   0  0  0  0  0  0  0  0  0  0  0  0
    6.2561   -4.5206    0.0000 N   0  0  0  0  0  0  0  0  0  0  0  0
    5.4489   -4.6911    0.0000 C   0  0  0  0  0  0  0  0  0  0  0  0
    6.5927   -3.7674    0.0000 C   0  0  0  0  0  0  0  0  0  0  0  0
    7.4133   -3.6823    0.0000 C   0  0  0  0  0  0  0  0  0  0  0  0
    7.7499   -2.9291    0.0000 C   0  0  0  0  0  0  0  0  0  0  0  0
    8.5705   -2.8440    0.0000 C   0  0  0  0  0  0  0  0  0  0  0  0
    8.9070   -2.0908    0.0000 C   0  0  0  0  0  0  0  0  0  0  0  0
    9.7276   -2.0056    0.0000 C   0  0  0  0  0  0  0  0  0  0  0  0
    3.2210   -5.9198    0.0000 C   0  0  0  0  0  0  0  0  0  0  0  0
    2.5071   -5.5063    0.0000 C   0  0  0  0  0  0  0  0  0  0  0  0
    1.7920   -5.9177    0.0000 C   0  0  0  0  0  0  0  0  0  0  0  0
    1.0782   -5.5042    0.0000 C   0  0  0  0  0  0  0  0  0  0  0  0
    0.3631   -5.9157    0.0000 C   0  0  0  0  0  0  0  0  0  0  0  0
   -0.3508   -5.5021    0.0000 C   0  0  0  0  0  0  0  0  0  0  0  0
   10.0642   -1.2524    0.0000 C   0  0  0  0  0  0  0  0  0  0  0  0
   10.8848   -1.1673    0.0000 C   0  0  0  0  0  0  0  0  0  0  0  0
   -4.0375   -4.6709    0.0000 C   0  0  0  0  0  0  0  0  0  0  0  0
   -4.0292   -5.2500    0.0000 C   0  0  0  0  0  0  0  0  0  0  0  0
  1  3  2  0
 30 35  1  0
 16 17  2  0
 35 36  1  0
  5 11  1  0
 35 37  1  0
 17 18  1  0
 37 38  1  0
 18 20  2  0
 38 39  2  0
 36 44  2  0
 19  6  2  0
 43 40  2  0
  7  8  1  0
 40 41  1  0
  8  9  1  0
 41 42  2  0
 42 36  1  0
 19 20  1  0
  9 10  1  0
 43 44  1  0
 20 21  1  0
 44 45  1  0
 10 11  1  0
 45 46  2  0
 21 22  2  0
 46 47  1  0
  4  6  1  0
 47 48  2  0
 48 43  1  0
 22 23  1  0
 46 49  1  0
 11 12  1  0
 49 50  1  0
 23 24  2  0
 24 19  1  0
 51 52  1  0
  5  7  1  0
 52 53  1  0
 53 54  1  0
 23 25  1  0
 12 13  1  0
 25 26  1  0
 27 28  1  0
 54 55  2  0
 55 56  1  0
 56 57  1  0
 57 53  2  0
  8 13  1  0
 56 58  1  0
  1  2  1  0
 58 59  1  0
  9 14  1  0
 59 60  1  0
  4  2  1  0
 60 61  1  0
 14 15  2  0
 61 62  1  0
 62 63  1  0
 27 32  1  0
 51 64  1  0
 28 29  1  0
 64 65  1  0
 30 29  1  0
 65 66  1  0
 30 31  1  0
 66 67  1  0
 31 32  1  0
 67 68  1  0
 68 69  1  0
 69 38  1  0
 27 33  1  0
 63 70  1  0
  4  5  1  0
 70 71  1  0
 71  1  1  0
 33 34  2  0
 31 72  1  0
  6 16  1  0
 28 73  1  0
 73 72  1  0
M  END
>  <Classification>  (663) 
1

>  <pchembl>  (663) 
5.35

>  <InChI_steorem>  (663) 
InChI=1S/C60H79N7O6/c1-5-42-39-65-33-28-44(42)35-55(65)59(49-26-30-61-53-24-22-47(70-3)37-51(49)53)72-57(68)20-16-12-8-7-11-15-19-46-41-67(64-63-46)32-18-14-10-9-13-17-21-58(69)73-60(56-36-45-29-34-66(56)40-43(45)6-2)50-27-31-62-54-25-23-48(71-4)38-52(50)54/h5-6,22-27,30-31,37-38,41-45,55-56,59-60H,1-2,7-21,28-29,32-36,39-40H2,3-4H3

>  <source>  (663) 
ChEMBL25

>  <source_id>  (663) 
25

>  <optional_reference>  (663) 
10.1016/j.bmcl.2012.04.125

>  <optional_origin>  (663) 
None

>  <target>  (663) 
MDR1

$$$$

     RDKit          2D

 75 78  0  0  0  0  0  0  0  0999 V2000
    2.3292   -3.4917    0.0000 N   0  0  0  0  0  0  0  0  0  0  0  0
    3.3667   -0.2042    0.0000 N   0  0  0  0  0  0  0  0  0  0  0  0
    5.0542   -3.4417    0.0000 C   0  0  0  0  0  0  0  0  0  0  0  0
    2.9292   -3.4917    0.0000 C   0  0  0  0  0  0  0  0  0  0  0  0
    2.7792   -0.0417    0.0000 C   0  0  0  0  0  0  0  0  0  0  0  0
    5.5667   -2.5417    0.0000 N   0  0  0  0  0  0  0  0  0  0  0  0
    5.0667   -4.0417    0.0000 N   0  0  0  0  0  0  0  0  0  0  0  0
    1.4292   -2.9792    0.0000 C   0  0  0  0  0  0  0  0  0  0  0  0
    4.1042   -0.9292    0.0000 C   0  0  0  0  0  0  0  0  0  0  0  0
    5.5667   -3.1417    0.0000 C   0  0  0  0  0  0  0  0  0  0  0  0
    3.8167   -4.0167    0.0000 N   0  0  0  0  0  0  0  0  0  0  0  0
    5.0417   -2.2542    0.0000 C   0  0  0  0  0  0  0  0  0  0  0  0
    4.1167   -4.5167    0.0000 C   0  0  0  0  0  0  0  0  0  0  0  0
    4.5292   -1.3667    0.0000 N   0  0  0  0  0  0  0  0  0  0  0  0
    1.1417   -2.4667    0.0000 N   0  0  0  0  0  0  0  0  0  0  0  0
    0.2417   -1.9417    0.0000 C   0  0  0  0  0  0  0  0  0  0  0  0
    0.0292   -1.1667    0.0000 N   0  0  0  0  0  0  0  0  0  0  0  0
    3.2167   -4.0167    0.0000 C   0  0  0  0  0  0  0  0  0  0  0  0
    5.0417   -1.6542    0.0000 C   0  0  0  0  0  0  0  0  0  0  0  0
    3.5167   -0.7792    0.0000 C   0  0  0  0  0  0  0  0  0  0  0  0
    2.0292   -2.9792    0.0000 C   0  0  0  0  0  0  0  0  0  0  0  0
    0.5417   -2.4667    0.0000 C   0  0  0  0  0  0  0  0  0  0  0  0
    2.2667    0.2583    0.0000 C   0  0  0  0  0  0  0  0  0  0  0  0
    4.7167   -4.5167    0.0000 C   0  0  0  0  0  0  0  0  0  0  0  0
    1.4292   -0.0042    0.0000 O   0  0  0  0  0  0  0  0  0  0  0  0
    0.8042   -0.4167    0.0000 C   0  0  0  0  0  0  0  0  0  0  0  0
    0.0542   -0.4792    0.0000 C   0  0  0  0  0  0  0  0  0  0  0  0
    4.5417   -3.1542    0.0000 O   0  0  0  0  0  0  0  0  0  0  0  0
    3.2167   -2.9792    0.0000 O   0  0  0  0  0  0  0  0  0  0  0  0
    2.3667   -0.4667    0.0000 O   0  0  0  0  0  0  0  0  0  0  0  0
    6.0917   -3.4292    0.0000 C   0  0  0  0  0  0  0  0  0  0  0  0
    4.4042   -0.4292    0.0000 O   0  0  0  0  0  0  0  0  0  0  0  0
    1.1417   -3.4917    0.0000 O   0  0  0  0  0  0  0  0  0  0  0  0
    4.5292   -2.5542    0.0000 O   0  0  0  0  0  0  0  0  0  0  0  0
    3.8167   -5.0417    0.0000 O   0  0  0  0  0  0  0  0  0  0  0  0
    5.5542   -1.3542    0.0000 C   0  0  0  0  0  0  0  0  0  0  0  0
   -0.3583   -1.9417    0.0000 O   0  0  0  0  0  0  0  0  0  0  0  0
    0.2417   -2.9792    0.0000 C   0  0  0  0  0  0  0  0  0  0  0  0
    0.4667    0.2958    0.0000 O   0  0  0  0  0  0  0  0  0  0  0  0
    2.9292   -4.5167    0.0000 C   0  0  0  0  0  0  0  0  0  0  0  0
    2.2667    0.8583    0.0000 C   0  0  0  0  0  0  0  0  0  0  0  0
    3.7917    0.2208    0.0000 C   0  0  0  0  0  0  0  0  0  0  0  0
    2.0292   -4.0167    0.0000 C   0  0  0  0  0  0  0  0  0  0  0  0
    2.3292   -2.4667    0.0000 C   0  0  0  0  0  0  0  0  0  0  0  0
    3.0917   -1.2042    0.0000 C   0  0  0  0  0  0  0  0  0  0  0  0
    5.6292   -4.2292    0.0000 C   0  0  0  0  0  0  0  0  0  0  0  0
    6.0792   -2.2417    0.0000 C   0  0  0  0  0  0  0  0  0  0  0  0
   -0.8458   -1.2667    0.0000 C   0  0  0  0  0  0  0  0  0  0  0  0
    6.6042   -3.1292    0.0000 C   0  0  0  0  0  0  0  0  0  0  0  0
    6.1417   -1.3417    0.0000 C   0  0  0  0  0  0  0  0  0  0  0  0
    5.0667   -5.0042    0.0000 C   0  0  0  0  0  0  0  0  0  0  0  0
    5.6292   -4.8167    0.0000 C   0  0  0  0  0  0  0  0  0  0  0  0
   -0.3583   -2.9792    0.0000 C   0  0  0  0  0  0  0  0  0  0  0  0
    2.7792    1.1458    0.0000 C   0  0  0  0  0  0  0  0  0  0  0  0
    3.2167   -5.0417    0.0000 C   0  0  0  0  0  0  0  0  0  0  0  0
    2.3292   -4.5167    0.0000 C   0  0  0  0  0  0  0  0  0  0  0  0
    1.7542    1.1458    0.0000 C   0  0  0  0  0  0  0  0  0  0  0  0
    2.0292   -1.9417    0.0000 C   0  0  0  0  0  0  0  0  0  0  0  0
    2.9292   -2.4667    0.0000 C   0  0  0  0  0  0  0  0  0  0  0  0
    2.5167   -1.0417    0.0000 C   0  0  0  0  0  0  0  0  0  0  0  0
    3.2542   -1.7792    0.0000 C   0  0  0  0  0  0  0  0  0  0  0  0
    6.4417   -0.8292    0.0000 C   0  0  0  0  0  0  0  0  0  0  0  0
    6.5917   -2.5292    0.0000 C   0  0  0  0  0  0  0  0  0  0  0  0
    7.1167   -3.4292    0.0000 C   0  0  0  0  0  0  0  0  0  0  0  0
    6.4417   -1.8667    0.0000 C   0  0  0  0  0  0  0  0  0  0  0  0
   -0.6458   -3.4917    0.0000 C   0  0  0  0  0  0  0  0  0  0  0  0
   -0.6458   -2.4667    0.0000 C   0  0  0  0  0  0  0  0  0  0  0  0
    2.7792    1.7458    0.0000 C   0  0  0  0  0  0  0  0  0  0  0  0
    2.9292   -5.5542    0.0000 C   0  0  0  0  0  0  0  0  0  0  0  0
    7.1167   -2.2292    0.0000 C   0  0  0  0  0  0  0  0  0  0  0  0
    7.0417   -1.8542    0.0000 C   0  0  0  0  0  0  0  0  0  0  0  0
    7.0292   -0.8292    0.0000 C   0  0  0  0  0  0  0  0  0  0  0  0
    7.6167   -3.1292    0.0000 C   0  0  0  0  0  0  0  0  0  0  0  0
    7.6167   -2.5292    0.0000 C   0  0  0  0  0  0  0  0  0  0  0  0
    7.3292   -1.3417    0.0000 C   0  0  0  0  0  0  0  0  0  0  0  0
  2  5  1  0
  3  7  1  0
  4  1  1  0
  5 23  1  0
  6 10  1  0
  7 24  1  0
  8 21  1  0
  9 14  1  0
 10  3  1  0
 11 18  1  0
 12  6  1  0
 13 11  1  0
 14 19  1  0
 15  8  1  0
 16 22  1  0
 17 16  1  0
 18  4  1  0
 19 12  1  0
 20  2  1  0
 21  1  1  0
 22 15  1  0
 23 25  1  0
 24 13  1  0
 25 26  1  0
 26 27  1  0
 27 17  1  0
 28  3  2  0
 29  4  2  0
 30  5  2  0
 10 31  1  0
 32  9  2  0
 33  8  2  0
 34 12  2  0
 35 13  2  0
 19 36  1  0
 37 16  2  0
 22 38  1  0
 39 26  2  0
 18 40  1  0
 23 41  1  0
 42  2  1  0
 43  1  1  0
 21 44  1  0
 20 45  1  0
 46  7  1  0
 47  6  1  0
 48 17  1  0
 49 31  1  0
 50 36  1  0
 24 51  1  0
 52 51  1  0
 53 38  1  0
 54 41  1  0
 55 40  1  0
 40 56  1  0
 41 57  1  0
 58 44  1  0
 59 44  1  0
 60 45  1  0
 61 45  1  0
 62 50  2  0
 63 49  2  0
 64 49  1  0
 65 50  1  0
 66 53  1  0
 67 53  1  0
 68 54  1  0
 69 55  1  0
 70 63  1  0
 71 65  2  0
 72 62  1  0
 73 64  2  0
 74 73  1  0
 75 71  1  0
 52 46  1  0
 20  9  1  0
 70 74  2  0
 75 72  2  0
M  END
>  <Classification>  (664) 
1

>  <pchembl>  (664) 
6.05

>  <InChI_steorem>  (664) 
InChI=1S/C57H86N8O10/c1-15-37(9)46-56(73)63(13)47(35(5)6)51(68)58-41(30-34(3)4)53(70)61(11)33-45(66)75-49(38(10)16-2)57(74)64(14)48(36(7)8)52(69)59-42(31-39-24-19-17-20-25-39)54(71)62(12)44(32-40-26-21-18-22-27-40)55(72)65-29-23-28-43(65)50(67)60-46/h17-22,24-27,34-38,41-44,46-49H,15-16,23,28-33H2,1-14H3,(H,58,68)(H,59,69)(H,60,67)

>  <source>  (664) 
ChEMBL25

>  <source_id>  (664) 
25

>  <optional_reference>  (664) 
10.1021/jm990955w

>  <optional_origin>  (664) 
None

>  <target>  (664) 
MDR1

$$$$

     RDKit          2D

 78 81  0  0  0  0  0  0  0  0999 V2000
    0.5250   -1.0167    0.0000 N   0  0  0  0  0  0  0  0  0  0  0  0
    2.3375   -3.1042    0.0000 N   0  0  0  0  0  0  0  0  0  0  0  0
    3.3875    0.2333    0.0000 N   0  0  0  0  0  0  0  0  0  0  0  0
    5.1000   -3.0417    0.0000 C   0  0  0  0  0  0  0  0  0  0  0  0
    2.9375   -3.1042    0.0000 C   0  0  0  0  0  0  0  0  0  0  0  0
    2.6500    0.3083    0.0000 C   0  0  0  0  0  0  0  0  0  0  0  0
    5.6125   -2.1417    0.0000 N   0  0  0  0  0  0  0  0  0  0  0  0
    0.6750    0.1958    0.0000 C   0  0  0  0  0  0  0  0  0  0  0  0
    5.1000   -3.6542    0.0000 N   0  0  0  0  0  0  0  0  0  0  0  0
    0.3000   -0.3292    0.0000 C   0  0  0  0  0  0  0  0  0  0  0  0
    0.2125   -1.5292    0.0000 C   0  0  0  0  0  0  0  0  0  0  0  0
    1.4250   -2.5792    0.0000 C   0  0  0  0  0  0  0  0  0  0  0  0
    4.1375   -0.5167    0.0000 C   0  0  0  0  0  0  0  0  0  0  0  0
    5.6250   -2.7417    0.0000 C   0  0  0  0  0  0  0  0  0  0  0  0
    3.8375   -3.6292    0.0000 N   0  0  0  0  0  0  0  0  0  0  0  0
    5.0875   -1.8417    0.0000 C   0  0  0  0  0  0  0  0  0  0  0  0
    1.4875    0.3083    0.0000 O   0  0  0  0  0  0  0  0  0  0  0  0
    4.1500   -4.1417    0.0000 C   0  0  0  0  0  0  0  0  0  0  0  0
    1.1250   -2.0542    0.0000 N   0  0  0  0  0  0  0  0  0  0  0  0
    4.5625   -0.9417    0.0000 N   0  0  0  0  0  0  0  0  0  0  0  0
    3.2375   -3.6292    0.0000 C   0  0  0  0  0  0  0  0  0  0  0  0
    2.1125    0.5958    0.0000 C   0  0  0  0  0  0  0  0  0  0  0  0
    0.5250   -2.0542    0.0000 C   0  0  0  0  0  0  0  0  0  0  0  0
    5.0875   -1.2417    0.0000 C   0  0  0  0  0  0  0  0  0  0  0  0
    2.0250   -2.5792    0.0000 C   0  0  0  0  0  0  0  0  0  0  0  0
    3.5500   -0.3542    0.0000 C   0  0  0  0  0  0  0  0  0  0  0  0
    4.7500   -4.1417    0.0000 C   0  0  0  0  0  0  0  0  0  0  0  0
   -0.4375   -0.2667    0.0000 C   0  0  0  0  0  0  0  0  0  0  0  0
    4.5750   -2.7542    0.0000 O   0  0  0  0  0  0  0  0  0  0  0  0
    2.5000   -0.1917    0.0000 O   0  0  0  0  0  0  0  0  0  0  0  0
    3.2375   -2.5792    0.0000 O   0  0  0  0  0  0  0  0  0  0  0  0
    0.3625    0.7083    0.0000 O   0  0  0  0  0  0  0  0  0  0  0  0
    6.1500   -3.0417    0.0000 C   0  0  0  0  0  0  0  0  0  0  0  0
    4.4375    0.0083    0.0000 O   0  0  0  0  0  0  0  0  0  0  0  0
    1.1250   -3.1042    0.0000 O   0  0  0  0  0  0  0  0  0  0  0  0
   -0.3875   -1.5292    0.0000 O   0  0  0  0  0  0  0  0  0  0  0  0
    4.5625   -2.1542    0.0000 O   0  0  0  0  0  0  0  0  0  0  0  0
    3.8375   -4.6792    0.0000 O   0  0  0  0  0  0  0  0  0  0  0  0
    5.6000   -0.9292    0.0000 C   0  0  0  0  0  0  0  0  0  0  0  0
    0.2125   -2.5792    0.0000 C   0  0  0  0  0  0  0  0  0  0  0  0
    2.9375   -4.1417    0.0000 C   0  0  0  0  0  0  0  0  0  0  0  0
    2.1500    1.1583    0.0000 C   0  0  0  0  0  0  0  0  0  0  0  0
    1.1250   -1.0167    0.0000 C   0  0  0  0  0  0  0  0  0  0  0  0
    3.8125    0.6583    0.0000 C   0  0  0  0  0  0  0  0  0  0  0  0
    2.0250   -3.6292    0.0000 C   0  0  0  0  0  0  0  0  0  0  0  0
    2.3375   -2.0542    0.0000 C   0  0  0  0  0  0  0  0  0  0  0  0
    3.1125   -0.7792    0.0000 C   0  0  0  0  0  0  0  0  0  0  0  0
    5.6750   -3.8417    0.0000 C   0  0  0  0  0  0  0  0  0  0  0  0
    6.1375   -1.8292    0.0000 C   0  0  0  0  0  0  0  0  0  0  0  0
   -0.7500   -0.7792    0.0000 O   0  0  0  0  0  0  0  0  0  0  0  0
    6.6750   -2.7292    0.0000 C   0  0  0  0  0  0  0  0  0  0  0  0
    6.2125   -0.9292    0.0000 C   0  0  0  0  0  0  0  0  0  0  0  0
    5.1000   -4.6417    0.0000 C   0  0  0  0  0  0  0  0  0  0  0  0
    5.6750   -4.4542    0.0000 C   0  0  0  0  0  0  0  0  0  0  0  0
   -0.3875   -2.5792    0.0000 C   0  0  0  0  0  0  0  0  0  0  0  0
   -0.5625    0.1083    0.0000 C   0  0  0  0  0  0  0  0  0  0  0  0
   -0.9375   -0.2042    0.0000 C   0  0  0  0  0  0  0  0  0  0  0  0
    3.2375   -4.6792    0.0000 C   0  0  0  0  0  0  0  0  0  0  0  0
    2.4375    1.4083    0.0000 C   0  0  0  0  0  0  0  0  0  0  0  0
    1.8375    1.4083    0.0000 C   0  0  0  0  0  0  0  0  0  0  0  0
    2.3375   -4.1417    0.0000 C   0  0  0  0  0  0  0  0  0  0  0  0
    2.0250   -1.5292    0.0000 C   0  0  0  0  0  0  0  0  0  0  0  0
    2.9375   -2.0542    0.0000 C   0  0  0  0  0  0  0  0  0  0  0  0
    2.4625   -0.8917    0.0000 C   0  0  0  0  0  0  0  0  0  0  0  0
    3.2625   -1.3667    0.0000 C   0  0  0  0  0  0  0  0  0  0  0  0
    6.5000   -0.4042    0.0000 C   0  0  0  0  0  0  0  0  0  0  0  0
    6.6625   -2.1292    0.0000 C   0  0  0  0  0  0  0  0  0  0  0  0
    7.2000   -3.0417    0.0000 C   0  0  0  0  0  0  0  0  0  0  0  0
    6.5125   -1.4542    0.0000 C   0  0  0  0  0  0  0  0  0  0  0  0
   -0.6875   -3.1042    0.0000 C   0  0  0  0  0  0  0  0  0  0  0  0
   -0.6875   -2.0542    0.0000 C   0  0  0  0  0  0  0  0  0  0  0  0
    2.9375   -5.2042    0.0000 C   0  0  0  0  0  0  0  0  0  0  0  0
    7.7125   -2.7292    0.0000 C   0  0  0  0  0  0  0  0  0  0  0  0
    7.1875   -1.8292    0.0000 C   0  0  0  0  0  0  0  0  0  0  0  0
    7.1125   -1.4417    0.0000 C   0  0  0  0  0  0  0  0  0  0  0  0
    7.1000   -0.4042    0.0000 C   0  0  0  0  0  0  0  0  0  0  0  0
    7.4125   -0.9167    0.0000 C   0  0  0  0  0  0  0  0  0  0  0  0
    7.7000   -2.1292    0.0000 C   0  0  0  0  0  0  0  0  0  0  0  0
  2 25  1  0
  3  6  1  0
  4  9  1  0
  5  2  1  0
  6 22  1  0
  7 16  1  0
  8 10  1  0
  9 27  1  0
 10  1  1  0
 11  1  1  0
 12 19  1  0
 13 26  1  0
 14  7  1  0
 15 21  1  0
 16 24  1  0
 17  8  1  0
 18 15  1  0
 19 23  1  0
 20 13  1  0
 21  5  1  0
 22 17  1  0
 23 11  1  0
 24 20  1  0
 25 12  1  0
 26  3  1  0
 27 18  1  0
 10 28  1  0
 29  4  2  0
 30  6  2  0
 31  5  2  0
 32  8  2  0
 14 33  1  0
 34 13  2  0
 35 12  2  0
 36 11  2  0
 37 16  2  0
 38 18  2  0
 24 39  1  0
 23 40  1  0
 21 41  1  0
 22 42  1  0
 43  1  1  0
 44  3  1  0
 45  2  1  0
 25 46  1  0
 26 47  1  0
 48  9  1  0
 49  7  1  0
 50 28  1  0
 51 33  1  0
 52 39  1  0
 27 53  1  0
 54 53  1  0
 55 40  1  0
 56 28  1  0
 57 28  1  0
 58 41  1  0
 59 42  1  0
 60 42  1  0
 41 61  1  0
 62 46  1  0
 63 46  1  0
 64 47  1  0
 65 47  1  0
 66 52  2  0
 67 51  2  0
 68 51  1  0
 69 52  1  0
 70 55  1  0
 71 55  1  0
 72 58  1  0
 73 68  2  0
 74 67  1  0
 75 69  2  0
 76 66  1  0
 77 75  1  0
 78 73  1  0
 48 54  1  0
 14  4  1  0
 77 76  2  0
 78 74  2  0
M  END
>  <Classification>  (665) 
1

>  <pchembl>  (665) 
5.96

>  <InChI_steorem>  (665) 
InChI=1S/C59H90N8O11/c1-17-38(10)45-56(74)64(14)46(35(4)5)51(69)60-41(31-34(2)3)54(72)66(16)49(59(11,12)77)58(76)78-48(37(8)9)57(75)65(15)47(36(6)7)52(70)61-42(32-39-25-20-18-21-26-39)53(71)63(13)44(33-40-27-22-19-23-28-40)55(73)67-30-24-29-43(67)50(68)62-45/h18-23,25-28,34-38,41-49,77H,17,24,29-33H2,1-16H3,(H,60,69)(H,61,70)(H,62,68)

>  <source>  (665) 
ChEMBL25

>  <source_id>  (665) 
25

>  <optional_reference>  (665) 
10.1021/jm990955w

>  <optional_origin>  (665) 
None

>  <target>  (665) 
MDR1

$$$$

     RDKit          2D

 78 81  0  0  0  0  0  0  0  0999 V2000
    0.7789   -2.2386    0.0000 N   0  0  0  0  0  0  0  0  0  0  0  0
    3.2540   -5.0946    0.0000 N   0  0  0  0  0  0  0  0  0  0  0  0
    4.6906   -0.5424    0.0000 N   0  0  0  0  0  0  0  0  0  0  0  0
    7.0331   -5.0253    0.0000 C   0  0  0  0  0  0  0  0  0  0  0  0
    4.0848   -5.0946    0.0000 C   0  0  0  0  0  0  0  0  0  0  0  0
    3.8830   -0.3174    0.0000 C   0  0  0  0  0  0  0  0  0  0  0  0
    7.7370   -3.7791    0.0000 N   0  0  0  0  0  0  0  0  0  0  0  0
    0.9924   -0.5770    0.0000 C   0  0  0  0  0  0  0  0  0  0  0  0
    7.0446   -5.8561    0.0000 N   0  0  0  0  0  0  0  0  0  0  0  0
    0.4731   -1.3040    0.0000 C   0  0  0  0  0  0  0  0  0  0  0  0
    0.3635   -2.9483    0.0000 C   0  0  0  0  0  0  0  0  0  0  0  0
    2.0136   -4.3849    0.0000 C   0  0  0  0  0  0  0  0  0  0  0  0
    5.7119   -1.5636    0.0000 C   0  0  0  0  0  0  0  0  0  0  0  0
    7.7428   -4.6099    0.0000 C   0  0  0  0  0  0  0  0  0  0  0  0
    5.3311   -5.8215    0.0000 N   0  0  0  0  0  0  0  0  0  0  0  0
    7.0158   -3.3810    0.0000 C   0  0  0  0  0  0  0  0  0  0  0  0
    2.2040   -0.4558    0.0000 O   0  0  0  0  0  0  0  0  0  0  0  0
    5.7292   -6.5139    0.0000 C   0  0  0  0  0  0  0  0  0  0  0  0
    1.6097   -3.6753    0.0000 N   0  0  0  0  0  0  0  0  0  0  0  0
    6.3004   -2.1521    0.0000 N   0  0  0  0  0  0  0  0  0  0  0  0
    4.5003   -5.8215    0.0000 C   0  0  0  0  0  0  0  0  0  0  0  0
    3.1733    0.0980    0.0000 C   0  0  0  0  0  0  0  0  0  0  0  0
    0.7789   -3.6753    0.0000 C   0  0  0  0  0  0  0  0  0  0  0  0
    7.0100   -2.5502    0.0000 C   0  0  0  0  0  0  0  0  0  0  0  0
    4.9042   -1.3386    0.0000 C   0  0  0  0  0  0  0  0  0  0  0  0
    2.8386   -4.3849    0.0000 C   0  0  0  0  0  0  0  0  0  0  0  0
    6.5600   -6.5139    0.0000 C   0  0  0  0  0  0  0  0  0  0  0  0
   -0.5308   -1.2347    0.0000 C   0  0  0  0  0  0  0  0  0  0  0  0
    6.3177   -4.6272    0.0000 O   0  0  0  0  0  0  0  0  0  0  0  0
    4.5003   -4.3849    0.0000 O   0  0  0  0  0  0  0  0  0  0  0  0
    3.2945   -0.9059    0.0000 O   0  0  0  0  0  0  0  0  0  0  0  0
    0.5597    0.1153    0.0000 O   0  0  0  0  0  0  0  0  0  0  0  0
    8.4639   -5.0080    0.0000 C   0  0  0  0  0  0  0  0  0  0  0  0
    6.1273   -0.8539    0.0000 O   0  0  0  0  0  0  0  0  0  0  0  0
    1.6097   -5.0946    0.0000 O   0  0  0  0  0  0  0  0  0  0  0  0
   -0.4615   -2.9483    0.0000 O   0  0  0  0  0  0  0  0  0  0  0  0
    6.3062   -3.7964    0.0000 O   0  0  0  0  0  0  0  0  0  0  0  0
    5.3138   -7.2408    0.0000 O   0  0  0  0  0  0  0  0  0  0  0  0
    7.7197   -2.1348    0.0000 C   0  0  0  0  0  0  0  0  0  0  0  0
    0.3635   -4.3849    0.0000 C   0  0  0  0  0  0  0  0  0  0  0  0
    4.0848   -6.5312    0.0000 C   0  0  0  0  0  0  0  0  0  0  0  0
    3.1675    0.9115    0.0000 C   0  0  0  0  0  0  0  0  0  0  0  0
    1.6097   -2.2386    0.0000 C   0  0  0  0  0  0  0  0  0  0  0  0
    2.8386   -5.8215    0.0000 C   0  0  0  0  0  0  0  0  0  0  0  0
    5.2791    0.0461    0.0000 C   0  0  0  0  0  0  0  0  0  0  0  0
    4.3157   -1.9271    0.0000 C   0  0  0  0  0  0  0  0  0  0  0  0
    3.2540   -3.6753    0.0000 C   0  0  0  0  0  0  0  0  0  0  0  0
    7.8235   -6.1158    0.0000 C   0  0  0  0  0  0  0  0  0  0  0  0
    8.4466   -3.3637    0.0000 C   0  0  0  0  0  0  0  0  0  0  0  0
   -0.9520   -1.9271    0.0000 O   0  0  0  0  0  0  0  0  0  0  0  0
    9.1736   -4.5926    0.0000 C   0  0  0  0  0  0  0  0  0  0  0  0
    8.5390   -2.1348    0.0000 C   0  0  0  0  0  0  0  0  0  0  0  0
    7.0446   -7.1889    0.0000 C   0  0  0  0  0  0  0  0  0  0  0  0
    7.8235   -6.9293    0.0000 C   0  0  0  0  0  0  0  0  0  0  0  0
   -0.4615   -4.3849    0.0000 C   0  0  0  0  0  0  0  0  0  0  0  0
   -1.2231   -1.1482    0.0000 C   0  0  0  0  0  0  0  0  0  0  0  0
   -0.6923   -0.7155    0.0000 C   0  0  0  0  0  0  0  0  0  0  0  0
    3.8830    1.3270    0.0000 C   0  0  0  0  0  0  0  0  0  0  0  0
    3.2540   -6.5312    0.0000 C   0  0  0  0  0  0  0  0  0  0  0  0
    4.5003   -7.2581    0.0000 C   0  0  0  0  0  0  0  0  0  0  0  0
    2.4636    1.3270    0.0000 C   0  0  0  0  0  0  0  0  0  0  0  0
    4.0848   -3.6753    0.0000 C   0  0  0  0  0  0  0  0  0  0  0  0
    3.5195   -1.7021    0.0000 C   0  0  0  0  0  0  0  0  0  0  0  0
    4.5349   -2.7233    0.0000 C   0  0  0  0  0  0  0  0  0  0  0  0
    2.8386   -2.9483    0.0000 C   0  0  0  0  0  0  0  0  0  0  0  0
    9.1621   -3.7618    0.0000 C   0  0  0  0  0  0  0  0  0  0  0  0
    9.8891   -5.0080    0.0000 C   0  0  0  0  0  0  0  0  0  0  0  0
    8.9544   -2.8444    0.0000 C   0  0  0  0  0  0  0  0  0  0  0  0
    8.9486   -1.4078    0.0000 C   0  0  0  0  0  0  0  0  0  0  0  0
   -0.8654   -3.6753    0.0000 C   0  0  0  0  0  0  0  0  0  0  0  0
   -0.8654   -5.0946    0.0000 C   0  0  0  0  0  0  0  0  0  0  0  0
    3.8830    2.1578    0.0000 C   0  0  0  0  0  0  0  0  0  0  0  0
    9.7794   -2.8271    0.0000 C   0  0  0  0  0  0  0  0  0  0  0  0
    9.7621   -1.4078    0.0000 C   0  0  0  0  0  0  0  0  0  0  0  0
   10.5929   -4.5926    0.0000 C   0  0  0  0  0  0  0  0  0  0  0  0
    9.8832   -3.3464    0.0000 C   0  0  0  0  0  0  0  0  0  0  0  0
   10.1775   -2.1175    0.0000 C   0  0  0  0  0  0  0  0  0  0  0  0
   10.5814   -3.7618    0.0000 C   0  0  0  0  0  0  0  0  0  0  0  0
  2 26  1  0
  3  6  1  0
  4  9  1  0
  5  2  1  0
  6 22  1  0
  7 16  1  0
  8 10  1  0
  9 27  1  0
 10  1  1  0
 11  1  1  0
 12 19  1  0
 13 25  1  0
 14  7  1  0
 15 21  1  0
 16 24  1  0
 17  8  1  0
 18 15  1  0
 19 23  1  0
 20 13  1  0
 21  5  1  0
 22 17  1  0
 23 11  1  0
 24 20  1  0
 25  3  1  0
 26 12  1  0
 27 18  1  0
 10 28  1  0
 29  4  2  0
 30  5  2  0
 31  6  2  0
 32  8  2  0
 14 33  1  0
 34 13  2  0
 35 12  2  0
 36 11  2  0
 37 16  2  0
 38 18  2  0
 24 39  1  0
 23 40  1  0
 21 41  1  0
 22 42  1  0
 43  1  1  0
 44  2  1  0
 45  3  1  0
 25 46  1  0
 26 47  1  0
 48  9  1  0
 49  7  1  0
 50 28  1  0
 51 33  1  0
 52 39  1  0
 27 53  1  0
 54 53  1  0
 55 40  1  0
 56 28  1  0
 57 28  1  0
 58 42  1  0
 59 41  1  0
 60 41  1  0
 42 61  1  0
 62 47  1  0
 63 46  1  0
 64 46  1  0
 65 47  1  0
 66 51  2  0
 67 51  1  0
 68 52  2  0
 69 52  1  0
 70 55  1  0
 71 55  1  0
 72 58  1  0
 73 68  1  0
 74 69  2  0
 75 67  2  0
 76 66  1  0
 77 74  1  0
 78 75  1  0
 48 54  1  0
 14  4  1  0
 77 73  2  0
 78 76  2  0
M  END
>  <Classification>  (666) 
1

>  <pchembl>  (666) 
5.89

>  <InChI_steorem>  (666) 
InChI=1S/C59H90N8O11/c1-17-38(10)48-57(75)65(15)47(37(8)9)52(70)61-42(32-39-25-20-18-21-26-39)53(71)63(13)44(33-40-27-22-19-23-28-40)55(73)67-30-24-29-43(67)50(68)62-45(35(4)5)56(74)64(14)46(36(6)7)51(69)60-41(31-34(2)3)54(72)66(16)49(58(76)78-48)59(11,12)77/h18-23,25-28,34-38,41-49,77H,17,24,29-33H2,1-16H3,(H,60,69)(H,61,70)(H,62,68)

>  <source>  (666) 
ChEMBL25

>  <source_id>  (666) 
25

>  <optional_reference>  (666) 
10.1021/jm990955w

>  <optional_origin>  (666) 
None

>  <target>  (666) 
MDR1

$$$$

     RDKit          2D

 77 80  0  0  0  0  0  0  0  0999 V2000
    4.5234   -0.2769    0.0000 N   0  0  0  0  0  0  0  0  0  0  0  0
    0.6116   -1.9732    0.0000 N   0  0  0  0  0  0  0  0  0  0  0  0
    6.8774   -4.7657    0.0000 C   0  0  0  0  0  0  0  0  0  0  0  0
    3.7272   -0.0577    0.0000 C   0  0  0  0  0  0  0  0  0  0  0  0
    7.5697   -3.5137    0.0000 N   0  0  0  0  0  0  0  0  0  0  0  0
    6.8774   -5.5907    0.0000 N   0  0  0  0  0  0  0  0  0  0  0  0
    0.7674   -0.3462    0.0000 C   0  0  0  0  0  0  0  0  0  0  0  0
    0.1962   -2.6887    0.0000 C   0  0  0  0  0  0  0  0  0  0  0  0
    5.5446   -1.2981    0.0000 C   0  0  0  0  0  0  0  0  0  0  0  0
    7.5870   -4.3445    0.0000 C   0  0  0  0  0  0  0  0  0  0  0  0
    6.8600   -3.1156    0.0000 C   0  0  0  0  0  0  0  0  0  0  0  0
    5.1465   -5.5446    0.0000 N   0  0  0  0  0  0  0  0  0  0  0  0
    3.0868   -4.8349    0.0000 N   0  0  0  0  0  0  0  0  0  0  0  0
    2.0482   -0.1904    0.0000 O   0  0  0  0  0  0  0  0  0  0  0  0
    5.5619   -6.2542    0.0000 C   0  0  0  0  0  0  0  0  0  0  0  0
    3.9176   -4.8349    0.0000 C   0  0  0  0  0  0  0  0  0  0  0  0
    6.1331   -1.8866    0.0000 N   0  0  0  0  0  0  0  0  0  0  0  0
    1.8578   -4.1195    0.0000 C   0  0  0  0  0  0  0  0  0  0  0  0
    1.4424   -3.4098    0.0000 N   0  0  0  0  0  0  0  0  0  0  0  0
    3.0175    0.3577    0.0000 C   0  0  0  0  0  0  0  0  0  0  0  0
    6.8427   -2.2906    0.0000 C   0  0  0  0  0  0  0  0  0  0  0  0
    0.6116   -3.4098    0.0000 C   0  0  0  0  0  0  0  0  0  0  0  0
    4.7484   -1.0790    0.0000 C   0  0  0  0  0  0  0  0  0  0  0  0
    0.2828   -0.9866    0.0000 C   0  0  0  0  0  0  0  0  0  0  0  0
    6.3927   -6.2542    0.0000 C   0  0  0  0  0  0  0  0  0  0  0  0
    4.3330   -5.5446    0.0000 C   0  0  0  0  0  0  0  0  0  0  0  0
    2.6713   -4.1195    0.0000 C   0  0  0  0  0  0  0  0  0  0  0  0
    6.1504   -4.3618    0.0000 O   0  0  0  0  0  0  0  0  0  0  0  0
    3.1387   -0.6404    0.0000 O   0  0  0  0  0  0  0  0  0  0  0  0
    8.2967   -4.7484    0.0000 C   0  0  0  0  0  0  0  0  0  0  0  0
    0.1962    0.3057    0.0000 O   0  0  0  0  0  0  0  0  0  0  0  0
    5.9600   -0.5885    0.0000 O   0  0  0  0  0  0  0  0  0  0  0  0
   -0.6346   -2.6887    0.0000 O   0  0  0  0  0  0  0  0  0  0  0  0
    6.1504   -3.5310    0.0000 O   0  0  0  0  0  0  0  0  0  0  0  0
    5.1465   -6.9754    0.0000 O   0  0  0  0  0  0  0  0  0  0  0  0
    4.3330   -4.1195    0.0000 O   0  0  0  0  0  0  0  0  0  0  0  0
    1.4424   -4.8349    0.0000 O   0  0  0  0  0  0  0  0  0  0  0  0
    7.5524   -1.8693    0.0000 C   0  0  0  0  0  0  0  0  0  0  0  0
    0.1962   -4.1195    0.0000 C   0  0  0  0  0  0  0  0  0  0  0  0
    3.0002    1.1770    0.0000 C   0  0  0  0  0  0  0  0  0  0  0  0
    5.1119    0.3057    0.0000 C   0  0  0  0  0  0  0  0  0  0  0  0
    1.4424   -1.9732    0.0000 C   0  0  0  0  0  0  0  0  0  0  0  0
    4.1599   -1.6616    0.0000 C   0  0  0  0  0  0  0  0  0  0  0  0
   -0.4961   -0.9001    0.0000 C   0  0  0  0  0  0  0  0  0  0  0  0
    7.6562   -5.8503    0.0000 C   0  0  0  0  0  0  0  0  0  0  0  0
    3.0868   -3.4098    0.0000 C   0  0  0  0  0  0  0  0  0  0  0  0
    3.9176   -6.2542    0.0000 C   0  0  0  0  0  0  0  0  0  0  0  0
    8.2794   -3.0983    0.0000 C   0  0  0  0  0  0  0  0  0  0  0  0
    9.0063   -4.3272    0.0000 C   0  0  0  0  0  0  0  0  0  0  0  0
    8.3832   -1.8693    0.0000 C   0  0  0  0  0  0  0  0  0  0  0  0
    6.8774   -6.9235    0.0000 C   0  0  0  0  0  0  0  0  0  0  0  0
    7.6562   -6.6697    0.0000 C   0  0  0  0  0  0  0  0  0  0  0  0
   -0.6346   -4.1195    0.0000 C   0  0  0  0  0  0  0  0  0  0  0  0
    3.7272    1.5924    0.0000 C   0  0  0  0  0  0  0  0  0  0  0  0
    4.3330   -6.9754    0.0000 C   0  0  0  0  0  0  0  0  0  0  0  0
    2.3079    1.5924    0.0000 C   0  0  0  0  0  0  0  0  0  0  0  0
    4.3676   -2.4578    0.0000 C   0  0  0  0  0  0  0  0  0  0  0  0
    2.6713   -2.6887    0.0000 C   0  0  0  0  0  0  0  0  0  0  0  0
    3.9176   -3.4098    0.0000 C   0  0  0  0  0  0  0  0  0  0  0  0
    3.3637   -1.4424    0.0000 C   0  0  0  0  0  0  0  0  0  0  0  0
   -1.0500   -0.5366    0.0000 C   0  0  0  0  0  0  0  0  0  0  0  0
   -0.9289   -1.2462    0.0000 C   0  0  0  0  0  0  0  0  0  0  0  0
    3.0868   -6.2542    0.0000 C   0  0  0  0  0  0  0  0  0  0  0  0
    9.0063   -3.5022    0.0000 C   0  0  0  0  0  0  0  0  0  0  0  0
    9.7333   -4.7426    0.0000 C   0  0  0  0  0  0  0  0  0  0  0  0
    8.7986   -2.5790    0.0000 C   0  0  0  0  0  0  0  0  0  0  0  0
    8.7813   -1.1482    0.0000 C   0  0  0  0  0  0  0  0  0  0  0  0
   -1.0327   -4.8349    0.0000 C   0  0  0  0  0  0  0  0  0  0  0  0
   -1.0327   -3.4098    0.0000 C   0  0  0  0  0  0  0  0  0  0  0  0
    3.9176   -7.6909    0.0000 C   0  0  0  0  0  0  0  0  0  0  0  0
    3.7272    2.4232    0.0000 C   0  0  0  0  0  0  0  0  0  0  0  0
    9.6121   -2.5675    0.0000 C   0  0  0  0  0  0  0  0  0  0  0  0
    9.5948   -1.1424    0.0000 C   0  0  0  0  0  0  0  0  0  0  0  0
   10.4256   -4.3272    0.0000 C   0  0  0  0  0  0  0  0  0  0  0  0
    9.7160   -3.0868    0.0000 C   0  0  0  0  0  0  0  0  0  0  0  0
   10.0275   -1.8520    0.0000 C   0  0  0  0  0  0  0  0  0  0  0  0
   10.4256   -3.4963    0.0000 C   0  0  0  0  0  0  0  0  0  0  0  0
  2 24  1  0
  3 10  1  0
  4  1  1  0
  5 11  1  0
  6  3  1  0
  7 14  1  0
  8  2  1  0
  9 23  1  0
 10  5  1  0
 11 21  1  0
 12 15  1  0
 13 27  1  0
 14 20  1  0
 15 25  1  0
 16 13  1  0
 17  9  1  0
 18 19  1  0
 19 22  1  0
 20  4  1  0
 21 17  1  0
 22  8  1  0
 23  1  1  0
 24  7  1  0
 25  6  1  0
 26 12  1  0
 27 18  1  0
 28  3  2  0
 29  4  2  0
 10 30  1  0
 31  7  2  0
 32  9  2  0
 33  8  2  0
 34 11  2  0
 35 15  2  0
 36 16  2  0
 37 18  2  0
 21 38  1  0
 22 39  1  0
 20 40  1  0
 41  1  1  0
 42  2  1  0
 23 43  1  0
 24 44  1  0
 45  6  1  0
 27 46  1  0
 26 47  1  0
 48  5  1  0
 49 30  1  0
 50 38  1  0
 25 51  1  0
 52 45  1  0
 53 39  1  0
 54 40  1  0
 55 47  1  0
 40 56  1  0
 57 43  1  0
 58 46  1  0
 59 46  1  0
 60 43  1  0
 61 44  1  0
 62 44  1  0
 47 63  1  0
 64 49  2  0
 65 49  1  0
 66 50  2  0
 67 50  1  0
 68 53  1  0
 69 53  1  0
 70 55  1  0
 71 54  1  0
 72 66  1  0
 73 67  2  0
 74 65  2  0
 75 64  1  0
 76 73  1  0
 77 74  1  0
 72 76  2  0
 51 52  1  0
 75 77  2  0
 16 26  1  0
M  END
>  <Classification>  (667) 
1

>  <pchembl>  (667) 
5.57

>  <InChI_steorem>  (667) 
InChI=1S/C59H90N8O10/c1-16-38(11)47-53(70)62-46(35(5)6)52(69)60-42(31-34(3)4)56(73)66(15)49(37(9)10)59(76)77-50(39(12)17-2)58(75)65(14)48(36(7)8)54(71)61-43(32-40-25-20-18-21-26-40)55(72)64(13)45(33-41-27-22-19-23-28-41)57(74)67-30-24-29-44(67)51(68)63-47/h18-23,25-28,34-39,42-50H,16-17,24,29-33H2,1-15H3,(H,60,69)(H,61,71)(H,62,70)(H,63,68)

>  <source>  (667) 
ChEMBL25

>  <source_id>  (667) 
25

>  <optional_reference>  (667) 
10.1021/jm990955w

>  <optional_origin>  (667) 
None

>  <target>  (667) 
MDR1

$$$$

     RDKit          2D

 81 81  0  0  0  0  0  0  0  0999 V2000
    2.6060    3.3949    0.0000 N   0  0  0  0  0  0  0  0  0  0  0  0
    3.1234    2.1644    0.0000 C   0  0  0  0  0  0  0  0  0  0  0  0
    1.9816    2.8558    0.0000 C   0  0  0  0  0  0  0  0  0  0  0  0
    0.6516    2.1298    0.0000 N   0  0  0  0  0  0  0  0  0  0  0  0
    3.5236    1.3551    0.0000 N   0  0  0  0  0  0  0  0  0  0  0  0
    1.0491    1.4069    0.0000 C   0  0  0  0  0  0  0  0  0  0  0  0
    1.0192   -0.0218    0.0000 N   0  0  0  0  0  0  0  0  0  0  0  0
    0.4724   -6.4420    0.0000 N   0  0  0  0  0  0  0  0  0  0  0  0
    0.8699   -7.1649    0.0000 C   0  0  0  0  0  0  0  0  0  0  0  0
    1.0790    2.8355    0.0000 C   0  0  0  0  0  0  0  0  0  0  0  0
    0.6218    0.7012    0.0000 C   0  0  0  0  0  0  0  0  0  0  0  0
    2.1220   -6.4765    0.0000 N   0  0  0  0  0  0  0  0  0  0  0  0
    2.9767   -5.0651    0.0000 N   0  0  0  0  0  0  0  0  0  0  0  0
    0.5919   -0.7274    0.0000 C   0  0  0  0  0  0  0  0  0  0  0  0
    2.9468   -6.4937    0.0000 C   0  0  0  0  0  0  0  0  0  0  0  0
    3.3117    2.9676    0.0000 C   0  0  0  0  0  0  0  0  0  0  0  0
    3.4937   -0.0735    0.0000 C   0  0  0  0  0  0  0  0  0  0  0  0
    0.5023   -5.0133    0.0000 C   0  0  0  0  0  0  0  0  0  0  0  0
    3.4041   -4.3594    0.0000 C   0  0  0  0  0  0  0  0  0  0  0  0
    3.4339   -2.9308    0.0000 N   0  0  0  0  0  0  0  0  0  0  0  0
    3.0962    0.6494    0.0000 C   0  0  0  0  0  0  0  0  0  0  0  0
    0.8997   -5.7363    0.0000 C   0  0  0  0  0  0  0  0  0  0  0  0
    1.6947   -7.1821    0.0000 C   0  0  0  0  0  0  0  0  0  0  0  0
    3.0663   -0.7792    0.0000 N   0  0  0  0  0  0  0  0  0  0  0  0
    3.3742   -5.7880    0.0000 C   0  0  0  0  0  0  0  0  0  0  0  0
    3.0365   -2.2078    0.0000 C   0  0  0  0  0  0  0  0  0  0  0  0
    0.9296   -4.3076    0.0000 N   0  0  0  0  0  0  0  0  0  0  0  0
    0.5620   -2.1561    0.0000 N   0  0  0  0  0  0  0  0  0  0  0  0
    0.9595   -2.8790    0.0000 C   0  0  0  0  0  0  0  0  0  0  0  0
    0.9894   -1.4504    0.0000 C   0  0  0  0  0  0  0  0  0  0  0  0
    3.4638   -1.5021    0.0000 C   0  0  0  0  0  0  0  0  0  0  0  0
    3.0066   -3.6364    0.0000 C   0  0  0  0  0  0  0  0  0  0  0  0
    0.5321   -3.5847    0.0000 C   0  0  0  0  0  0  0  0  0  0  0  0
    2.3038    2.0702    0.0000 O   0  0  0  0  0  0  0  0  0  0  0  0
    2.0254    2.0320    0.0000 O   0  0  0  0  0  0  0  0  0  0  0  0
    1.8739    1.3896    0.0000 O   0  0  0  0  0  0  0  0  0  0  0  0
    0.4425   -7.8706    0.0000 O   0  0  0  0  0  0  0  0  0  0  0  0
   -0.2329   -0.7102    0.0000 O   0  0  0  0  0  0  0  0  0  0  0  0
    0.6659    3.5496    0.0000 C   0  0  0  0  0  0  0  0  0  0  0  0
   -0.2031    0.7184    0.0000 C   0  0  0  0  0  0  0  0  0  0  0  0
    3.3443   -7.2166    0.0000 O   0  0  0  0  0  0  0  0  0  0  0  0
    4.3185   -0.0907    0.0000 O   0  0  0  0  0  0  0  0  0  0  0  0
   -0.3226   -4.9961    0.0000 O   0  0  0  0  0  0  0  0  0  0  0  0
    4.2289   -4.3766    0.0000 O   0  0  0  0  0  0  0  0  0  0  0  0
    2.2117   -2.1906    0.0000 O   0  0  0  0  0  0  0  0  0  0  0  0
    3.9210    0.6322    0.0000 C   0  0  0  0  0  0  0  0  0  0  0  0
    0.0749   -5.7190    0.0000 C   0  0  0  0  0  0  0  0  0  0  0  0
    4.1990   -5.8053    0.0000 C   0  0  0  0  0  0  0  0  0  0  0  0
    1.7843   -2.8963    0.0000 O   0  0  0  0  0  0  0  0  0  0  0  0
    4.0723    3.2873    0.0000 C   0  0  0  0  0  0  0  0  0  0  0  0
    2.0922   -7.9051    0.0000 C   0  0  0  0  0  0  0  0  0  0  0  0
    2.5370    4.2170    0.0000 C   0  0  0  0  0  0  0  0  0  0  0  0
   -0.1732    2.1471    0.0000 C   0  0  0  0  0  0  0  0  0  0  0  0
    4.2111    1.8112    0.0000 C   0  0  0  0  0  0  0  0  0  0  0  0
    1.8441   -0.0390    0.0000 C   0  0  0  0  0  0  0  0  0  0  0  0
   -0.2050   -6.9128    0.0000 C   0  0  0  0  0  0  0  0  0  0  0  0
    2.1519   -5.0478    0.0000 C   0  0  0  0  0  0  0  0  0  0  0  0
    4.2588   -2.9480    0.0000 C   0  0  0  0  0  0  0  0  0  0  0  0
    4.2886   -1.5194    0.0000 C   0  0  0  0  0  0  0  0  0  0  0  0
    1.8142   -1.4676    0.0000 C   0  0  0  0  0  0  0  0  0  0  0  0
   -0.1591    3.5490    0.0000 C   0  0  0  0  0  0  0  0  0  0  0  0
   -0.6005    1.4414    0.0000 C   0  0  0  0  0  0  0  0  0  0  0  0
    4.5965   -6.5282    0.0000 C   0  0  0  0  0  0  0  0  0  0  0  0
   -0.3524   -6.4247    0.0000 C   0  0  0  0  0  0  0  0  0  0  0  0
    4.3484    1.3379    0.0000 C   0  0  0  0  0  0  0  0  0  0  0  0
   -0.2927   -3.5675    0.0000 C   0  0  0  0  0  0  0  0  0  0  0  0
    1.6648   -8.6108    0.0000 C   0  0  0  0  0  0  0  0  0  0  0  0
    4.1756    4.1058    0.0000 C   0  0  0  0  0  0  0  0  0  0  0  0
    4.7294    2.7885    0.0000 C   0  0  0  0  0  0  0  0  0  0  0  0
    2.9170   -7.9223    0.0000 C   0  0  0  0  0  0  0  0  0  0  0  0
   -0.4558   -7.2432    0.0000 C   0  0  0  0  0  0  0  0  0  0  0  0
   -1.1772   -6.4075    0.0000 C   0  0  0  0  0  0  0  0  0  0  0  0
    5.4213   -6.5454    0.0000 C   0  0  0  0  0  0  0  0  0  0  0  0
   -1.4254    1.4586    0.0000 C   0  0  0  0  0  0  0  0  0  0  0  0
   -0.6696    2.2635    0.0000 C   0  0  0  0  0  0  0  0  0  0  0  0
    4.1691   -7.2339    0.0000 C   0  0  0  0  0  0  0  0  0  0  0  0
   -0.5710    2.8342    0.0000 C   0  0  0  0  0  0  0  0  0  0  0  0
   -0.5722    4.2631    0.0000 C   0  0  0  0  0  0  0  0  0  0  0  0
    4.4518    2.1564    0.0000 C   0  0  0  0  0  0  0  0  0  0  0  0
    5.1732    1.3206    0.0000 C   0  0  0  0  0  0  0  0  0  0  0  0
    4.6861   -2.2423    0.0000 C   0  0  0  0  0  0  0  0  0  0  0  0
  2 16  1  0
  3  1  1  0
  4 10  1  0
  5  2  1  0
  6  4  1  0
  7 11  1  0
  8 22  1  0
  9  8  1  0
 10  3  1  0
 11  6  1  0
 12 15  1  0
 13 19  1  0
 14  7  1  0
 15 25  1  0
 16  1  1  0
 17 21  1  0
 18 27  1  0
 19 32  1  0
 20 26  1  0
 21  5  1  0
 22 18  1  0
 23 12  1  0
 24 17  1  0
 25 13  1  0
 26 31  1  0
 27 33  1  0
 28 30  1  0
 29 28  1  0
 30 14  1  0
 31 24  1  0
 32 20  1  0
 33 29  1  0
 34  2  2  0
 35  3  2  0
 36  6  2  0
 37  9  2  0
 38 14  2  0
 10 39  1  0
 11 40  1  0
 41 15  2  0
 42 17  2  0
 43 18  2  0
 44 19  2  0
 45 26  2  0
 21 46  1  0
 22 47  1  0
 25 48  1  0
 49 29  2  0
 16 50  1  0
 23 51  1  0
 52  1  1  0
 53  4  1  0
 54  5  1  0
 55  7  1  0
 56  8  1  0
 57 13  1  0
 58 20  1  0
 31 59  1  0
 30 60  1  0
 61 39  1  0
 62 40  1  0
 63 48  1  0
 64 47  1  0
 65 46  1  0
 33 66  1  0
 67 51  1  0
 68 50  1  0
 69 50  1  0
 70 51  1  0
 71 64  1  0
 72 64  1  0
 73 63  1  0
 74 62  1  0
 75 62  1  0
 76 63  1  0
 77 61  1  0
 78 61  1  0
 79 65  1  0
 80 65  1  0
 81 59  1  0
  9 23  1  0
M  END
>  <Classification>  (668) 
1

>  <pchembl>  (668) 
5.1

>  <InChI_steorem>  (668) 
InChI=1S/C59H107N11O11/c1-25-41-55(77)64(18)31-47(71)65(19)42(26-32(2)3)53(75)63-48(37(12)13)58(80)66(20)43(27-33(4)5)51(73)60-39(16)50(72)61-40(17)54(76)68(22)45(29-35(8)9)56(78)69(23)46(30-36(10)11)57(79)70(24)49(38(14)15)59(81)67(21)44(28-34(6)7)52(74)62-41/h32-46,48-49H,25-31H2,1-24H3,(H,60,73)(H,61,72)(H,62,74)(H,63,75)

>  <source>  (668) 
ChEMBL25

>  <source_id>  (668) 
25

>  <optional_reference>  (668) 
10.1021/jm0109863

>  <optional_origin>  (668) 
None

>  <target>  (668) 
MDR1

$$$$

     RDKit          2D

 78 81  0  0  0  0  0  0  0  0999 V2000
    0.1792   -1.1417    0.0000 N   0  0  0  0  0  0  0  0  0  0  0  0
    3.3750   -0.2042    0.0000 N   0  0  0  0  0  0  0  0  0  0  0  0
    2.3375   -3.4917    0.0000 N   0  0  0  0  0  0  0  0  0  0  0  0
    5.0667   -3.4417    0.0000 C   0  0  0  0  0  0  0  0  0  0  0  0
    2.9375   -3.4917    0.0000 C   0  0  0  0  0  0  0  0  0  0  0  0
    2.7917   -0.0417    0.0000 C   0  0  0  0  0  0  0  0  0  0  0  0
    5.5750   -2.5417    0.0000 N   0  0  0  0  0  0  0  0  0  0  0  0
    5.0750   -4.0417    0.0000 N   0  0  0  0  0  0  0  0  0  0  0  0
    0.7000   -0.2292    0.0000 C   0  0  0  0  0  0  0  0  0  0  0  0
    0.1792   -0.5292    0.0000 C   0  0  0  0  0  0  0  0  0  0  0  0
    0.2500   -1.9417    0.0000 C   0  0  0  0  0  0  0  0  0  0  0  0
    1.4417   -2.9792    0.0000 C   0  0  0  0  0  0  0  0  0  0  0  0
    4.1125   -0.9292    0.0000 C   0  0  0  0  0  0  0  0  0  0  0  0
    5.5792   -3.1417    0.0000 C   0  0  0  0  0  0  0  0  0  0  0  0
    3.8250   -4.0167    0.0000 N   0  0  0  0  0  0  0  0  0  0  0  0
    5.0542   -2.2542    0.0000 C   0  0  0  0  0  0  0  0  0  0  0  0
    1.5792   -0.1417    0.0000 O   0  0  0  0  0  0  0  0  0  0  0  0
    4.1250   -4.5167    0.0000 C   0  0  0  0  0  0  0  0  0  0  0  0
    1.1500   -2.4667    0.0000 N   0  0  0  0  0  0  0  0  0  0  0  0
    4.5375   -1.3667    0.0000 N   0  0  0  0  0  0  0  0  0  0  0  0
    3.2292   -4.0167    0.0000 C   0  0  0  0  0  0  0  0  0  0  0  0
    2.2792    0.2583    0.0000 C   0  0  0  0  0  0  0  0  0  0  0  0
    0.5500   -2.4667    0.0000 C   0  0  0  0  0  0  0  0  0  0  0  0
    5.0500   -1.6542    0.0000 C   0  0  0  0  0  0  0  0  0  0  0  0
    2.0375   -2.9792    0.0000 C   0  0  0  0  0  0  0  0  0  0  0  0
    3.5292   -0.7792    0.0000 C   0  0  0  0  0  0  0  0  0  0  0  0
    4.7250   -4.5167    0.0000 C   0  0  0  0  0  0  0  0  0  0  0  0
   -0.3375   -0.2292    0.0000 C   0  0  0  0  0  0  0  0  0  0  0  0
    4.5500   -3.1542    0.0000 O   0  0  0  0  0  0  0  0  0  0  0  0
    2.3750   -0.4667    0.0000 O   0  0  0  0  0  0  0  0  0  0  0  0
    3.2292   -2.9792    0.0000 O   0  0  0  0  0  0  0  0  0  0  0  0
    0.7000    0.3708    0.0000 O   0  0  0  0  0  0  0  0  0  0  0  0
    6.1000   -3.4292    0.0000 C   0  0  0  0  0  0  0  0  0  0  0  0
    4.4125   -0.4292    0.0000 O   0  0  0  0  0  0  0  0  0  0  0  0
    1.1500   -3.4917    0.0000 O   0  0  0  0  0  0  0  0  0  0  0  0
   -0.3458   -1.9417    0.0000 O   0  0  0  0  0  0  0  0  0  0  0  0
    4.5417   -2.5542    0.0000 O   0  0  0  0  0  0  0  0  0  0  0  0
    3.8250   -5.0417    0.0000 O   0  0  0  0  0  0  0  0  0  0  0  0
    5.5625   -1.3542    0.0000 C   0  0  0  0  0  0  0  0  0  0  0  0
    0.2500   -2.9792    0.0000 C   0  0  0  0  0  0  0  0  0  0  0  0
    2.9375   -4.5167    0.0000 C   0  0  0  0  0  0  0  0  0  0  0  0
    2.2750    0.8583    0.0000 C   0  0  0  0  0  0  0  0  0  0  0  0
   -0.4208   -1.1542    0.0000 C   0  0  0  0  0  0  0  0  0  0  0  0
    3.8000    0.2208    0.0000 C   0  0  0  0  0  0  0  0  0  0  0  0
    2.0375   -4.0167    0.0000 C   0  0  0  0  0  0  0  0  0  0  0  0
    2.3375   -2.4667    0.0000 C   0  0  0  0  0  0  0  0  0  0  0  0
    3.1042   -1.2042    0.0000 C   0  0  0  0  0  0  0  0  0  0  0  0
    5.6375   -4.2292    0.0000 C   0  0  0  0  0  0  0  0  0  0  0  0
    6.0875   -2.2417    0.0000 C   0  0  0  0  0  0  0  0  0  0  0  0
    6.6125   -3.1292    0.0000 C   0  0  0  0  0  0  0  0  0  0  0  0
    6.1542   -1.3417    0.0000 C   0  0  0  0  0  0  0  0  0  0  0  0
    5.0750   -5.0042    0.0000 C   0  0  0  0  0  0  0  0  0  0  0  0
    5.6375   -4.8167    0.0000 C   0  0  0  0  0  0  0  0  0  0  0  0
   -0.8625   -0.5292    0.0000 C   0  0  0  0  0  0  0  0  0  0  0  0
   -0.3375    0.3708    0.0000 C   0  0  0  0  0  0  0  0  0  0  0  0
   -0.3458   -2.9792    0.0000 C   0  0  0  0  0  0  0  0  0  0  0  0
    2.7917    1.1458    0.0000 C   0  0  0  0  0  0  0  0  0  0  0  0
    3.2292   -5.0417    0.0000 C   0  0  0  0  0  0  0  0  0  0  0  0
    2.3375   -4.5167    0.0000 C   0  0  0  0  0  0  0  0  0  0  0  0
    1.7667    1.1458    0.0000 C   0  0  0  0  0  0  0  0  0  0  0  0
    2.0375   -1.9417    0.0000 C   0  0  0  0  0  0  0  0  0  0  0  0
    2.9375   -2.4667    0.0000 C   0  0  0  0  0  0  0  0  0  0  0  0
    2.5292   -1.0417    0.0000 C   0  0  0  0  0  0  0  0  0  0  0  0
    3.2625   -1.7792    0.0000 C   0  0  0  0  0  0  0  0  0  0  0  0
    6.4500   -0.8292    0.0000 C   0  0  0  0  0  0  0  0  0  0  0  0
    6.6042   -2.5292    0.0000 C   0  0  0  0  0  0  0  0  0  0  0  0
    7.1292   -3.4292    0.0000 C   0  0  0  0  0  0  0  0  0  0  0  0
    6.4542   -1.8667    0.0000 C   0  0  0  0  0  0  0  0  0  0  0  0
   -0.6375   -3.4917    0.0000 C   0  0  0  0  0  0  0  0  0  0  0  0
   -0.6375   -2.4667    0.0000 C   0  0  0  0  0  0  0  0  0  0  0  0
    2.7917    1.7458    0.0000 C   0  0  0  0  0  0  0  0  0  0  0  0
    2.9375   -5.5542    0.0000 C   0  0  0  0  0  0  0  0  0  0  0  0
    7.1250   -2.2292    0.0000 C   0  0  0  0  0  0  0  0  0  0  0  0
    7.0500   -1.8542    0.0000 C   0  0  0  0  0  0  0  0  0  0  0  0
    7.0375   -0.8292    0.0000 C   0  0  0  0  0  0  0  0  0  0  0  0
    7.6375   -3.1292    0.0000 C   0  0  0  0  0  0  0  0  0  0  0  0
    7.6292   -2.5292    0.0000 C   0  0  0  0  0  0  0  0  0  0  0  0
    7.3417   -1.3417    0.0000 C   0  0  0  0  0  0  0  0  0  0  0  0
  2  6  1  0
  3 25  1  0
  4  8  1  0
  5  3  1  0
  6 22  1  0
  7 16  1  0
  8 27  1  0
  9 10  1  0
 10  1  1  0
 11  1  1  0
 12 19  1  0
 13 26  1  0
 14  7  1  0
 15 21  1  0
 16 24  1  0
 17  9  1  0
 18 15  1  0
 19 23  1  0
 20 13  1  0
 21  5  1  0
 22 17  1  0
 23 11  1  0
 24 20  1  0
 25 12  1  0
 26  2  1  0
 27 18  1  0
 28 10  2  3
 29  4  2  0
 30  6  2  0
 31  5  2  0
 32  9  2  0
 14 33  1  0
 34 13  2  0
 35 12  2  0
 36 11  2  0
 37 16  2  0
 38 18  2  0
 24 39  1  0
 23 40  1  0
 21 41  1  0
 22 42  1  0
 43  1  1  0
 44  2  1  0
 45  3  1  0
 25 46  1  0
 26 47  1  0
 48  8  1  0
 49  7  1  0
 50 33  1  0
 51 39  1  0
 27 52  1  0
 53 52  1  0
 54 28  1  0
 55 28  1  0
 56 40  1  0
 57 42  1  0
 58 41  1  0
 41 59  1  0
 42 60  1  0
 61 46  1  0
 62 46  1  0
 63 47  1  0
 64 47  1  0
 65 51  2  0
 66 50  2  0
 67 50  1  0
 68 51  1  0
 69 56  1  0
 70 56  1  0
 71 57  1  0
 72 58  1  0
 73 66  1  0
 74 68  2  0
 75 65  1  0
 76 67  2  0
 77 76  1  0
 78 74  1  0
 53 48  1  0
  4 14  1  0
 78 75  2  0
 73 77  2  0
M  END
>  <Classification>  (669) 
1

>  <pchembl>  (669) 
6.75

>  <InChI_steorem>  (669) 
InChI=1S/C60H90N8O10/c1-17-39(11)47-58(75)65(14)48(36(5)6)53(70)61-43(32-35(3)4)56(73)67(16)50(38(9)10)60(77)78-51(40(12)18-2)59(76)66(15)49(37(7)8)54(71)62-44(33-41-26-21-19-22-27-41)55(72)64(13)46(34-42-28-23-20-24-29-42)57(74)68-31-25-30-45(68)52(69)63-47/h19-24,26-29,35-37,39-40,43-49,51H,17-18,25,30-34H2,1-16H3,(H,61,70)(H,62,71)(H,63,69)

>  <source>  (669) 
ChEMBL25

>  <source_id>  (669) 
25

>  <optional_reference>  (669) 
10.1021/jm990955w

>  <optional_origin>  (669) 
None

>  <target>  (669) 
MDR1

$$$$

     RDKit          2D

 78 81  0  0  0  0  0  0  0  0999 V2000
    0.5292   -1.2042    0.0000 N   0  0  0  0  0  0  0  0  0  0  0  0
    3.3875    0.0375    0.0000 N   0  0  0  0  0  0  0  0  0  0  0  0
    5.1125   -3.2417    0.0000 C   0  0  0  0  0  0  0  0  0  0  0  0
    2.6542    0.1125    0.0000 C   0  0  0  0  0  0  0  0  0  0  0  0
    5.6167   -2.3292    0.0000 N   0  0  0  0  0  0  0  0  0  0  0  0
    0.6875    0.0083    0.0000 C   0  0  0  0  0  0  0  0  0  0  0  0
    5.1125   -3.8542    0.0000 N   0  0  0  0  0  0  0  0  0  0  0  0
    0.3000   -0.5292    0.0000 C   0  0  0  0  0  0  0  0  0  0  0  0
    0.2250   -1.7292    0.0000 C   0  0  0  0  0  0  0  0  0  0  0  0
    4.1417   -0.7042    0.0000 C   0  0  0  0  0  0  0  0  0  0  0  0
    5.6250   -2.9417    0.0000 C   0  0  0  0  0  0  0  0  0  0  0  0
    5.0917   -2.0375    0.0000 C   0  0  0  0  0  0  0  0  0  0  0  0
    3.8500   -3.8250    0.0000 N   0  0  0  0  0  0  0  0  0  0  0  0
    1.4917    0.1125    0.0000 O   0  0  0  0  0  0  0  0  0  0  0  0
    4.1500   -4.3417    0.0000 C   0  0  0  0  0  0  0  0  0  0  0  0
    4.5625   -1.1417    0.0000 N   0  0  0  0  0  0  0  0  0  0  0  0
    2.3375   -3.3000    0.0000 O   0  0  0  0  0  0  0  0  0  0  0  0
    2.9417   -3.3000    0.0000 C   0  0  0  0  0  0  0  0  0  0  0  0
    1.4292   -2.7750    0.0000 C   0  0  0  0  0  0  0  0  0  0  0  0
    1.1292   -2.2542    0.0000 N   0  0  0  0  0  0  0  0  0  0  0  0
    2.1167    0.4000    0.0000 C   0  0  0  0  0  0  0  0  0  0  0  0
    5.0875   -1.4292    0.0000 C   0  0  0  0  0  0  0  0  0  0  0  0
    0.5292   -2.2542    0.0000 C   0  0  0  0  0  0  0  0  0  0  0  0
    3.5500   -0.5542    0.0000 C   0  0  0  0  0  0  0  0  0  0  0  0
    4.7625   -4.3417    0.0000 C   0  0  0  0  0  0  0  0  0  0  0  0
    3.2417   -3.8250    0.0000 C   0  0  0  0  0  0  0  0  0  0  0  0
    2.0375   -2.7750    0.0000 C   0  0  0  0  0  0  0  0  0  0  0  0
   -0.4250   -0.4625    0.0000 C   0  0  0  0  0  0  0  0  0  0  0  0
    4.5750   -2.9542    0.0000 O   0  0  0  0  0  0  0  0  0  0  0  0
    2.5000   -0.3875    0.0000 O   0  0  0  0  0  0  0  0  0  0  0  0
    0.3625    0.5125    0.0000 O   0  0  0  0  0  0  0  0  0  0  0  0
    6.1500   -3.2375    0.0000 C   0  0  0  0  0  0  0  0  0  0  0  0
    4.4375   -0.1875    0.0000 O   0  0  0  0  0  0  0  0  0  0  0  0
   -0.3833   -1.7292    0.0000 O   0  0  0  0  0  0  0  0  0  0  0  0
    4.5750   -2.3417    0.0000 O   0  0  0  0  0  0  0  0  0  0  0  0
    3.8500   -4.8667    0.0000 O   0  0  0  0  0  0  0  0  0  0  0  0
    3.2417   -2.7750    0.0000 O   0  0  0  0  0  0  0  0  0  0  0  0
    1.1250   -3.2917    0.0000 O   0  0  0  0  0  0  0  0  0  0  0  0
    5.6125   -1.1292    0.0000 C   0  0  0  0  0  0  0  0  0  0  0  0
    0.2250   -2.7750    0.0000 C   0  0  0  0  0  0  0  0  0  0  0  0
    2.1500    0.9625    0.0000 C   0  0  0  0  0  0  0  0  0  0  0  0
    1.1292   -1.2042    0.0000 C   0  0  0  0  0  0  0  0  0  0  0  0
    3.8250    0.4625    0.0000 C   0  0  0  0  0  0  0  0  0  0  0  0
    3.1167   -0.9750    0.0000 C   0  0  0  0  0  0  0  0  0  0  0  0
    5.6875   -4.0417    0.0000 C   0  0  0  0  0  0  0  0  0  0  0  0
    2.9417   -4.3417    0.0000 C   0  0  0  0  0  0  0  0  0  0  0  0
    2.3375   -2.2500    0.0000 C   0  0  0  0  0  0  0  0  0  0  0  0
    6.1375   -2.0292    0.0000 C   0  0  0  0  0  0  0  0  0  0  0  0
   -0.7500   -0.9750    0.0000 O   0  0  0  0  0  0  0  0  0  0  0  0
    6.6750   -2.9292    0.0000 C   0  0  0  0  0  0  0  0  0  0  0  0
    6.2125   -1.1167    0.0000 C   0  0  0  0  0  0  0  0  0  0  0  0
    5.1125   -4.8292    0.0000 C   0  0  0  0  0  0  0  0  0  0  0  0
    5.6875   -4.6417    0.0000 C   0  0  0  0  0  0  0  0  0  0  0  0
   -0.3833   -2.7750    0.0000 C   0  0  0  0  0  0  0  0  0  0  0  0
   -0.5500   -0.0875    0.0000 C   0  0  0  0  0  0  0  0  0  0  0  0
   -0.9375   -0.4000    0.0000 C   0  0  0  0  0  0  0  0  0  0  0  0
    2.4375    1.2125    0.0000 C   0  0  0  0  0  0  0  0  0  0  0  0
    3.2417   -4.8667    0.0000 C   0  0  0  0  0  0  0  0  0  0  0  0
    1.8375    1.2125    0.0000 C   0  0  0  0  0  0  0  0  0  0  0  0
    2.5042   -1.0292    0.0000 C   0  0  0  0  0  0  0  0  0  0  0  0
    3.2750   -1.5542    0.0000 C   0  0  0  0  0  0  0  0  0  0  0  0
    2.9417   -2.2500    0.0000 C   0  0  0  0  0  0  0  0  0  0  0  0
    2.0375   -1.7250    0.0000 C   0  0  0  0  0  0  0  0  0  0  0  0
    2.3417   -4.3417    0.0000 C   0  0  0  0  0  0  0  0  0  0  0  0
    7.2000   -3.2292    0.0000 C   0  0  0  0  0  0  0  0  0  0  0  0
    6.5167   -1.6417    0.0000 C   0  0  0  0  0  0  0  0  0  0  0  0
    6.5042   -0.6000    0.0000 C   0  0  0  0  0  0  0  0  0  0  0  0
    6.6667   -2.3292    0.0000 C   0  0  0  0  0  0  0  0  0  0  0  0
   -0.6833   -3.3000    0.0000 C   0  0  0  0  0  0  0  0  0  0  0  0
   -0.6833   -2.2542    0.0000 C   0  0  0  0  0  0  0  0  0  0  0  0
    2.9417   -5.3917    0.0000 C   0  0  0  0  0  0  0  0  0  0  0  0
    2.3625    1.5875    0.0000 C   0  0  0  0  0  0  0  0  0  0  0  0
    7.1042   -0.5917    0.0000 C   0  0  0  0  0  0  0  0  0  0  0  0
    7.7125   -2.9292    0.0000 C   0  0  0  0  0  0  0  0  0  0  0  0
    7.1917   -2.0167    0.0000 C   0  0  0  0  0  0  0  0  0  0  0  0
    7.1167   -1.6417    0.0000 C   0  0  0  0  0  0  0  0  0  0  0  0
    7.7042   -2.3167    0.0000 C   0  0  0  0  0  0  0  0  0  0  0  0
    7.4125   -1.1167    0.0000 C   0  0  0  0  0  0  0  0  0  0  0  0
  2  4  1  0
  3  7  1  0
  4 21  1  0
  5 12  1  0
  6  8  1  0
  7 25  1  0
  8  1  1  0
  9  1  1  0
 10 24  1  0
 11  5  1  0
 12 22  1  0
 13 26  1  0
 14  6  1  0
 15 13  1  0
 16 10  1  0
 17 27  1  0
 18 17  1  0
 19 20  1  0
 20 23  1  0
 21 14  1  0
 22 16  1  0
 23  9  1  0
 24  2  1  0
 25 15  1  0
 26 18  1  0
 27 19  1  0
  8 28  1  0
 29  3  2  0
 30  4  2  0
 31  6  2  0
 11 32  1  0
 33 10  2  0
 34  9  2  0
 35 12  2  0
 36 15  2  0
 37 18  2  0
 38 19  2  0
 22 39  1  0
 23 40  1  0
 21 41  1  0
 42  1  1  0
 43  2  1  0
 24 44  1  0
 45  7  1  0
 26 46  1  0
 47 27  1  0
 48  5  1  0
 49 28  1  0
 50 32  1  0
 51 39  1  0
 25 52  1  0
 53 52  1  0
 54 40  1  0
 55 28  1  0
 56 28  1  0
 57 41  1  0
 58 46  1  0
 41 59  1  0
 60 44  1  0
 61 44  1  0
 62 47  1  0
 63 47  1  0
 46 64  1  0
 65 50  2  0
 66 51  2  0
 67 51  1  0
 68 50  1  0
 69 54  1  0
 70 54  1  0
 71 58  1  0
 72 57  1  0
 73 67  2  0
 74 65  1  0
 75 68  2  0
 76 66  1  0
 77 75  1  0
 78 73  1  0
 45 53  1  0
 11  3  1  0
 76 78  2  0
 74 77  2  0
M  END
>  <Classification>  (670) 
1

>  <pchembl>  (670) 
5.78

>  <InChI_steorem>  (670) 
InChI=1S/C59H89N7O12/c1-16-37(9)45-57(74)77-47(36(7)8)52(69)61-41(31-34(3)4)54(71)65(15)49(59(11,12)76)58(75)78-48(38(10)17-2)56(73)64(14)46(35(5)6)51(68)60-42(32-39-25-20-18-21-26-39)53(70)63(13)44(33-40-27-22-19-23-28-40)55(72)66-30-24-29-43(66)50(67)62-45/h18-23,25-28,34-38,41-49,76H,16-17,24,29-33H2,1-15H3,(H,60,68)(H,61,69)(H,62,67)

>  <source>  (670) 
ChEMBL25

>  <source_id>  (670) 
25

>  <optional_reference>  (670) 
10.1021/jm990955w

>  <optional_origin>  (670) 
None

>  <target>  (670) 
MDR1

$$$$

     RDKit          2D

 78 81  0  0  0  0  0  0  0  0999 V2000
    0.7868   -1.9842    0.0000 N   0  0  0  0  0  0  0  0  0  0  0  0
    3.2684   -4.8476    0.0000 N   0  0  0  0  0  0  0  0  0  0  0  0
    4.7088   -0.2835    0.0000 N   0  0  0  0  0  0  0  0  0  0  0  0
    7.7457   -3.5287    0.0000 N   0  0  0  0  0  0  0  0  0  0  0  0
    7.0516   -4.7782    0.0000 C   0  0  0  0  0  0  0  0  0  0  0  0
    4.0840   -4.8476    0.0000 C   0  0  0  0  0  0  0  0  0  0  0  0
    3.8931   -0.0579    0.0000 C   0  0  0  0  0  0  0  0  0  0  0  0
    0.9950   -0.3182    0.0000 C   0  0  0  0  0  0  0  0  0  0  0  0
    7.0516   -5.6112    0.0000 N   0  0  0  0  0  0  0  0  0  0  0  0
    7.0342   -3.1296    0.0000 C   0  0  0  0  0  0  0  0  0  0  0  0
    0.4744   -1.0644    0.0000 C   0  0  0  0  0  0  0  0  0  0  0  0
    5.7153   -1.2900    0.0000 C   0  0  0  0  0  0  0  0  0  0  0  0
    6.3053   -1.8801    0.0000 N   0  0  0  0  0  0  0  0  0  0  0  0
    0.3529   -2.6957    0.0000 C   0  0  0  0  0  0  0  0  0  0  0  0
    2.0189   -4.1361    0.0000 C   0  0  0  0  0  0  0  0  0  0  0  0
    7.7631   -4.3617    0.0000 C   0  0  0  0  0  0  0  0  0  0  0  0
    5.3335   -5.5765    0.0000 N   0  0  0  0  0  0  0  0  0  0  0  0
    2.2098   -0.1967    0.0000 O   0  0  0  0  0  0  0  0  0  0  0  0
    5.7500   -6.2706    0.0000 C   0  0  0  0  0  0  0  0  0  0  0  0
    1.6024   -3.4246    0.0000 N   0  0  0  0  0  0  0  0  0  0  0  0
    7.0342   -2.2966    0.0000 C   0  0  0  0  0  0  0  0  0  0  0  0
    4.5005   -5.5765    0.0000 C   0  0  0  0  0  0  0  0  0  0  0  0
    3.1816    0.3586    0.0000 C   0  0  0  0  0  0  0  0  0  0  0  0
    0.7868   -3.4246    0.0000 C   0  0  0  0  0  0  0  0  0  0  0  0
    4.9170   -1.0818    0.0000 C   0  0  0  0  0  0  0  0  0  0  0  0
    2.8519   -4.1361    0.0000 C   0  0  0  0  0  0  0  0  0  0  0  0
    6.5656   -6.2706    0.0000 C   0  0  0  0  0  0  0  0  0  0  0  0
   -0.5321   -0.9777    0.0000 C   0  0  0  0  0  0  0  0  0  0  0  0
    6.3227   -4.3790    0.0000 O   0  0  0  0  0  0  0  0  0  0  0  0
    4.5005   -4.1361    0.0000 O   0  0  0  0  0  0  0  0  0  0  0  0
    3.3204   -0.6479    0.0000 O   0  0  0  0  0  0  0  0  0  0  0  0
    6.3227   -3.5460    0.0000 O   0  0  0  0  0  0  0  0  0  0  0  0
    0.5612    0.3760    0.0000 O   0  0  0  0  0  0  0  0  0  0  0  0
    8.4746   -4.7608    0.0000 C   0  0  0  0  0  0  0  0  0  0  0  0
    6.1318   -0.5959    0.0000 O   0  0  0  0  0  0  0  0  0  0  0  0
    1.6024   -4.8476    0.0000 O   0  0  0  0  0  0  0  0  0  0  0  0
   -0.4627   -2.6957    0.0000 O   0  0  0  0  0  0  0  0  0  0  0  0
    5.3335   -6.9995    0.0000 O   0  0  0  0  0  0  0  0  0  0  0  0
    0.3529   -4.1361    0.0000 C   0  0  0  0  0  0  0  0  0  0  0  0
    7.7457   -1.8627    0.0000 C   0  0  0  0  0  0  0  0  0  0  0  0
    4.0840   -6.2706    0.0000 C   0  0  0  0  0  0  0  0  0  0  0  0
    3.1816    1.1916    0.0000 C   0  0  0  0  0  0  0  0  0  0  0  0
    1.6024   -1.9842    0.0000 C   0  0  0  0  0  0  0  0  0  0  0  0
    2.8519   -5.5765    0.0000 C   0  0  0  0  0  0  0  0  0  0  0  0
    5.2988    0.3065    0.0000 C   0  0  0  0  0  0  0  0  0  0  0  0
    4.3270   -1.6718    0.0000 C   0  0  0  0  0  0  0  0  0  0  0  0
    3.2684   -3.4246    0.0000 C   0  0  0  0  0  0  0  0  0  0  0  0
    7.8498   -5.8715    0.0000 C   0  0  0  0  0  0  0  0  0  0  0  0
    8.4572   -3.1122    0.0000 C   0  0  0  0  0  0  0  0  0  0  0  0
   -0.9660   -1.6718    0.0000 O   0  0  0  0  0  0  0  0  0  0  0  0
    9.2035   -4.3443    0.0000 C   0  0  0  0  0  0  0  0  0  0  0  0
    7.0516   -6.9474    0.0000 C   0  0  0  0  0  0  0  0  0  0  0  0
    7.8498   -6.6871    0.0000 C   0  0  0  0  0  0  0  0  0  0  0  0
   -0.4627   -4.1361    0.0000 C   0  0  0  0  0  0  0  0  0  0  0  0
   -0.7057   -0.4570    0.0000 C   0  0  0  0  0  0  0  0  0  0  0  0
   -1.2263   -0.8909    0.0000 C   0  0  0  0  0  0  0  0  0  0  0  0
    8.4746   -2.2792    0.0000 C   0  0  0  0  0  0  0  0  0  0  0  0
    7.7284   -1.0471    0.0000 C   0  0  0  0  0  0  0  0  0  0  0  0
    4.5005   -6.9995    0.0000 C   0  0  0  0  0  0  0  0  0  0  0  0
    3.8931    1.5907    0.0000 C   0  0  0  0  0  0  0  0  0  0  0  0
    2.4701    1.5907    0.0000 C   0  0  0  0  0  0  0  0  0  0  0  0
    3.2684   -6.2706    0.0000 C   0  0  0  0  0  0  0  0  0  0  0  0
    2.8519   -2.6957    0.0000 C   0  0  0  0  0  0  0  0  0  0  0  0
    3.5287   -1.4462    0.0000 C   0  0  0  0  0  0  0  0  0  0  0  0
    4.5352   -2.4701    0.0000 C   0  0  0  0  0  0  0  0  0  0  0  0
    4.0840   -3.4246    0.0000 C   0  0  0  0  0  0  0  0  0  0  0  0
    9.1861   -3.5113    0.0000 C   0  0  0  0  0  0  0  0  0  0  0  0
    9.9150   -4.7608    0.0000 C   0  0  0  0  0  0  0  0  0  0  0  0
   -0.8792   -4.8476    0.0000 C   0  0  0  0  0  0  0  0  0  0  0  0
   -0.8792   -3.4246    0.0000 C   0  0  0  0  0  0  0  0  0  0  0  0
    4.0840   -7.7110    0.0000 C   0  0  0  0  0  0  0  0  0  0  0  0
    3.8931    2.4237    0.0000 C   0  0  0  0  0  0  0  0  0  0  0  0
    8.4572   -0.6132    0.0000 C   0  0  0  0  0  0  0  0  0  0  0  0
    9.1861   -1.8627    0.0000 C   0  0  0  0  0  0  0  0  0  0  0  0
   10.6265   -4.3270    0.0000 C   0  0  0  0  0  0  0  0  0  0  0  0
    9.8976   -3.0948    0.0000 C   0  0  0  0  0  0  0  0  0  0  0  0
   10.6091   -3.5113    0.0000 C   0  0  0  0  0  0  0  0  0  0  0  0
    9.1861   -1.0297    0.0000 C   0  0  0  0  0  0  0  0  0  0  0  0
  2 26  1  0
  3  7  1  0
  4 10  1  0
  5  9  1  0
  6  2  1  0
  7 23  1  0
  8 11  1  0
  9 27  1  0
 10 21  1  0
 11  1  1  0
 12 25  1  0
 13 12  1  0
 14  1  1  0
 15 20  1  0
 16  4  1  0
 17 22  1  0
 18  8  1  0
 19 17  1  0
 20 24  1  0
 21 13  1  0
 22  6  1  0
 23 18  1  0
 24 14  1  0
 25  3  1  0
 26 15  1  0
 27 19  1  0
 11 28  1  0
 29  5  2  0
 30  6  2  0
 31  7  2  0
 32 10  2  0
 33  8  2  0
 16 34  1  0
 35 12  2  0
 36 15  2  0
 37 14  2  0
 38 19  2  0
 24 39  1  0
 21 40  1  0
 22 41  1  0
 23 42  1  0
 43  1  1  0
 44  2  1  0
 45  3  1  0
 25 46  1  0
 26 47  1  0
 48  9  1  0
 49  4  1  0
 50 28  1  0
 51 34  1  0
 27 52  1  0
 53 52  1  0
 54 39  1  0
 55 28  1  0
 56 28  1  0
 57 40  1  0
 58 40  1  0
 59 41  1  0
 60 42  1  0
 42 61  1  0
 41 62  1  0
 63 47  1  0
 64 46  1  0
 65 46  1  0
 66 47  1  0
 67 51  2  0
 68 51  1  0
 69 54  1  0
 70 54  1  0
 71 59  1  0
 72 60  1  0
 73 58  1  0
 74 57  1  0
 75 68  2  0
 76 67  1  0
 77 75  1  0
 78 73  1  0
 48 53  1  0
 16  5  1  0
 78 74  1  0
 77 76  2  0
M  END
>  <Classification>  (671) 
1

>  <pchembl>  (671) 
5.23

>  <InChI_steorem>  (671) 
InChI=1S/C59H96N8O11/c1-17-37(9)44-55(73)64(14)46(35(5)6)51(69)60-41(32-34(3)4)53(71)66(16)49(59(11,12)77)58(76)78-48(38(10)18-2)57(75)65(15)47(36(7)8)52(70)62-45(40-28-23-20-24-29-40)56(74)63(13)43(33-39-26-21-19-22-27-39)54(72)67-31-25-30-42(67)50(68)61-44/h19,21-22,26-27,34-38,40-49,77H,17-18,20,23-25,28-33H2,1-16H3,(H,60,69)(H,61,68)(H,62,70)

>  <source>  (671) 
ChEMBL25

>  <source_id>  (671) 
25

>  <optional_reference>  (671) 
10.1021/jm990955w

>  <optional_origin>  (671) 
None

>  <target>  (671) 
MDR1

$$$$

     RDKit          2D

 78 81  0  0  0  0  0  0  0  0999 V2000
    0.7873   -1.9855    0.0000 N   0  0  0  0  0  0  0  0  0  0  0  0
    4.7119   -0.2837    0.0000 N   0  0  0  0  0  0  0  0  0  0  0  0
    7.0678   -4.7814    0.0000 C   0  0  0  0  0  0  0  0  0  0  0  0
    3.9072   -0.0579    0.0000 C   0  0  0  0  0  0  0  0  0  0  0  0
    7.7624   -3.5310    0.0000 N   0  0  0  0  0  0  0  0  0  0  0  0
    1.0072   -0.3184    0.0000 C   0  0  0  0  0  0  0  0  0  0  0  0
    7.0678   -5.6149    0.0000 N   0  0  0  0  0  0  0  0  0  0  0  0
    0.4862   -1.0651    0.0000 C   0  0  0  0  0  0  0  0  0  0  0  0
    0.3705   -2.6975    0.0000 C   0  0  0  0  0  0  0  0  0  0  0  0
    5.7365   -1.3082    0.0000 C   0  0  0  0  0  0  0  0  0  0  0  0
    7.7798   -4.3646    0.0000 C   0  0  0  0  0  0  0  0  0  0  0  0
    7.0504   -3.1316    0.0000 C   0  0  0  0  0  0  0  0  0  0  0  0
    5.3371   -5.5802    0.0000 N   0  0  0  0  0  0  0  0  0  0  0  0
    3.2706   -4.8508    0.0000 N   0  0  0  0  0  0  0  0  0  0  0  0
    2.2228   -0.1969    0.0000 O   0  0  0  0  0  0  0  0  0  0  0  0
    5.7538   -6.2748    0.0000 C   0  0  0  0  0  0  0  0  0  0  0  0
    4.0983   -4.8508    0.0000 C   0  0  0  0  0  0  0  0  0  0  0  0
    6.3211   -1.8987    0.0000 N   0  0  0  0  0  0  0  0  0  0  0  0
    2.0318   -4.1388    0.0000 C   0  0  0  0  0  0  0  0  0  0  0  0
    1.6150   -3.4268    0.0000 N   0  0  0  0  0  0  0  0  0  0  0  0
    3.1953    0.3588    0.0000 C   0  0  0  0  0  0  0  0  0  0  0  0
    7.0389   -2.2981    0.0000 C   0  0  0  0  0  0  0  0  0  0  0  0
    0.7873   -3.4268    0.0000 C   0  0  0  0  0  0  0  0  0  0  0  0
    4.9318   -1.0825    0.0000 C   0  0  0  0  0  0  0  0  0  0  0  0
    6.5815   -6.2748    0.0000 C   0  0  0  0  0  0  0  0  0  0  0  0
    4.5150   -5.5802    0.0000 C   0  0  0  0  0  0  0  0  0  0  0  0
    2.8538   -4.1388    0.0000 C   0  0  0  0  0  0  0  0  0  0  0  0
   -0.5210   -0.9783    0.0000 C   0  0  0  0  0  0  0  0  0  0  0  0
    6.3384   -4.3819    0.0000 O   0  0  0  0  0  0  0  0  0  0  0  0
    3.3227   -0.6484    0.0000 O   0  0  0  0  0  0  0  0  0  0  0  0
    0.5731    0.3762    0.0000 O   0  0  0  0  0  0  0  0  0  0  0  0
    8.4917   -4.7640    0.0000 C   0  0  0  0  0  0  0  0  0  0  0  0
    6.1474   -0.5963    0.0000 O   0  0  0  0  0  0  0  0  0  0  0  0
   -0.4515   -2.6975    0.0000 O   0  0  0  0  0  0  0  0  0  0  0  0
    6.3384   -3.5484    0.0000 O   0  0  0  0  0  0  0  0  0  0  0  0
    5.3371   -7.0041    0.0000 O   0  0  0  0  0  0  0  0  0  0  0  0
    4.5150   -4.1388    0.0000 O   0  0  0  0  0  0  0  0  0  0  0  0
    1.6150   -4.8508    0.0000 O   0  0  0  0  0  0  0  0  0  0  0  0
    7.7509   -1.8813    0.0000 C   0  0  0  0  0  0  0  0  0  0  0  0
    0.3705   -4.1388    0.0000 C   0  0  0  0  0  0  0  0  0  0  0  0
    3.1837    1.1750    0.0000 C   0  0  0  0  0  0  0  0  0  0  0  0
    1.6150   -1.9855    0.0000 C   0  0  0  0  0  0  0  0  0  0  0  0
    5.3023    0.3067    0.0000 C   0  0  0  0  0  0  0  0  0  0  0  0
    4.3414   -1.6729    0.0000 C   0  0  0  0  0  0  0  0  0  0  0  0
    7.8551   -5.8754    0.0000 C   0  0  0  0  0  0  0  0  0  0  0  0
    3.2706   -3.4268    0.0000 C   0  0  0  0  0  0  0  0  0  0  0  0
    4.0983   -6.2748    0.0000 C   0  0  0  0  0  0  0  0  0  0  0  0
    8.4744   -3.1143    0.0000 C   0  0  0  0  0  0  0  0  0  0  0  0
   -0.9551   -1.6729    0.0000 O   0  0  0  0  0  0  0  0  0  0  0  0
    9.2096   -4.3472    0.0000 C   0  0  0  0  0  0  0  0  0  0  0  0
    8.5786   -1.8813    0.0000 C   0  0  0  0  0  0  0  0  0  0  0  0
    7.0678   -6.9520    0.0000 C   0  0  0  0  0  0  0  0  0  0  0  0
    7.8551   -6.6916    0.0000 C   0  0  0  0  0  0  0  0  0  0  0  0
   -0.4515   -4.1388    0.0000 C   0  0  0  0  0  0  0  0  0  0  0  0
   -0.6946   -0.4573    0.0000 C   0  0  0  0  0  0  0  0  0  0  0  0
   -1.2156   -0.8915    0.0000 C   0  0  0  0  0  0  0  0  0  0  0  0
    3.9072    1.5918    0.0000 C   0  0  0  0  0  0  0  0  0  0  0  0
    4.5150   -7.0041    0.0000 C   0  0  0  0  0  0  0  0  0  0  0  0
    2.4833    1.5918    0.0000 C   0  0  0  0  0  0  0  0  0  0  0  0
    4.5498   -2.4717    0.0000 C   0  0  0  0  0  0  0  0  0  0  0  0
    2.8538   -2.6975    0.0000 C   0  0  0  0  0  0  0  0  0  0  0  0
    4.0983   -3.4268    0.0000 C   0  0  0  0  0  0  0  0  0  0  0  0
    3.5426   -1.4472    0.0000 C   0  0  0  0  0  0  0  0  0  0  0  0
    3.2706   -6.2748    0.0000 C   0  0  0  0  0  0  0  0  0  0  0  0
    8.9953   -2.5933    0.0000 C   0  0  0  0  0  0  0  0  0  0  0  0
    8.9780   -1.1520    0.0000 C   0  0  0  0  0  0  0  0  0  0  0  0
    9.2037   -3.5137    0.0000 C   0  0  0  0  0  0  0  0  0  0  0  0
    9.9331   -4.7640    0.0000 C   0  0  0  0  0  0  0  0  0  0  0  0
   -0.8683   -4.8508    0.0000 C   0  0  0  0  0  0  0  0  0  0  0  0
   -0.8683   -3.4268    0.0000 C   0  0  0  0  0  0  0  0  0  0  0  0
    4.0983   -7.7161    0.0000 C   0  0  0  0  0  0  0  0  0  0  0  0
    3.9072    2.4253    0.0000 C   0  0  0  0  0  0  0  0  0  0  0  0
   10.6277   -4.3472    0.0000 C   0  0  0  0  0  0  0  0  0  0  0  0
    9.9157   -3.0969    0.0000 C   0  0  0  0  0  0  0  0  0  0  0  0
    9.8115   -2.5759    0.0000 C   0  0  0  0  0  0  0  0  0  0  0  0
    9.8000   -1.1520    0.0000 C   0  0  0  0  0  0  0  0  0  0  0  0
   10.2168   -1.8639    0.0000 C   0  0  0  0  0  0  0  0  0  0  0  0
   10.6277   -3.5137    0.0000 C   0  0  0  0  0  0  0  0  0  0  0  0
  2  4  1  0
  3  7  1  0
  4 21  1  0
  5 12  1  0
  6  8  1  0
  7 25  1  0
  8  1  1  0
  9  1  1  0
 10 24  1  0
 11  5  1  0
 12 22  1  0
 13 26  1  0
 14 27  1  0
 15  6  1  0
 16 13  1  0
 17 14  1  0
 18 10  1  0
 19 20  1  0
 20 23  1  0
 21 15  1  0
 22 18  1  0
 23  9  1  0
 24  2  1  0
 25 16  1  0
 26 17  1  0
 27 19  1  0
  8 28  1  0
 29  3  2  0
 30  4  2  0
 31  6  2  0
 11 32  1  0
 33 10  2  0
 34  9  2  0
 35 12  2  0
 36 16  2  0
 37 17  2  0
 38 19  2  0
 22 39  1  0
 23 40  1  0
 21 41  1  0
 42  1  1  0
 43  2  1  0
 24 44  1  0
 45  7  1  0
 27 46  1  0
 26 47  1  0
 48  5  1  0
 49 28  1  0
 50 32  1  0
 51 39  1  0
 25 52  1  0
 53 52  1  0
 54 40  1  0
 55 28  1  0
 56 28  1  0
 57 41  1  0
 58 47  1  0
 41 59  1  0
 60 44  1  0
 61 46  1  0
 62 46  1  0
 63 44  1  0
 47 64  1  0
 65 51  2  0
 66 51  1  0
 67 50  2  0
 68 50  1  0
 69 54  1  0
 70 54  1  0
 71 58  1  0
 72 57  1  0
 73 68  2  0
 74 67  1  0
 75 65  1  0
 76 66  2  0
 77 76  1  0
 78 73  1  0
 45 53  1  0
 11  3  1  0
 77 75  2  0
 78 74  2  0
M  END
>  <Classification>  (672) 
1

>  <pchembl>  (672) 
5.12

>  <InChI_steorem>  (672) 
InChI=1S/C59H90N8O11/c1-16-37(9)46-52(70)62-45(35(5)6)51(69)60-41(31-34(3)4)55(73)66(15)49(59(11,12)77)58(76)78-48(38(10)17-2)57(75)65(14)47(36(7)8)53(71)61-42(32-39-25-20-18-21-26-39)54(72)64(13)44(33-40-27-22-19-23-28-40)56(74)67-30-24-29-43(67)50(68)63-46/h18-23,25-28,34-38,41-49,77H,16-17,24,29-33H2,1-15H3,(H,60,69)(H,61,71)(H,62,70)(H,63,68)

>  <source>  (672) 
ChEMBL25

>  <source_id>  (672) 
25

>  <optional_reference>  (672) 
10.1021/jm990955w

>  <optional_origin>  (672) 
None

>  <target>  (672) 
MDR1

$$$$

     RDKit          2D

 82 82  0  0  0  0  0  0  0  0999 V2000
    2.4879    3.4239    0.0000 N   0  0  0  0  0  0  0  0  0  0  0  0
    3.0053    2.1933    0.0000 C   0  0  0  0  0  0  0  0  0  0  0  0
    1.8635    2.8848    0.0000 C   0  0  0  0  0  0  0  0  0  0  0  0
    0.5335    2.1587    0.0000 N   0  0  0  0  0  0  0  0  0  0  0  0
    3.4055    1.3841    0.0000 N   0  0  0  0  0  0  0  0  0  0  0  0
    0.9310    1.4358    0.0000 C   0  0  0  0  0  0  0  0  0  0  0  0
    0.9011    0.0072    0.0000 N   0  0  0  0  0  0  0  0  0  0  0  0
    0.3543   -6.4130    0.0000 N   0  0  0  0  0  0  0  0  0  0  0  0
    0.7518   -7.1360    0.0000 C   0  0  0  0  0  0  0  0  0  0  0  0
    0.9609    2.8644    0.0000 C   0  0  0  0  0  0  0  0  0  0  0  0
    0.5037    0.7301    0.0000 C   0  0  0  0  0  0  0  0  0  0  0  0
    2.0039   -6.4475    0.0000 N   0  0  0  0  0  0  0  0  0  0  0  0
    2.8586   -5.0362    0.0000 N   0  0  0  0  0  0  0  0  0  0  0  0
    0.4738   -0.6985    0.0000 C   0  0  0  0  0  0  0  0  0  0  0  0
    2.8287   -6.4648    0.0000 C   0  0  0  0  0  0  0  0  0  0  0  0
    3.1936    2.9965    0.0000 C   0  0  0  0  0  0  0  0  0  0  0  0
    3.3756   -0.0446    0.0000 C   0  0  0  0  0  0  0  0  0  0  0  0
    0.3842   -4.9844    0.0000 C   0  0  0  0  0  0  0  0  0  0  0  0
    3.2860   -4.3305    0.0000 C   0  0  0  0  0  0  0  0  0  0  0  0
    3.3158   -2.9018    0.0000 N   0  0  0  0  0  0  0  0  0  0  0  0
    2.9781    0.6784    0.0000 C   0  0  0  0  0  0  0  0  0  0  0  0
    0.7816   -5.7073    0.0000 C   0  0  0  0  0  0  0  0  0  0  0  0
    1.5766   -7.1532    0.0000 C   0  0  0  0  0  0  0  0  0  0  0  0
    2.9482   -0.7503    0.0000 N   0  0  0  0  0  0  0  0  0  0  0  0
    3.2561   -5.7591    0.0000 C   0  0  0  0  0  0  0  0  0  0  0  0
    2.9184   -2.1789    0.0000 C   0  0  0  0  0  0  0  0  0  0  0  0
    0.8115   -4.2787    0.0000 N   0  0  0  0  0  0  0  0  0  0  0  0
    0.4439   -2.1272    0.0000 N   0  0  0  0  0  0  0  0  0  0  0  0
    0.8414   -2.8501    0.0000 C   0  0  0  0  0  0  0  0  0  0  0  0
    0.8713   -1.4215    0.0000 C   0  0  0  0  0  0  0  0  0  0  0  0
    3.3457   -1.4732    0.0000 C   0  0  0  0  0  0  0  0  0  0  0  0
    2.8885   -3.6075    0.0000 C   0  0  0  0  0  0  0  0  0  0  0  0
    0.4140   -3.5558    0.0000 C   0  0  0  0  0  0  0  0  0  0  0  0
    2.1857    2.0991    0.0000 O   0  0  0  0  0  0  0  0  0  0  0  0
    1.9073    2.0609    0.0000 O   0  0  0  0  0  0  0  0  0  0  0  0
    1.7558    1.4186    0.0000 O   0  0  0  0  0  0  0  0  0  0  0  0
    0.3244   -7.8417    0.0000 O   0  0  0  0  0  0  0  0  0  0  0  0
   -0.3212    0.7474    0.0000 C   0  0  0  0  0  0  0  0  0  0  0  0
   -0.3510   -0.6813    0.0000 O   0  0  0  0  0  0  0  0  0  0  0  0
    0.5478    3.5786    0.0000 C   0  0  0  0  0  0  0  0  0  0  0  0
    3.2262   -7.1877    0.0000 O   0  0  0  0  0  0  0  0  0  0  0  0
    4.2004   -0.0618    0.0000 O   0  0  0  0  0  0  0  0  0  0  0  0
   -0.4407   -4.9672    0.0000 O   0  0  0  0  0  0  0  0  0  0  0  0
    4.1108   -4.3477    0.0000 O   0  0  0  0  0  0  0  0  0  0  0  0
    2.0936   -2.1616    0.0000 O   0  0  0  0  0  0  0  0  0  0  0  0
   -0.0432   -5.6901    0.0000 C   0  0  0  0  0  0  0  0  0  0  0  0
    3.8029    0.6611    0.0000 C   0  0  0  0  0  0  0  0  0  0  0  0
    4.0809   -5.7763    0.0000 C   0  0  0  0  0  0  0  0  0  0  0  0
    1.6662   -2.8673    0.0000 O   0  0  0  0  0  0  0  0  0  0  0  0
    3.9542    3.3162    0.0000 C   0  0  0  0  0  0  0  0  0  0  0  0
    1.9741   -7.8762    0.0000 C   0  0  0  0  0  0  0  0  0  0  0  0
    2.4189    4.2460    0.0000 C   0  0  0  0  0  0  0  0  0  0  0  0
   -0.2913    2.1760    0.0000 C   0  0  0  0  0  0  0  0  0  0  0  0
    4.0930    1.8401    0.0000 C   0  0  0  0  0  0  0  0  0  0  0  0
    1.7260   -0.0101    0.0000 C   0  0  0  0  0  0  0  0  0  0  0  0
   -0.3231   -6.8839    0.0000 C   0  0  0  0  0  0  0  0  0  0  0  0
    2.0338   -5.0189    0.0000 C   0  0  0  0  0  0  0  0  0  0  0  0
    4.1407   -2.9191    0.0000 C   0  0  0  0  0  0  0  0  0  0  0  0
    4.1705   -1.4905    0.0000 C   0  0  0  0  0  0  0  0  0  0  0  0
    1.6961   -1.4387    0.0000 C   0  0  0  0  0  0  0  0  0  0  0  0
   -0.2772    3.5779    0.0000 C   0  0  0  0  0  0  0  0  0  0  0  0
   -0.7186    1.4703    0.0000 C   0  0  0  0  0  0  0  0  0  0  0  0
    4.4784   -6.4993    0.0000 C   0  0  0  0  0  0  0  0  0  0  0  0
   -0.4705   -6.3958    0.0000 C   0  0  0  0  0  0  0  0  0  0  0  0
    4.2303    1.3668    0.0000 C   0  0  0  0  0  0  0  0  0  0  0  0
   -0.4108   -3.5385    0.0000 C   0  0  0  0  0  0  0  0  0  0  0  0
    4.0575    4.1347    0.0000 C   0  0  0  0  0  0  0  0  0  0  0  0
    1.5467   -8.5819    0.0000 C   0  0  0  0  0  0  0  0  0  0  0  0
    2.7989   -7.8934    0.0000 C   0  0  0  0  0  0  0  0  0  0  0  0
    4.6113    2.8175    0.0000 C   0  0  0  0  0  0  0  0  0  0  0  0
    4.5680   -2.2134    0.0000 C   0  0  0  0  0  0  0  0  0  0  0  0
   -1.5435    1.4875    0.0000 C   0  0  0  0  0  0  0  0  0  0  0  0
   -0.7877    2.2924    0.0000 C   0  0  0  0  0  0  0  0  0  0  0  0
    5.3032   -6.5165    0.0000 C   0  0  0  0  0  0  0  0  0  0  0  0
    4.0510   -7.2050    0.0000 C   0  0  0  0  0  0  0  0  0  0  0  0
   -0.6891    2.8631    0.0000 C   0  0  0  0  0  0  0  0  0  0  0  0
   -0.5739   -7.2143    0.0000 C   0  0  0  0  0  0  0  0  0  0  0  0
   -1.2954   -6.3785    0.0000 C   0  0  0  0  0  0  0  0  0  0  0  0
   -0.6903    4.2920    0.0000 C   0  0  0  0  0  0  0  0  0  0  0  0
    4.3337    2.1853    0.0000 C   0  0  0  0  0  0  0  0  0  0  0  0
    5.0551    1.3496    0.0000 C   0  0  0  0  0  0  0  0  0  0  0  0
    5.3928   -2.2306    0.0000 C   0  0  0  0  0  0  0  0  0  0  0  0
  2 16  1  0
  3  1  1  0
  4 10  1  0
  5  2  1  0
  6  4  1  0
  7 11  1  0
  8 22  1  0
  9  8  1  0
 10  3  1  0
 11  6  1  0
 12 15  1  0
 13 19  1  0
 14  7  1  0
 15 25  1  0
 16  1  1  0
 17 21  1  0
 18 27  1  0
 19 32  1  0
 20 26  1  0
 21  5  1  0
 22 18  1  0
 23 12  1  0
 24 17  1  0
 25 13  1  0
 26 31  1  0
 27 33  1  0
 28 30  1  0
 29 28  1  0
 30 14  1  0
 31 24  1  0
 32 20  1  0
 33 29  1  0
 34  2  2  0
 35  3  2  0
 36  6  2  0
 37  9  2  0
 11 38  1  0
 39 14  2  0
 10 40  1  0
 41 15  2  0
 42 17  2  0
 43 18  2  0
 44 19  2  0
 45 26  2  0
 22 46  1  0
 21 47  1  0
 25 48  1  0
 49 29  2  0
 16 50  1  0
 23 51  1  0
 52  1  1  0
 53  4  1  0
 54  5  1  0
 55  7  1  0
 56  8  1  0
 57 13  1  0
 58 20  1  0
 31 59  1  0
 30 60  1  0
 61 40  1  0
 62 38  1  0
 63 48  1  0
 64 46  1  0
 65 47  1  0
 33 66  1  0
 67 50  1  0
 68 51  1  0
 69 51  1  0
 70 50  1  0
 71 59  1  0
 72 62  1  0
 73 62  1  0
 74 63  1  0
 75 63  1  0
 76 61  1  0
 77 64  1  0
 78 64  1  0
 79 61  1  0
 80 65  1  0
 81 65  1  0
 82 71  1  0
  9 23  1  0
M  END
>  <Classification>  (673) 
1

>  <pchembl>  (673) 
5.25

>  <InChI_steorem>  (673) 
InChI=1S/C60H109N11O11/c1-25-26-42-56(78)65(18)32-48(72)66(19)43(27-33(2)3)54(76)64-49(38(12)13)59(81)67(20)44(28-34(4)5)52(74)61-40(16)51(73)62-41(17)55(77)69(22)46(30-36(8)9)57(79)70(23)47(31-37(10)11)58(80)71(24)50(39(14)15)60(82)68(21)45(29-35(6)7)53(75)63-42/h33-47,49-50H,25-32H2,1-24H3,(H,61,74)(H,62,73)(H,63,75)(H,64,76)

>  <source>  (673) 
ChEMBL25

>  <source_id>  (673) 
25

>  <optional_reference>  (673) 
10.1021/jm0109863

>  <optional_origin>  (673) 
None

>  <target>  (673) 
MDR1

$$$$

     RDKit          2D

 82 82  0  0  0  0  0  0  0  0999 V2000
    2.4883    3.4030    0.0000 N   0  0  0  0  0  0  0  0  0  0  0  0
    3.0056    2.1724    0.0000 C   0  0  0  0  0  0  0  0  0  0  0  0
    1.8638    2.8639    0.0000 C   0  0  0  0  0  0  0  0  0  0  0  0
    0.5339    2.1379    0.0000 N   0  0  0  0  0  0  0  0  0  0  0  0
    3.4059    1.3632    0.0000 N   0  0  0  0  0  0  0  0  0  0  0  0
    0.9314    1.4149    0.0000 C   0  0  0  0  0  0  0  0  0  0  0  0
    0.9015   -0.0137    0.0000 N   0  0  0  0  0  0  0  0  0  0  0  0
    0.3547   -6.4339    0.0000 N   0  0  0  0  0  0  0  0  0  0  0  0
    0.7521   -7.1568    0.0000 C   0  0  0  0  0  0  0  0  0  0  0  0
    0.9613    2.8436    0.0000 C   0  0  0  0  0  0  0  0  0  0  0  0
    0.5040    0.7092    0.0000 C   0  0  0  0  0  0  0  0  0  0  0  0
    2.0043   -6.4684    0.0000 N   0  0  0  0  0  0  0  0  0  0  0  0
    2.9486   -0.7711    0.0000 N   0  0  0  0  0  0  0  0  0  0  0  0
    2.8590   -5.0570    0.0000 N   0  0  0  0  0  0  0  0  0  0  0  0
    0.4742   -0.7194    0.0000 C   0  0  0  0  0  0  0  0  0  0  0  0
    2.9188   -2.1998    0.0000 C   0  0  0  0  0  0  0  0  0  0  0  0
    3.3760   -0.0654    0.0000 C   0  0  0  0  0  0  0  0  0  0  0  0
    2.8291   -6.4857    0.0000 C   0  0  0  0  0  0  0  0  0  0  0  0
    3.1940    2.9756    0.0000 C   0  0  0  0  0  0  0  0  0  0  0  0
    0.3845   -5.0053    0.0000 C   0  0  0  0  0  0  0  0  0  0  0  0
    3.3162   -2.9227    0.0000 N   0  0  0  0  0  0  0  0  0  0  0  0
    3.2864   -4.3513    0.0000 C   0  0  0  0  0  0  0  0  0  0  0  0
    2.9785    0.6575    0.0000 C   0  0  0  0  0  0  0  0  0  0  0  0
    0.7820   -5.7282    0.0000 C   0  0  0  0  0  0  0  0  0  0  0  0
    1.5770   -7.1741    0.0000 C   0  0  0  0  0  0  0  0  0  0  0  0
    3.2565   -5.7800    0.0000 C   0  0  0  0  0  0  0  0  0  0  0  0
    0.8119   -4.2996    0.0000 N   0  0  0  0  0  0  0  0  0  0  0  0
    3.3461   -1.4941    0.0000 C   0  0  0  0  0  0  0  0  0  0  0  0
    0.4443   -2.1480    0.0000 N   0  0  0  0  0  0  0  0  0  0  0  0
    0.8418   -2.8710    0.0000 C   0  0  0  0  0  0  0  0  0  0  0  0
    0.8716   -1.4423    0.0000 C   0  0  0  0  0  0  0  0  0  0  0  0
    2.8889   -3.6284    0.0000 C   0  0  0  0  0  0  0  0  0  0  0  0
    0.4144   -3.5767    0.0000 C   0  0  0  0  0  0  0  0  0  0  0  0
    2.1860    2.0782    0.0000 O   0  0  0  0  0  0  0  0  0  0  0  0
    1.9077    2.0401    0.0000 O   0  0  0  0  0  0  0  0  0  0  0  0
    1.7562    1.3977    0.0000 O   0  0  0  0  0  0  0  0  0  0  0  0
    0.3248   -7.8625    0.0000 O   0  0  0  0  0  0  0  0  0  0  0  0
   -0.3506   -0.7021    0.0000 O   0  0  0  0  0  0  0  0  0  0  0  0
   -0.3208    0.7265    0.0000 C   0  0  0  0  0  0  0  0  0  0  0  0
    0.5482    3.5577    0.0000 C   0  0  0  0  0  0  0  0  0  0  0  0
    2.0939   -2.1825    0.0000 O   0  0  0  0  0  0  0  0  0  0  0  0
    3.2266   -7.2086    0.0000 O   0  0  0  0  0  0  0  0  0  0  0  0
    4.2008   -0.0827    0.0000 O   0  0  0  0  0  0  0  0  0  0  0  0
   -0.4403   -4.9880    0.0000 O   0  0  0  0  0  0  0  0  0  0  0  0
    4.1112   -4.3686    0.0000 O   0  0  0  0  0  0  0  0  0  0  0  0
   -0.0428   -5.7110    0.0000 C   0  0  0  0  0  0  0  0  0  0  0  0
    3.8033    0.6402    0.0000 C   0  0  0  0  0  0  0  0  0  0  0  0
    4.0813   -5.7972    0.0000 C   0  0  0  0  0  0  0  0  0  0  0  0
    1.6666   -2.8882    0.0000 O   0  0  0  0  0  0  0  0  0  0  0  0
    3.9546    3.2954    0.0000 C   0  0  0  0  0  0  0  0  0  0  0  0
    1.9744   -7.8970    0.0000 C   0  0  0  0  0  0  0  0  0  0  0  0
    4.1709   -1.5113    0.0000 C   0  0  0  0  0  0  0  0  0  0  0  0
    2.4193    4.2251    0.0000 C   0  0  0  0  0  0  0  0  0  0  0  0
    4.0933    1.8192    0.0000 C   0  0  0  0  0  0  0  0  0  0  0  0
   -0.2909    2.1551    0.0000 C   0  0  0  0  0  0  0  0  0  0  0  0
    1.7263   -0.0309    0.0000 C   0  0  0  0  0  0  0  0  0  0  0  0
   -0.3228   -6.9048    0.0000 C   0  0  0  0  0  0  0  0  0  0  0  0
    2.0342   -5.0398    0.0000 C   0  0  0  0  0  0  0  0  0  0  0  0
    4.1410   -2.9400    0.0000 C   0  0  0  0  0  0  0  0  0  0  0  0
    1.6965   -1.4596    0.0000 C   0  0  0  0  0  0  0  0  0  0  0  0
   -0.2768    3.5570    0.0000 C   0  0  0  0  0  0  0  0  0  0  0  0
   -0.7182    1.4494    0.0000 C   0  0  0  0  0  0  0  0  0  0  0  0
    4.4788   -6.5202    0.0000 C   0  0  0  0  0  0  0  0  0  0  0  0
   -0.4701   -6.4167    0.0000 C   0  0  0  0  0  0  0  0  0  0  0  0
    4.2307    1.3459    0.0000 C   0  0  0  0  0  0  0  0  0  0  0  0
   -0.4104   -3.5594    0.0000 C   0  0  0  0  0  0  0  0  0  0  0  0
    4.0579    4.1139    0.0000 C   0  0  0  0  0  0  0  0  0  0  0  0
    4.6117    2.7966    0.0000 C   0  0  0  0  0  0  0  0  0  0  0  0
    4.5983   -0.8056    0.0000 C   0  0  0  0  0  0  0  0  0  0  0  0
    1.5471   -8.6027    0.0000 C   0  0  0  0  0  0  0  0  0  0  0  0
    4.5684   -2.2343    0.0000 C   0  0  0  0  0  0  0  0  0  0  0  0
    2.7993   -7.9143    0.0000 C   0  0  0  0  0  0  0  0  0  0  0  0
   -1.5431    1.4667    0.0000 C   0  0  0  0  0  0  0  0  0  0  0  0
    5.3036   -6.5374    0.0000 C   0  0  0  0  0  0  0  0  0  0  0  0
    4.0514   -7.2258    0.0000 C   0  0  0  0  0  0  0  0  0  0  0  0
   -0.6887    2.8422    0.0000 C   0  0  0  0  0  0  0  0  0  0  0  0
   -0.5735   -7.2352    0.0000 C   0  0  0  0  0  0  0  0  0  0  0  0
   -1.2950   -6.3994    0.0000 C   0  0  0  0  0  0  0  0  0  0  0  0
   -0.6899    4.2712    0.0000 C   0  0  0  0  0  0  0  0  0  0  0  0
   -0.7873    2.2715    0.0000 C   0  0  0  0  0  0  0  0  0  0  0  0
    4.3340    2.1644    0.0000 C   0  0  0  0  0  0  0  0  0  0  0  0
    5.0555    1.3287    0.0000 C   0  0  0  0  0  0  0  0  0  0  0  0
  2 19  1  0
  3  1  1  0
  4 10  1  0
  5  2  1  0
  6  4  1  0
  7 11  1  0
  8 24  1  0
  9  8  1  0
 10  3  1  0
 11  6  1  0
 12 18  1  0
 13 17  1  0
 14 22  1  0
 15  7  1  0
 16 28  1  0
 17 23  1  0
 18 26  1  0
 19  1  1  0
 20 27  1  0
 21 16  1  0
 22 32  1  0
 23  5  1  0
 24 20  1  0
 25 12  1  0
 26 14  1  0
 27 33  1  0
 28 13  1  0
 29 31  1  0
 30 29  1  0
 31 15  1  0
 32 21  1  0
 33 30  1  0
 34  2  2  0
 35  3  2  0
 36  6  2  0
 37  9  2  0
 38 15  2  0
 11 39  1  0
 10 40  1  0
 41 16  2  0
 42 18  2  0
 43 17  2  0
 44 20  2  0
 45 22  2  0
 24 46  1  0
 23 47  1  0
 26 48  1  0
 49 30  2  0
 19 50  1  0
 25 51  1  0
 28 52  1  0
 53  1  1  0
 54  5  1  0
 55  4  1  0
 56  7  1  0
 57  8  1  0
 58 14  1  0
 59 21  1  0
 31 60  1  0
 61 40  1  0
 62 39  1  0
 63 48  1  0
 64 46  1  0
 65 47  1  0
 33 66  1  0
 67 50  1  0
 68 50  1  0
 69 52  1  0
 70 51  1  0
 71 52  1  0
 72 51  1  0
 73 62  1  0
 74 63  1  0
 75 63  1  0
 76 61  1  0
 77 64  1  0
 78 64  1  0
 79 61  1  0
 80 62  1  0
 81 65  1  0
 82 65  1  0
  9 25  1  0
M  END
>  <Classification>  (674) 
1

>  <pchembl>  (674) 
5.16

>  <InChI_steorem>  (674) 
InChI=1S/C60H109N11O11/c1-32(2)26-42-53(75)64-49(38(13)14)59(81)67(21)43(27-33(3)4)52(74)61-40(17)51(73)62-41(18)55(77)69(23)45(29-35(7)8)56(78)70(24)46(30-36(9)10)57(79)71(25)50(39(15)16)60(82)68(22)44(28-34(5)6)54(76)63-48(37(11)12)58(80)65(19)31-47(72)66(42)20/h32-46,48-50H,26-31H2,1-25H3,(H,61,74)(H,62,73)(H,63,76)(H,64,75)

>  <source>  (674) 
ChEMBL25

>  <source_id>  (674) 
25

>  <optional_reference>  (674) 
10.1021/jm0109863

>  <optional_origin>  (674) 
None

>  <target>  (674) 
MDR1

$$$$

     RDKit          2D

 79 83  0  0  0  0  0  0  0  0999 V2000
    0.2481   -0.7326    0.0000 C   0  0  0  0  0  0  0  0  0  0  0  0
    0.2481   -1.5804    0.0000 N   0  0  0  0  0  0  0  0  0  0  0  0
    0.2422    0.0980    0.0000 O   0  0  0  0  0  0  0  0  0  0  0  0
   -0.4672   -0.3173    0.0000 C   0  0  0  0  0  0  0  0  0  0  0  0
    0.9690   -0.3173    0.0000 C   0  0  0  0  0  0  0  0  0  0  0  0
    3.2357   -4.8335    0.0000 N   0  0  0  0  0  0  0  0  0  0  0  0
    4.6719   -0.2827    0.0000 N   0  0  0  0  0  0  0  0  0  0  0  0
    7.0137   -4.7642    0.0000 C   0  0  0  0  0  0  0  0  0  0  0  0
    4.0663   -4.8335    0.0000 C   0  0  0  0  0  0  0  0  0  0  0  0
    3.8645   -0.0577    0.0000 C   0  0  0  0  0  0  0  0  0  0  0  0
    7.7173   -3.5184    0.0000 N   0  0  0  0  0  0  0  0  0  0  0  0
    7.0252   -5.5948    0.0000 N   0  0  0  0  0  0  0  0  0  0  0  0
    0.3461   -2.6878    0.0000 C   0  0  0  0  0  0  0  0  0  0  0  0
    1.9957   -4.1240    0.0000 C   0  0  0  0  0  0  0  0  0  0  0  0
    5.6928   -1.2863    0.0000 C   0  0  0  0  0  0  0  0  0  0  0  0
    7.7231   -4.3490    0.0000 C   0  0  0  0  0  0  0  0  0  0  0  0
    5.2948   -5.5602    0.0000 N   0  0  0  0  0  0  0  0  0  0  0  0
    6.9964   -3.1204    0.0000 C   0  0  0  0  0  0  0  0  0  0  0  0
    2.1860   -0.1962    0.0000 O   0  0  0  0  0  0  0  0  0  0  0  0
    5.7101   -6.2523    0.0000 C   0  0  0  0  0  0  0  0  0  0  0  0
    1.5919   -3.4146    0.0000 N   0  0  0  0  0  0  0  0  0  0  0  0
    6.2811   -1.8919    0.0000 N   0  0  0  0  0  0  0  0  0  0  0  0
    4.4701   -5.5602    0.0000 C   0  0  0  0  0  0  0  0  0  0  0  0
    3.1550    0.3576    0.0000 C   0  0  0  0  0  0  0  0  0  0  0  0
    0.7613   -3.4146    0.0000 C   0  0  0  0  0  0  0  0  0  0  0  0
    6.9906   -2.2899    0.0000 C   0  0  0  0  0  0  0  0  0  0  0  0
    4.8854   -1.0786    0.0000 C   0  0  0  0  0  0  0  0  0  0  0  0
    2.8205   -4.1240    0.0000 C   0  0  0  0  0  0  0  0  0  0  0  0
    6.5407   -6.2523    0.0000 C   0  0  0  0  0  0  0  0  0  0  0  0
    0.9690    0.5133    0.0000 O   0  0  0  0  0  0  0  0  0  0  0  0
    6.2984   -4.3663    0.0000 O   0  0  0  0  0  0  0  0  0  0  0  0
    3.2876   -0.6460    0.0000 O   0  0  0  0  0  0  0  0  0  0  0  0
    4.4701   -4.1240    0.0000 O   0  0  0  0  0  0  0  0  0  0  0  0
    8.4441   -4.7469    0.0000 C   0  0  0  0  0  0  0  0  0  0  0  0
    1.5919   -4.8335    0.0000 O   0  0  0  0  0  0  0  0  0  0  0  0
    6.1081   -0.5941    0.0000 O   0  0  0  0  0  0  0  0  0  0  0  0
   -0.4787   -2.6878    0.0000 O   0  0  0  0  0  0  0  0  0  0  0  0
    6.2869   -3.5357    0.0000 O   0  0  0  0  0  0  0  0  0  0  0  0
    5.2948   -6.9791    0.0000 O   0  0  0  0  0  0  0  0  0  0  0  0
    7.7000   -1.8746    0.0000 C   0  0  0  0  0  0  0  0  0  0  0  0
    0.3461   -4.1240    0.0000 C   0  0  0  0  0  0  0  0  0  0  0  0
   -0.5825   -1.5977    0.0000 C   0  0  0  0  0  0  0  0  0  0  0  0
    4.0663   -6.2523    0.0000 C   0  0  0  0  0  0  0  0  0  0  0  0
    3.1492    1.1881    0.0000 C   0  0  0  0  0  0  0  0  0  0  0  0
    2.8205   -5.5602    0.0000 C   0  0  0  0  0  0  0  0  0  0  0  0
    5.2602    0.3056    0.0000 C   0  0  0  0  0  0  0  0  0  0  0  0
    4.2971   -1.6669    0.0000 C   0  0  0  0  0  0  0  0  0  0  0  0
    3.2357   -3.4146    0.0000 C   0  0  0  0  0  0  0  0  0  0  0  0
    7.8038   -5.8544    0.0000 C   0  0  0  0  0  0  0  0  0  0  0  0
   -0.4672    0.5133    0.0000 C   0  0  0  0  0  0  0  0  0  0  0  0
   -1.1939   -0.7326    0.0000 C   0  0  0  0  0  0  0  0  0  0  0  0
    8.4268   -3.1031    0.0000 C   0  0  0  0  0  0  0  0  0  0  0  0
    9.1535   -4.3317    0.0000 C   0  0  0  0  0  0  0  0  0  0  0  0
    8.5191   -1.8573    0.0000 C   0  0  0  0  0  0  0  0  0  0  0  0
    7.0252   -6.9272    0.0000 C   0  0  0  0  0  0  0  0  0  0  0  0
    7.8038   -6.6676    0.0000 C   0  0  0  0  0  0  0  0  0  0  0  0
   -0.4787   -4.1240    0.0000 C   0  0  0  0  0  0  0  0  0  0  0  0
    4.4701   -6.9791    0.0000 C   0  0  0  0  0  0  0  0  0  0  0  0
    3.8645    1.5861    0.0000 C   0  0  0  0  0  0  0  0  0  0  0  0
    2.4456    1.5861    0.0000 C   0  0  0  0  0  0  0  0  0  0  0  0
    3.2357   -6.2523    0.0000 C   0  0  0  0  0  0  0  0  0  0  0  0
    4.0663   -3.4146    0.0000 C   0  0  0  0  0  0  0  0  0  0  0  0
    3.5011   -1.4420    0.0000 C   0  0  0  0  0  0  0  0  0  0  0  0
    4.5162   -2.4629    0.0000 C   0  0  0  0  0  0  0  0  0  0  0  0
    2.8205   -2.6878    0.0000 C   0  0  0  0  0  0  0  0  0  0  0  0
    9.1420   -3.5011    0.0000 C   0  0  0  0  0  0  0  0  0  0  0  0
    9.8687   -4.7469    0.0000 C   0  0  0  0  0  0  0  0  0  0  0  0
    8.9344   -2.5840    0.0000 C   0  0  0  0  0  0  0  0  0  0  0  0
    8.9285   -1.1478    0.0000 C   0  0  0  0  0  0  0  0  0  0  0  0
   -0.8825   -3.4146    0.0000 C   0  0  0  0  0  0  0  0  0  0  0  0
   -0.8825   -4.8335    0.0000 C   0  0  0  0  0  0  0  0  0  0  0  0
    4.0663   -7.6885    0.0000 C   0  0  0  0  0  0  0  0  0  0  0  0
    3.8645    2.4167    0.0000 C   0  0  0  0  0  0  0  0  0  0  0  0
    9.7591   -2.5667    0.0000 C   0  0  0  0  0  0  0  0  0  0  0  0
    9.7418   -1.1478    0.0000 C   0  0  0  0  0  0  0  0  0  0  0  0
   10.5724   -4.3317    0.0000 C   0  0  0  0  0  0  0  0  0  0  0  0
    9.8629   -3.0858    0.0000 C   0  0  0  0  0  0  0  0  0  0  0  0
   10.1629   -1.8573    0.0000 C   0  0  0  0  0  0  0  0  0  0  0  0
   10.5609   -3.5011    0.0000 C   0  0  0  0  0  0  0  0  0  0  0  0
  2  1  1  0
  1  3  1  0
  1  4  1  0
  5  1  1  0
  6 28  1  0
  7 10  1  0
  8 16  1  0
  9  6  1  0
 10 24  1  0
 11 18  1  0
 12 29  1  0
 13  2  1  0
 14 21  1  0
 15 27  1  0
 16 11  1  0
 17 23  1  0
 18 26  1  0
 19  5  1  0
 20 17  1  0
 21 25  1  0
 22 15  1  0
 23  9  1  0
 24 19  1  0
 25 13  1  0
 26 22  1  0
 27  7  1  0
 28 14  1  0
 29 20  1  0
 30  5  2  0
 31  8  2  0
 32 10  2  0
 33  9  2  0
 16 34  1  0
 35 14  2  0
 36 15  2  0
 37 13  2  0
 38 18  2  0
 39 20  2  0
 26 40  1  0
 25 41  1  0
 42  2  1  0
 23 43  1  0
 24 44  1  0
 45  6  1  0
 46  7  1  0
 27 47  1  0
 28 48  1  0
 49 12  1  0
 50  4  1  0
 51  4  1  0
 52 11  1  0
 53 34  1  0
 54 40  1  0
 29 55  1  0
 56 55  1  0
 57 41  1  0
 58 43  1  0
 59 44  1  0
 44 60  1  0
 43 61  1  0
 62 48  1  0
 63 47  1  0
 64 47  1  0
 65 48  1  0
 66 53  2  0
 67 53  1  0
 68 54  2  0
 69 54  1  0
 70 57  1  0
 71 57  1  0
 72 58  1  0
 73 59  1  0
 74 68  1  0
 75 69  2  0
 76 67  2  0
 77 66  1  0
 78 75  1  0
 79 76  1  0
  3  4  1  0
 12  8  1  0
 78 74  2  0
 56 49  1  0
 77 79  2  0
M  END
>  <Classification>  (675) 
1

>  <pchembl>  (675) 
5.81

>  <InChI_steorem>  (675) 
InChI=1S/C60H90N8O11/c1-17-38(9)46-56(75)65(14)47(36(5)6)51(70)61-42(32-35(3)4)54(73)67(16)60(59(11,12)79-60)58(77)78-49(39(10)18-2)57(76)66(15)48(37(7)8)52(71)62-43(33-40-26-21-19-22-27-40)53(72)64(13)45(34-41-28-23-20-24-29-41)55(74)68-31-25-30-44(68)50(69)63-46/h19-24,26-29,35-39,42-49H,17-18,25,30-34H2,1-16H3,(H,61,70)(H,62,71)(H,63,69)

>  <source>  (675) 
ChEMBL25

>  <source_id>  (675) 
25

>  <optional_reference>  (675) 
10.1021/jm990955w

>  <optional_origin>  (675) 
None

>  <target>  (675) 
MDR1

$$$$

     RDKit          2D

 83 83  0  0  0  0  0  0  0  0999 V2000
    4.8817    2.0724    0.0000 N   0  0  0  0  0  0  0  0  0  0  0  0
    4.7422    0.7448    0.0000 C   0  0  0  0  0  0  0  0  0  0  0  0
    4.0747    1.9009    0.0000 C   0  0  0  0  0  0  0  0  0  0  0  0
    2.5595    1.9054    0.0000 N   0  0  0  0  0  0  0  0  0  0  0  0
    2.5595    1.0804    0.0000 C   0  0  0  0  0  0  0  0  0  0  0  0
    1.8451   -0.1571    0.0000 N   0  0  0  0  0  0  0  0  0  0  0  0
    4.7030   -0.1571    0.0000 N   0  0  0  0  0  0  0  0  0  0  0  0
   -1.7273   -5.5196    0.0000 N   0  0  0  0  0  0  0  0  0  0  0  0
   -1.7273   -6.3446    0.0000 C   0  0  0  0  0  0  0  0  0  0  0  0
    3.2740    2.3179    0.0000 C   0  0  0  0  0  0  0  0  0  0  0  0
    1.8451    0.6679    0.0000 C   0  0  0  0  0  0  0  0  0  0  0  0
   -0.2983   -6.3446    0.0000 N   0  0  0  0  0  0  0  0  0  0  0  0
    1.1306   -5.5196    0.0000 N   0  0  0  0  0  0  0  0  0  0  0  0
    1.1306   -0.5696    0.0000 C   0  0  0  0  0  0  0  0  0  0  0  0
    0.4161   -6.7571    0.0000 C   0  0  0  0  0  0  0  0  0  0  0  0
    5.2942    1.3579    0.0000 C   0  0  0  0  0  0  0  0  0  0  0  0
   -1.0128   -4.2821    0.0000 C   0  0  0  0  0  0  0  0  0  0  0  0
    1.8451   -5.1071    0.0000 C   0  0  0  0  0  0  0  0  0  0  0  0
    3.9885   -1.3946    0.0000 C   0  0  0  0  0  0  0  0  0  0  0  0
    2.5595   -3.8696    0.0000 N   0  0  0  0  0  0  0  0  0  0  0  0
   -1.0128   -5.1071    0.0000 C   0  0  0  0  0  0  0  0  0  0  0  0
   -1.0128   -6.7571    0.0000 C   0  0  0  0  0  0  0  0  0  0  0  0
    3.2740   -1.8071    0.0000 N   0  0  0  0  0  0  0  0  0  0  0  0
    1.1306   -6.3446    0.0000 C   0  0  0  0  0  0  0  0  0  0  0  0
    2.5595   -3.0446    0.0000 C   0  0  0  0  0  0  0  0  0  0  0  0
   -0.2983   -3.8696    0.0000 N   0  0  0  0  0  0  0  0  0  0  0  0
    0.4161   -1.8071    0.0000 N   0  0  0  0  0  0  0  0  0  0  0  0
    0.4161   -2.6321    0.0000 C   0  0  0  0  0  0  0  0  0  0  0  0
    3.9885   -0.5696    0.0000 C   0  0  0  0  0  0  0  0  0  0  0  0
    1.1306   -1.3946    0.0000 C   0  0  0  0  0  0  0  0  0  0  0  0
    3.2740   -2.6321    0.0000 C   0  0  0  0  0  0  0  0  0  0  0  0
    1.8451   -4.2821    0.0000 C   0  0  0  0  0  0  0  0  0  0  0  0
   -0.2983   -3.0446    0.0000 C   0  0  0  0  0  0  0  0  0  0  0  0
    3.9786    1.0572    0.0000 O   0  0  0  0  0  0  0  0  0  0  0  0
    3.7162    1.1578    0.0000 O   0  0  0  0  0  0  0  0  0  0  0  0
    3.2740    0.6679    0.0000 O   0  0  0  0  0  0  0  0  0  0  0  0
   -2.4417   -6.7571    0.0000 O   0  0  0  0  0  0  0  0  0  0  0  0
    0.4161   -0.1571    0.0000 O   0  0  0  0  0  0  0  0  0  0  0  0
    3.2561    3.1427    0.0000 C   0  0  0  0  0  0  0  0  0  0  0  0
    1.1306    1.0804    0.0000 C   0  0  0  0  0  0  0  0  0  0  0  0
    0.4161   -7.5821    0.0000 O   0  0  0  0  0  0  0  0  0  0  0  0
   -1.7273   -3.8696    0.0000 O   0  0  0  0  0  0  0  0  0  0  0  0
    2.5595   -5.5196    0.0000 O   0  0  0  0  0  0  0  0  0  0  0  0
    4.7030   -1.8071    0.0000 O   0  0  0  0  0  0  0  0  0  0  0  0
    1.8451   -2.6321    0.0000 O   0  0  0  0  0  0  0  0  0  0  0  0
   -1.7273   -4.6946    0.0000 C   0  0  0  0  0  0  0  0  0  0  0  0
    1.8451   -6.7571    0.0000 C   0  0  0  0  0  0  0  0  0  0  0  0
    1.1306   -3.0446    0.0000 O   0  0  0  0  0  0  0  0  0  0  0  0
    6.1147    1.2717    0.0000 C   0  0  0  0  0  0  0  0  0  0  0  0
   -1.0128   -7.5821    0.0000 C   0  0  0  0  0  0  0  0  0  0  0  0
    5.2172    2.8261    0.0000 C   0  0  0  0  0  0  0  0  0  0  0  0
    1.8451    2.3179    0.0000 C   0  0  0  0  0  0  0  0  0  0  0  0
    5.5251   -0.0887    0.0000 C   0  0  0  0  0  0  0  0  0  0  0  0
    2.5595   -0.5696    0.0000 C   0  0  0  0  0  0  0  0  0  0  0  0
   -2.5478   -5.6058    0.0000 C   0  0  0  0  0  0  0  0  0  0  0  0
    0.4161   -5.1071    0.0000 C   0  0  0  0  0  0  0  0  0  0  0  0
    3.2740   -4.2821    0.0000 C   0  0  0  0  0  0  0  0  0  0  0  0
    4.7030   -0.9821    0.0000 C   0  0  0  0  0  0  0  0  0  0  0  0
    3.9885   -3.0446    0.0000 C   0  0  0  0  0  0  0  0  0  0  0  0
    1.8451   -1.8071    0.0000 C   0  0  0  0  0  0  0  0  0  0  0  0
    2.5328    3.5396    0.0000 C   0  0  0  0  0  0  0  0  0  0  0  0
    1.1306    1.9054    0.0000 C   0  0  0  0  0  0  0  0  0  0  0  0
    1.8451   -7.5821    0.0000 C   0  0  0  0  0  0  0  0  0  0  0  0
   -2.4417   -5.1071    0.0000 C   0  0  0  0  0  0  0  0  0  0  0  0
   -1.0128   -2.6321    0.0000 C   0  0  0  0  0  0  0  0  0  0  0  0
   -1.7273   -7.9946    0.0000 C   0  0  0  0  0  0  0  0  0  0  0  0
   -0.2983   -7.9946    0.0000 C   0  0  0  0  0  0  0  0  0  0  0  0
    6.5996    1.9391    0.0000 C   0  0  0  0  0  0  0  0  0  0  0  0
    6.4502    0.5180    0.0000 C   0  0  0  0  0  0  0  0  0  0  0  0
    5.4174   -0.5696    0.0000 C   0  0  0  0  0  0  0  0  0  0  0  0
    7.5608   -0.9821    0.0000 C   0  0  0  0  0  0  0  0  0  0  0  0
    1.8275    3.1117    0.0000 C   0  0  0  0  0  0  0  0  0  0  0  0
   -2.9267   -5.7745    0.0000 C   0  0  0  0  0  0  0  0  0  0  0  0
   -3.1562   -4.6946    0.0000 C   0  0  0  0  0  0  0  0  0  0  0  0
    2.5595   -7.9946    0.0000 C   0  0  0  0  0  0  0  0  0  0  0  0
    0.4161    2.3179    0.0000 C   0  0  0  0  0  0  0  0  0  0  0  0
    1.4662    2.6591    0.0000 C   0  0  0  0  0  0  0  0  0  0  0  0
    1.1306   -7.9946    0.0000 C   0  0  0  0  0  0  0  0  0  0  0  0
    2.5149    4.3644    0.0000 C   0  0  0  0  0  0  0  0  0  0  0  0
    6.8464   -0.5696    0.0000 C   0  0  0  0  0  0  0  0  0  0  0  0
    6.1319   -0.9821    0.0000 C   0  0  0  0  0  0  0  0  0  0  0  0
    3.9885   -3.8696    0.0000 C   0  0  0  0  0  0  0  0  0  0  0  0
    8.2753   -0.5696    0.0000 C   0  0  0  0  0  0  0  0  0  0  0  0
  2 16  1  0
  3  1  1  0
  4 10  1  0
  5  4  1  0
  6 11  1  0
  7  2  1  0
  8 21  1  0
  9  8  1  0
 10  3  1  0
 11  5  1  0
 12 15  1  0
 13 18  1  0
 14  6  1  0
 15 24  1  0
 16  1  1  0
 17 26  1  0
 18 32  1  0
 19 29  1  0
 20 25  1  0
 21 17  1  0
 22 12  1  0
 23 19  1  0
 24 13  1  0
 25 31  1  0
 26 33  1  0
 27 30  1  0
 28 27  1  0
 29  7  1  0
 30 14  1  0
 31 23  1  0
 32 20  1  0
 33 28  1  0
 34  2  2  0
 35  3  2  0
 36  5  2  0
 37  9  2  0
 38 14  2  0
 10 39  1  0
 11 40  1  0
 41 15  2  0
 42 17  2  0
 43 18  2  0
 44 19  2  0
 45 25  2  0
 21 46  1  0
 24 47  1  0
 48 28  2  0
 16 49  1  0
 22 50  1  0
 51  1  1  0
 52  4  1  0
 53  7  1  0
 54  6  1  0
 55  8  1  0
 56 13  1  0
 57 20  1  0
 29 58  1  0
 31 59  1  0
 30 60  1  0
 61 39  1  0
 62 40  1  0
 63 47  1  0
 64 46  1  0
 33 65  1  0
 66 50  1  0
 67 50  1  0
 68 49  1  0
 69 49  1  0
 70 58  1  0
 71 80  1  0
 72 61  1  0
 73 64  1  0
 74 64  1  0
 75 63  1  0
 76 62  1  0
 77 62  1  0
 78 63  1  0
 79 61  1  0
 80 81  1  0
 81 70  1  0
 82 59  1  0
 83 71  1  0
  9 22  1  0
M  END
>  <Classification>  (676) 
1

>  <pchembl>  (676) 
5.4

>  <InChI_steorem>  (676) 
InChI=1S/C61H111N11O11/c1-24-26-27-28-29-44-53(75)64-43(25-2)57(79)66(17)34-49(73)67(18)45(30-35(3)4)55(77)65-50(39(11)12)60(82)69(20)46(31-36(5)6)54(76)62-41(15)52(74)63-42(16)56(78)70(21)47(32-37(7)8)58(80)71(22)48(33-38(9)10)59(81)72(23)51(40(13)14)61(83)68(44)19/h35-48,50-51H,24-34H2,1-23H3,(H,62,76)(H,63,74)(H,64,75)(H,65,77)

>  <source>  (676) 
ChEMBL25

>  <source_id>  (676) 
25

>  <optional_reference>  (676) 
10.1021/jm0109863

>  <optional_origin>  (676) 
None

>  <target>  (676) 
MDR1

$$$$

     RDKit          2D

 79 82  0  0  0  0  0  0  0  0999 V2000
    4.7255   -0.2635    0.0000 N   0  0  0  0  0  0  0  0  0  0  0  0
    3.2993   -4.8172    0.0000 N   0  0  0  0  0  0  0  0  0  0  0  0
    0.0000   -1.7929    0.0000 N   0  0  0  0  0  0  0  0  0  0  0  0
    7.0797   -4.7485    0.0000 C   0  0  0  0  0  0  0  0  0  0  0  0
    4.1241   -4.8172    0.0000 C   0  0  0  0  0  0  0  0  0  0  0  0
    3.9351   -0.0401    0.0000 C   0  0  0  0  0  0  0  0  0  0  0  0
    7.7671   -3.4769    0.0000 N   0  0  0  0  0  0  0  0  0  0  0  0
    7.0797   -5.5733    0.0000 N   0  0  0  0  0  0  0  0  0  0  0  0
    0.8076   -0.0745    0.0000 C   0  0  0  0  0  0  0  0  0  0  0  0
    0.3437   -2.7724    0.0000 C   0  0  0  0  0  0  0  0  0  0  0  0
    2.0621   -4.0955    0.0000 C   0  0  0  0  0  0  0  0  0  0  0  0
    5.7566   -1.2774    0.0000 C   0  0  0  0  0  0  0  0  0  0  0  0
    7.7842   -4.3189    0.0000 C   0  0  0  0  0  0  0  0  0  0  0  0
    5.3613   -5.5389    0.0000 N   0  0  0  0  0  0  0  0  0  0  0  0
    7.0625   -3.0989    0.0000 C   0  0  0  0  0  0  0  0  0  0  0  0
    2.0105    0.1832    0.0000 O   0  0  0  0  0  0  0  0  0  0  0  0
    5.7737   -6.2435    0.0000 C   0  0  0  0  0  0  0  0  0  0  0  0
    6.3408   -1.8616    0.0000 N   0  0  0  0  0  0  0  0  0  0  0  0
    1.6496   -3.3910    0.0000 N   0  0  0  0  0  0  0  0  0  0  0  0
    4.5365   -5.5389    0.0000 C   0  0  0  0  0  0  0  0  0  0  0  0
    3.2134    0.3723    0.0000 C   0  0  0  0  0  0  0  0  0  0  0  0
    0.0859   -0.7103    0.0000 C   0  0  0  0  0  0  0  0  0  0  0  0
    0.8248   -3.3910    0.0000 C   0  0  0  0  0  0  0  0  0  0  0  0
    7.0453   -2.2740    0.0000 C   0  0  0  0  0  0  0  0  0  0  0  0
    2.8755   -4.0955    0.0000 C   0  0  0  0  0  0  0  0  0  0  0  0
    4.9489   -1.0712    0.0000 C   0  0  0  0  0  0  0  0  0  0  0  0
    6.5986   -6.2435    0.0000 C   0  0  0  0  0  0  0  0  0  0  0  0
    6.3580   -4.3361    0.0000 O   0  0  0  0  0  0  0  0  0  0  0  0
    3.3508   -0.6244    0.0000 O   0  0  0  0  0  0  0  0  0  0  0  0
    4.5365   -4.0955    0.0000 O   0  0  0  0  0  0  0  0  0  0  0  0
    8.4888   -4.7313    0.0000 C   0  0  0  0  0  0  0  0  0  0  0  0
    0.5155    0.7503    0.0000 O   0  0  0  0  0  0  0  0  0  0  0  0
    6.1690   -0.5728    0.0000 O   0  0  0  0  0  0  0  0  0  0  0  0
    1.6496   -4.8172    0.0000 O   0  0  0  0  0  0  0  0  0  0  0  0
   -0.2578   -3.0817    0.0000 O   0  0  0  0  0  0  0  0  0  0  0  0
    6.3408   -3.5113    0.0000 O   0  0  0  0  0  0  0  0  0  0  0  0
    5.3613   -6.9652    0.0000 O   0  0  0  0  0  0  0  0  0  0  0  0
    7.7499   -1.8444    0.0000 C   0  0  0  0  0  0  0  0  0  0  0  0
    0.8592   -4.3705    0.0000 C   0  0  0  0  0  0  0  0  0  0  0  0
   -0.4640   -0.3151    0.0000 C   0  0  0  0  0  0  0  0  0  0  0  0
    4.1241   -6.2435    0.0000 C   0  0  0  0  0  0  0  0  0  0  0  0
    3.2134    1.1971    0.0000 C   0  0  0  0  0  0  0  0  0  0  0  0
    2.8755   -5.5389    0.0000 C   0  0  0  0  0  0  0  0  0  0  0  0
    5.3270    0.3207    0.0000 C   0  0  0  0  0  0  0  0  0  0  0  0
   -1.0482   -1.9132    0.0000 C   0  0  0  0  0  0  0  0  0  0  0  0
    4.3475   -1.6382    0.0000 C   0  0  0  0  0  0  0  0  0  0  0  0
    3.2993   -3.3910    0.0000 C   0  0  0  0  0  0  0  0  0  0  0  0
    7.8702   -5.8311    0.0000 C   0  0  0  0  0  0  0  0  0  0  0  0
    8.4716   -3.0817    0.0000 C   0  0  0  0  0  0  0  0  0  0  0  0
    9.2105   -4.3189    0.0000 C   0  0  0  0  0  0  0  0  0  0  0  0
    8.5747   -1.8444    0.0000 C   0  0  0  0  0  0  0  0  0  0  0  0
    7.0797   -6.9136    0.0000 C   0  0  0  0  0  0  0  0  0  0  0  0
   -1.2888    1.0424    0.0000 O   0  0  0  0  0  0  0  0  0  0  0  0
    7.8702   -6.6559    0.0000 C   0  0  0  0  0  0  0  0  0  0  0  0
   -0.5097    0.5957    0.0000 C   0  0  0  0  0  0  0  0  0  0  0  0
    0.1718   -4.7141    0.0000 C   0  0  0  0  0  0  0  0  0  0  0  0
   -1.2372   -0.6072    0.0000 C   0  0  0  0  0  0  0  0  0  0  0  0
    4.5365   -6.9652    0.0000 C   0  0  0  0  0  0  0  0  0  0  0  0
    3.9179    1.6095    0.0000 C   0  0  0  0  0  0  0  0  0  0  0  0
    2.5088    1.6095    0.0000 C   0  0  0  0  0  0  0  0  0  0  0  0
    3.2993   -6.2435    0.0000 C   0  0  0  0  0  0  0  0  0  0  0  0
    4.5709   -2.4459    0.0000 C   0  0  0  0  0  0  0  0  0  0  0  0
    2.8755   -2.6693    0.0000 C   0  0  0  0  0  0  0  0  0  0  0  0
    4.1241   -3.3910    0.0000 C   0  0  0  0  0  0  0  0  0  0  0  0
    3.5570   -1.4320    0.0000 C   0  0  0  0  0  0  0  0  0  0  0  0
    9.1933   -3.4769    0.0000 C   0  0  0  0  0  0  0  0  0  0  0  0
    9.9322   -4.7313    0.0000 C   0  0  0  0  0  0  0  0  0  0  0  0
    8.9871   -2.5662    0.0000 C   0  0  0  0  0  0  0  0  0  0  0  0
    8.9871   -1.1399    0.0000 C   0  0  0  0  0  0  0  0  0  0  0  0
   -0.6874   -4.7141    0.0000 C   0  0  0  0  0  0  0  0  0  0  0  0
   -0.1718   -5.3156    0.0000 C   0  0  0  0  0  0  0  0  0  0  0  0
    4.1241   -7.6697    0.0000 C   0  0  0  0  0  0  0  0  0  0  0  0
    3.9179    2.4343    0.0000 C   0  0  0  0  0  0  0  0  0  0  0  0
    9.8119   -2.5490    0.0000 C   0  0  0  0  0  0  0  0  0  0  0  0
    9.7947   -1.1227    0.0000 C   0  0  0  0  0  0  0  0  0  0  0  0
   10.6368   -4.3017    0.0000 C   0  0  0  0  0  0  0  0  0  0  0  0
    9.9150   -3.0817    0.0000 C   0  0  0  0  0  0  0  0  0  0  0  0
   10.2243   -1.8444    0.0000 C   0  0  0  0  0  0  0  0  0  0  0  0
   10.6196   -3.4769    0.0000 C   0  0  0  0  0  0  0  0  0  0  0  0
  2 25  1  0
  3 22  1  0
  4 13  1  0
  5  2  1  0
  6  1  1  0
  7 15  1  0
  8  4  1  0
  9 16  1  0
 10  3  1  0
 11 19  1  0
 12 26  1  0
 13  7  1  0
 14 17  1  0
 15 24  1  0
 16 21  1  0
 17 27  1  0
 18 12  1  0
 19 23  1  0
 20 14  1  0
 21  6  1  0
 22  9  1  0
 23 10  1  0
 24 18  1  0
 25 11  1  0
 26  1  1  0
 27  8  1  0
 28  4  2  0
 29  6  2  0
 30  5  2  0
 13 31  1  0
 32  9  2  0
 33 12  2  0
 34 11  2  0
 35 10  2  0
 36 15  2  0
 37 17  2  0
 24 38  1  0
 23 39  1  0
 22 40  1  0
 20 41  1  0
 21 42  1  0
 43  2  1  0
 44  1  1  0
 45  3  1  0
 26 46  1  0
 25 47  1  0
 48  8  1  0
 49  7  1  0
 50 31  1  0
 51 38  1  0
 27 52  1  0
 53 55  1  0
 54 48  1  0
 55 40  1  0
 56 39  1  0
 40 57  1  0
 58 41  1  0
 59 42  1  0
 42 60  1  0
 41 61  1  0
 62 46  1  0
 63 47  1  0
 64 47  1  0
 65 46  1  0
 66 50  2  0
 67 50  1  0
 68 51  2  0
 69 51  1  0
 70 56  1  0
 71 56  1  0
 72 58  1  0
 73 59  1  0
 74 68  1  0
 75 69  2  0
 76 67  2  0
 77 66  1  0
 78 75  1  0
 79 76  1  0
 74 78  2  0
 54 52  1  0
 77 79  2  0
 20  5  1  0
M  END
>  <Classification>  (677) 
1

>  <pchembl>  (677) 
5.96

>  <InChI_steorem>  (677) 
InChI=1S/C60H92N8O11/c1-16-38(9)47-58(76)65(13)48(36(5)6)53(71)61-43(31-35(3)4)56(74)67(15)50(40(11)34-69)60(78)79-51(39(10)17-2)59(77)66(14)49(37(7)8)54(72)62-44(32-41-25-20-18-21-26-41)55(73)64(12)46(33-42-27-22-19-23-28-42)57(75)68-30-24-29-45(68)52(70)63-47/h18-23,25-28,35-40,43-51,69H,16-17,24,29-34H2,1-15H3,(H,61,71)(H,62,72)(H,63,70)

>  <source>  (677) 
ChEMBL25

>  <source_id>  (677) 
25

>  <optional_reference>  (677) 
10.1021/jm990955w

>  <optional_origin>  (677) 
None

>  <target>  (677) 
MDR1

$$$$

     RDKit          2D

 79 82  0  0  0  0  0  0  0  0999 V2000
    7.5167   -4.3198    0.0000 C   0  0  0  0  0  0  0  0  0  0  0  0
    6.8120   -4.7323    0.0000 C   0  0  0  0  0  0  0  0  0  0  0  0
    7.4995   -3.4948    0.0000 N   0  0  0  0  0  0  0  0  0  0  0  0
    3.0652   -4.8011    0.0000 N   0  0  0  0  0  0  0  0  0  0  0  0
    4.4917   -0.2808    0.0000 N   0  0  0  0  0  0  0  0  0  0  0  0
    0.6073   -1.9652    0.0000 N   0  0  0  0  0  0  0  0  0  0  0  0
    6.8120   -5.5573    0.0000 N   0  0  0  0  0  0  0  0  0  0  0  0
    3.8730   -4.8011    0.0000 C   0  0  0  0  0  0  0  0  0  0  0  0
    3.6839   -0.0402    0.0000 C   0  0  0  0  0  0  0  0  0  0  0  0
    6.7948   -3.0995    0.0000 C   0  0  0  0  0  0  0  0  0  0  0  0
    0.7964   -0.3495    0.0000 C   0  0  0  0  0  0  0  0  0  0  0  0
    0.1777   -2.6698    0.0000 C   0  0  0  0  0  0  0  0  0  0  0  0
    5.5058   -1.2777    0.0000 C   0  0  0  0  0  0  0  0  0  0  0  0
    1.8277   -4.0964    0.0000 C   0  0  0  0  0  0  0  0  0  0  0  0
    5.1105   -5.5230    0.0000 N   0  0  0  0  0  0  0  0  0  0  0  0
    2.0167   -0.1948    0.0000 O   0  0  0  0  0  0  0  0  0  0  0  0
    5.5230   -6.2105    0.0000 C   0  0  0  0  0  0  0  0  0  0  0  0
    6.0730   -1.8792    0.0000 N   0  0  0  0  0  0  0  0  0  0  0  0
    1.4151   -3.3917    0.0000 N   0  0  0  0  0  0  0  0  0  0  0  0
    4.2855   -5.5230    0.0000 C   0  0  0  0  0  0  0  0  0  0  0  0
    2.9792    0.3552    0.0000 C   0  0  0  0  0  0  0  0  0  0  0  0
    6.7948   -2.2745    0.0000 C   0  0  0  0  0  0  0  0  0  0  0  0
    0.6073   -3.3917    0.0000 C   0  0  0  0  0  0  0  0  0  0  0  0
    2.6526   -4.0964    0.0000 C   0  0  0  0  0  0  0  0  0  0  0  0
    4.6980   -1.0714    0.0000 C   0  0  0  0  0  0  0  0  0  0  0  0
    0.1777   -1.2433    0.0000 C   0  0  0  0  0  0  0  0  0  0  0  0
    6.3308   -6.2105    0.0000 C   0  0  0  0  0  0  0  0  0  0  0  0
    8.2214   -4.7152    0.0000 C   0  0  0  0  0  0  0  0  0  0  0  0
    6.0902   -4.3370    0.0000 O   0  0  0  0  0  0  0  0  0  0  0  0
    4.2855   -4.0964    0.0000 O   0  0  0  0  0  0  0  0  0  0  0  0
    3.1167   -0.6417    0.0000 O   0  0  0  0  0  0  0  0  0  0  0  0
    0.4527    0.4239    0.0000 O   0  0  0  0  0  0  0  0  0  0  0  0
    5.9011   -0.5902    0.0000 O   0  0  0  0  0  0  0  0  0  0  0  0
    1.4151   -4.8011    0.0000 O   0  0  0  0  0  0  0  0  0  0  0  0
   -0.6302   -2.6698    0.0000 O   0  0  0  0  0  0  0  0  0  0  0  0
    6.0902   -3.5120    0.0000 O   0  0  0  0  0  0  0  0  0  0  0  0
    5.1105   -6.9323    0.0000 O   0  0  0  0  0  0  0  0  0  0  0  0
    7.4995   -1.8620    0.0000 C   0  0  0  0  0  0  0  0  0  0  0  0
    0.1777   -4.0964    0.0000 C   0  0  0  0  0  0  0  0  0  0  0  0
    8.9433   -4.3027    0.0000 C   0  0  0  0  0  0  0  0  0  0  0  0
    3.8730   -6.2105    0.0000 C   0  0  0  0  0  0  0  0  0  0  0  0
    2.9792    1.1802    0.0000 C   0  0  0  0  0  0  0  0  0  0  0  0
    8.2042   -3.0823    0.0000 C   0  0  0  0  0  0  0  0  0  0  0  0
    2.6526   -5.5230    0.0000 C   0  0  0  0  0  0  0  0  0  0  0  0
    5.0761    0.3036    0.0000 C   0  0  0  0  0  0  0  0  0  0  0  0
    1.4151   -1.9652    0.0000 C   0  0  0  0  0  0  0  0  0  0  0  0
    7.6027   -5.7980    0.0000 C   0  0  0  0  0  0  0  0  0  0  0  0
   -0.6302   -1.2433    0.0000 C   0  0  0  0  0  0  0  0  0  0  0  0
    3.0652   -3.3917    0.0000 C   0  0  0  0  0  0  0  0  0  0  0  0
    4.1136   -1.6558    0.0000 C   0  0  0  0  0  0  0  0  0  0  0  0
    8.2386   -5.5402    0.0000 O   0  0  0  0  0  0  0  0  0  0  0  0
    7.7058   -1.0542    0.0000 C   0  0  0  0  0  0  0  0  0  0  0  0
    6.8120   -6.8808    0.0000 C   0  0  0  0  0  0  0  0  0  0  0  0
    7.6027   -6.6230    0.0000 C   0  0  0  0  0  0  0  0  0  0  0  0
   -0.6302   -4.0964    0.0000 C   0  0  0  0  0  0  0  0  0  0  0  0
    9.6480   -4.7152    0.0000 C   0  0  0  0  0  0  0  0  0  0  0  0
    8.9261   -3.4777    0.0000 C   0  0  0  0  0  0  0  0  0  0  0  0
    4.2855   -6.9323    0.0000 C   0  0  0  0  0  0  0  0  0  0  0  0
    3.6839    1.5755    0.0000 C   0  0  0  0  0  0  0  0  0  0  0  0
    2.2745    1.5755    0.0000 C   0  0  0  0  0  0  0  0  0  0  0  0
    3.0652   -6.2105    0.0000 C   0  0  0  0  0  0  0  0  0  0  0  0
   -1.0427   -0.5386    0.0000 C   0  0  0  0  0  0  0  0  0  0  0  0
   -1.0427   -1.9652    0.0000 C   0  0  0  0  0  0  0  0  0  0  0  0
    3.8730   -3.3917    0.0000 C   0  0  0  0  0  0  0  0  0  0  0  0
    3.3230   -1.4323    0.0000 C   0  0  0  0  0  0  0  0  0  0  0  0
    4.3198   -2.4464    0.0000 C   0  0  0  0  0  0  0  0  0  0  0  0
    2.6526   -2.6698    0.0000 C   0  0  0  0  0  0  0  0  0  0  0  0
    7.1042   -0.4698    0.0000 C   0  0  0  0  0  0  0  0  0  0  0  0
    8.5136   -0.8308    0.0000 C   0  0  0  0  0  0  0  0  0  0  0  0
   -1.0427   -3.3917    0.0000 C   0  0  0  0  0  0  0  0  0  0  0  0
   -1.0427   -4.8011    0.0000 C   0  0  0  0  0  0  0  0  0  0  0  0
    3.8730   -7.6370    0.0000 C   0  0  0  0  0  0  0  0  0  0  0  0
    3.6839    2.4005    0.0000 C   0  0  0  0  0  0  0  0  0  0  0  0
    9.6308   -3.0652    0.0000 C   0  0  0  0  0  0  0  0  0  0  0  0
   10.3527   -4.3027    0.0000 C   0  0  0  0  0  0  0  0  0  0  0  0
    8.7198   -0.0230    0.0000 C   0  0  0  0  0  0  0  0  0  0  0  0
    7.3105    0.3380    0.0000 C   0  0  0  0  0  0  0  0  0  0  0  0
    8.1183    0.5614    0.0000 C   0  0  0  0  0  0  0  0  0  0  0  0
   10.3355   -3.4777    0.0000 C   0  0  0  0  0  0  0  0  0  0  0  0
  2  1  1  0
  3  1  1  0
  4  8  1  0
  5 25  1  0
  6 26  1  0
  7  2  1  0
  8 20  1  0
  9  5  1  0
 10  3  1  0
 11 16  1  0
 12 23  1  0
 13 18  1  0
 14 24  1  0
 15 17  1  0
 16 21  1  0
 17 27  1  0
 18 22  1  0
 19 14  1  0
 20 15  1  0
 21  9  1  0
 22 10  1  0
 23 19  1  0
 24  4  1  0
 25 13  1  0
 26 11  1  0
 27  7  1  0
  1 28  1  0
 29  2  2  0
 30  8  2  0
 31  9  2  0
 32 11  2  0
 33 13  2  0
 34 14  2  0
 35 12  2  0
 36 10  2  0
 37 17  2  0
 22 38  1  0
 23 39  1  0
 40 28  1  0
 20 41  1  0
 21 42  1  0
 43  3  1  0
 44  4  1  0
 45  5  1  0
 46  6  1  0
 47  7  1  0
 26 48  1  0
 24 49  1  0
 25 50  1  0
 28 51  1  0
 52 38  1  0
 27 53  1  0
 54 47  1  0
 55 39  1  0
 56 40  2  0
 57 40  1  0
 58 41  1  0
 59 42  1  0
 42 60  1  0
 41 61  1  0
 62 48  1  0
 63 48  1  0
 64 49  1  0
 65 50  1  0
 66 50  1  0
 67 49  1  0
 68 52  2  0
 69 52  1  0
 70 55  1  0
 71 55  1  0
 72 58  1  0
 73 59  1  0
 74 57  2  0
 75 56  1  0
 76 69  2  0
 77 68  1  0
 78 76  1  0
 79 74  1  0
 53 54  1  0
 75 79  2  0
 77 78  2  0
  6 12  1  0
M  END
>  <Classification>  (678) 
1

>  <pchembl>  (678) 
5.87

>  <InChI_steorem>  (678) 
InChI=1S/C60H92N8O11/c1-17-38(11)45-57(75)64(13)46(35(5)6)53(71)61-42(32-34(3)4)55(73)66(15)48(37(9)10)60(78)79-51(39(12)18-2)59(77)65(14)47(36(7)8)54(72)62-43(33-40-26-21-19-22-27-40)56(74)67(16)49(50(69)41-28-23-20-24-29-41)58(76)68-31-25-30-44(68)52(70)63-45/h19-24,26-29,34-39,42-51,69H,17-18,25,30-33H2,1-16H3,(H,61,71)(H,62,72)(H,63,70)

>  <source>  (678) 
ChEMBL25

>  <source_id>  (678) 
25

>  <optional_reference>  (678) 
10.1021/jm990955w

>  <optional_origin>  (678) 
None

>  <target>  (678) 
MDR1

$$$$

     RDKit          2D

 83 83  0  0  0  0  0  0  0  0999 V2000
    2.2734    2.3919    0.0000 N   0  0  0  0  0  0  0  0  0  0  0  0
    1.6489    1.8528    0.0000 C   0  0  0  0  0  0  0  0  0  0  0  0
    0.3190    1.1268    0.0000 N   0  0  0  0  0  0  0  0  0  0  0  0
    2.9791    1.9645    0.0000 C   0  0  0  0  0  0  0  0  0  0  0  0
    0.7165    0.4038    0.0000 C   0  0  0  0  0  0  0  0  0  0  0  0
    0.6866   -1.0248    0.0000 N   0  0  0  0  0  0  0  0  0  0  0  0
    0.2593   -1.7305    0.0000 C   0  0  0  0  0  0  0  0  0  0  0  0
    0.2294   -3.1591    0.0000 N   0  0  0  0  0  0  0  0  0  0  0  0
    2.7908    1.1613    0.0000 C   0  0  0  0  0  0  0  0  0  0  0  0
    2.6142   -7.4968    0.0000 C   0  0  0  0  0  0  0  0  0  0  0  0
    1.7894   -7.4795    0.0000 N   0  0  0  0  0  0  0  0  0  0  0  0
    0.2892   -0.3019    0.0000 C   0  0  0  0  0  0  0  0  0  0  0  0
    0.6568   -2.4534    0.0000 C   0  0  0  0  0  0  0  0  0  0  0  0
    2.6441   -6.0681    0.0000 N   0  0  0  0  0  0  0  0  0  0  0  0
    3.1013   -3.9338    0.0000 N   0  0  0  0  0  0  0  0  0  0  0  0
    0.6269   -3.8821    0.0000 C   0  0  0  0  0  0  0  0  0  0  0  0
    3.0715   -5.3624    0.0000 C   0  0  0  0  0  0  0  0  0  0  0  0
    0.7464    1.8325    0.0000 C   0  0  0  0  0  0  0  0  0  0  0  0
    2.7039   -3.2109    0.0000 C   0  0  0  0  0  0  0  0  0  0  0  0
    0.5373   -8.1680    0.0000 C   0  0  0  0  0  0  0  0  0  0  0  0
    3.1910    0.3521    0.0000 N   0  0  0  0  0  0  0  0  0  0  0  0
    2.7337   -1.7822    0.0000 N   0  0  0  0  0  0  0  0  0  0  0  0
    3.0416   -6.7911    0.0000 C   0  0  0  0  0  0  0  0  0  0  0  0
    2.6740   -4.6395    0.0000 C   0  0  0  0  0  0  0  0  0  0  0  0
    3.1611   -1.0766    0.0000 C   0  0  0  0  0  0  0  0  0  0  0  0
    0.5970   -5.3107    0.0000 N   0  0  0  0  0  0  0  0  0  0  0  0
    0.1398   -7.4450    0.0000 N   0  0  0  0  0  0  0  0  0  0  0  0
    0.1697   -6.0164    0.0000 C   0  0  0  0  0  0  0  0  0  0  0  0
    1.3621   -8.1852    0.0000 C   0  0  0  0  0  0  0  0  0  0  0  0
    0.1995   -4.5878    0.0000 C   0  0  0  0  0  0  0  0  0  0  0  0
    2.7636   -0.3536    0.0000 C   0  0  0  0  0  0  0  0  0  0  0  0
    3.1312   -2.5052    0.0000 C   0  0  0  0  0  0  0  0  0  0  0  0
    3.7397    2.2843    0.0000 C   0  0  0  0  0  0  0  0  0  0  0  0
    0.5671   -6.7393    0.0000 C   0  0  0  0  0  0  0  0  0  0  0  0
    1.9452    1.0828    0.0000 O   0  0  0  0  0  0  0  0  0  0  0  0
    1.5413    0.3866    0.0000 O   0  0  0  0  0  0  0  0  0  0  0  0
   -0.5655   -1.7133    0.0000 O   0  0  0  0  0  0  0  0  0  0  0  0
    3.0117   -8.2197    0.0000 O   0  0  0  0  0  0  0  0  0  0  0  0
    2.0404    0.8185    0.0000 O   0  0  0  0  0  0  0  0  0  0  0  0
   -0.1681   -2.4362    0.0000 C   0  0  0  0  0  0  0  0  0  0  0  0
    1.4517   -3.8993    0.0000 O   0  0  0  0  0  0  0  0  0  0  0  0
   -0.5357   -0.2846    0.0000 C   0  0  0  0  0  0  0  0  0  0  0  0
    3.8963   -5.3797    0.0000 O   0  0  0  0  0  0  0  0  0  0  0  0
    1.8790   -3.1936    0.0000 O   0  0  0  0  0  0  0  0  0  0  0  0
    0.1099   -8.8736    0.0000 O   0  0  0  0  0  0  0  0  0  0  0  0
    3.9859   -1.0938    0.0000 O   0  0  0  0  0  0  0  0  0  0  0  0
    3.4988   -4.6568    0.0000 C   0  0  0  0  0  0  0  0  0  0  0  0
   -0.6552   -5.9991    0.0000 O   0  0  0  0  0  0  0  0  0  0  0  0
    0.3333    2.5466    0.0000 C   0  0  0  0  0  0  0  0  0  0  0  0
    3.8664   -6.8083    0.0000 C   0  0  0  0  0  0  0  0  0  0  0  0
    2.2044    3.2140    0.0000 C   0  0  0  0  0  0  0  0  0  0  0  0
   -0.5058    1.1440    0.0000 C   0  0  0  0  0  0  0  0  0  0  0  0
    5.8145    1.6064    0.0000 C   0  0  0  0  0  0  0  0  0  0  0  0
    5.7111    0.7879    0.0000 C   0  0  0  0  0  0  0  0  0  0  0  0
    1.5114   -1.0421    0.0000 C   0  0  0  0  0  0  0  0  0  0  0  0
   -0.4480   -3.6300    0.0000 C   0  0  0  0  0  0  0  0  0  0  0  0
    1.3919   -6.7566    0.0000 C   0  0  0  0  0  0  0  0  0  0  0  0
    4.3968    1.7855    0.0000 C   0  0  0  0  0  0  0  0  0  0  0  0
    3.7788   -3.4629    0.0000 C   0  0  0  0  0  0  0  0  0  0  0  0
    3.8430    3.1028    0.0000 O   0  0  0  0  0  0  0  0  0  0  0  0
    1.9089   -1.7650    0.0000 C   0  0  0  0  0  0  0  0  0  0  0  0
    1.7595   -8.9081    0.0000 C   0  0  0  0  0  0  0  0  0  0  0  0
    3.5884   -0.3709    0.0000 C   0  0  0  0  0  0  0  0  0  0  0  0
   -0.6253   -4.5705    0.0000 C   0  0  0  0  0  0  0  0  0  0  0  0
    5.1573    2.1052    0.0000 C   0  0  0  0  0  0  0  0  0  0  0  0
   -0.5954   -3.1419    0.0000 C   0  0  0  0  0  0  0  0  0  0  0  0
   -0.9331    0.4383    0.0000 C   0  0  0  0  0  0  0  0  0  0  0  0
    3.9262   -3.9511    0.0000 C   0  0  0  0  0  0  0  0  0  0  0  0
    1.2446   -6.2685    0.0000 C   0  0  0  0  0  0  0  0  0  0  0  0
    6.3683    0.2892    0.0000 C   0  0  0  0  0  0  0  0  0  0  0  0
    0.7452    3.2614    0.0000 C   0  0  0  0  0  0  0  0  0  0  0  0
   -0.4917    2.5459    0.0000 C   0  0  0  0  0  0  0  0  0  0  0  0
    4.2938   -6.1026    0.0000 C   0  0  0  0  0  0  0  0  0  0  0  0
    4.2639   -7.5313    0.0000 C   0  0  0  0  0  0  0  0  0  0  0  0
    4.2934    0.9670    0.0000 C   0  0  0  0  0  0  0  0  0  0  0  0
   -1.7580    0.4556    0.0000 C   0  0  0  0  0  0  0  0  0  0  0  0
   -1.0022    1.2604    0.0000 C   0  0  0  0  0  0  0  0  0  0  0  0
   -0.6988   -3.9604    0.0000 C   0  0  0  0  0  0  0  0  0  0  0  0
   -1.4202   -3.1246    0.0000 C   0  0  0  0  0  0  0  0  0  0  0  0
    4.0295   -3.1326    0.0000 C   0  0  0  0  0  0  0  0  0  0  0  0
    4.7510   -3.9683    0.0000 C   0  0  0  0  0  0  0  0  0  0  0  0
    4.0158    0.3348    0.0000 C   0  0  0  0  0  0  0  0  0  0  0  0
    7.1288    0.6089    0.0000 C   0  0  0  0  0  0  0  0  0  0  0  0
  2  1  1  0
  3 18  1  0
  4  1  1  0
  5  3  1  0
  6 12  1  0
  7  6  1  0
  8 13  1  0
  9  4  1  0
 10 23  1  0
 11 10  1  0
 12  5  1  0
 13  7  1  0
 14 17  1  0
 15 19  1  0
 16  8  1  0
 17 24  1  0
 18  2  1  0
 19 32  1  0
 20 27  1  0
 21  9  1  0
 22 25  1  0
 23 14  1  0
 24 15  1  0
 25 31  1  0
 26 30  1  0
 27 34  1  0
 28 26  1  0
 29 11  1  0
 30 16  1  0
 31 21  1  0
 32 22  1  0
 33  4  1  0
 34 28  1  0
 35  2  2  0
 36  5  2  0
 37  7  2  0
 38 10  2  0
 39  9  2  0
 13 40  1  0
 41 16  2  0
 12 42  1  0
 43 17  2  0
 44 19  2  0
 45 20  2  0
 46 25  2  0
 24 47  1  0
 48 28  2  0
 18 49  1  0
 23 50  1  0
 51  1  1  0
 52  3  1  0
 53 65  1  0
 54 53  2  3
 55  6  1  0
 56  8  1  0
 57 11  1  0
 58 33  1  0
 59 15  1  0
 33 60  1  0
 61 22  1  0
 29 62  1  0
 31 63  1  0
 30 64  1  0
 65 58  1  0
 66 40  1  0
 67 42  1  0
 68 47  1  0
 34 69  1  0
 70 54  1  0
 71 49  1  0
 72 49  1  0
 73 50  1  0
 74 50  1  0
 58 75  1  0
 76 67  1  0
 77 67  1  0
 78 66  1  0
 79 66  1  0
 80 68  1  0
 81 68  1  0
 82 63  1  0
 83 70  1  0
 20 29  1  0
M  END
>  <Classification>  (679) 
1

>  <pchembl>  (679) 
5.34

>  <InChI_steorem>  (679) 
InChI=1S/C60H107N11O12/c1-24-26-27-28-38(13)50(73)49-54(77)63-42(25-2)56(79)65(17)32-46(72)67(19)43(29-33(3)4)53(76)64-47(36(9)10)59(82)66(18)41(16)52(75)61-39(14)51(74)62-40(15)55(78)68(20)44(30-34(5)6)57(80)69(21)45(31-35(7)8)58(81)70(22)48(37(11)12)60(83)71(49)23/h26-27,33-45,47-50,73H,24-25,28-32H2,1-23H3,(H,61,75)(H,62,74)(H,63,77)(H,64,76)

>  <source>  (679) 
ChEMBL25

>  <source_id>  (679) 
25

>  <optional_reference>  (679) 
10.1021/jm0109863

>  <optional_origin>  (679) 
None

>  <target>  (679) 
MDR1

$$$$

     RDKit          2D

 83 83  0  0  0  0  0  0  0  0999 V2000
    2.3953    2.8873    0.0000 N   0  0  0  0  0  0  0  0  0  0  0  0
    1.7708    2.3482    0.0000 C   0  0  0  0  0  0  0  0  0  0  0  0
    0.4409    1.6222    0.0000 N   0  0  0  0  0  0  0  0  0  0  0  0
    3.1010    2.4599    0.0000 C   0  0  0  0  0  0  0  0  0  0  0  0
    2.9126    1.6567    0.0000 C   0  0  0  0  0  0  0  0  0  0  0  0
    1.9113   -6.9841    0.0000 N   0  0  0  0  0  0  0  0  0  0  0  0
    2.7361   -7.0013    0.0000 C   0  0  0  0  0  0  0  0  0  0  0  0
    0.3512   -2.6637    0.0000 N   0  0  0  0  0  0  0  0  0  0  0  0
    0.8383    0.8992    0.0000 C   0  0  0  0  0  0  0  0  0  0  0  0
    2.7659   -5.5727    0.0000 N   0  0  0  0  0  0  0  0  0  0  0  0
    3.2232   -3.4384    0.0000 N   0  0  0  0  0  0  0  0  0  0  0  0
    0.7487   -3.3867    0.0000 C   0  0  0  0  0  0  0  0  0  0  0  0
    3.1933   -4.8670    0.0000 C   0  0  0  0  0  0  0  0  0  0  0  0
    0.8682    2.3279    0.0000 C   0  0  0  0  0  0  0  0  0  0  0  0
    0.3811   -1.2351    0.0000 C   0  0  0  0  0  0  0  0  0  0  0  0
    0.6591   -7.6725    0.0000 C   0  0  0  0  0  0  0  0  0  0  0  0
    2.8257   -2.7155    0.0000 C   0  0  0  0  0  0  0  0  0  0  0  0
    0.8085   -0.5294    0.0000 N   0  0  0  0  0  0  0  0  0  0  0  0
    3.3128    0.8475    0.0000 N   0  0  0  0  0  0  0  0  0  0  0  0
    2.8556   -1.2868    0.0000 N   0  0  0  0  0  0  0  0  0  0  0  0
    1.4839   -7.6898    0.0000 C   0  0  0  0  0  0  0  0  0  0  0  0
    0.7786   -1.9580    0.0000 C   0  0  0  0  0  0  0  0  0  0  0  0
    3.1634   -6.2957    0.0000 C   0  0  0  0  0  0  0  0  0  0  0  0
    3.2829   -0.5811    0.0000 C   0  0  0  0  0  0  0  0  0  0  0  0
    2.7958   -4.1441    0.0000 C   0  0  0  0  0  0  0  0  0  0  0  0
    0.2616   -6.9496    0.0000 N   0  0  0  0  0  0  0  0  0  0  0  0
    0.7188   -4.8153    0.0000 N   0  0  0  0  0  0  0  0  0  0  0  0
    0.4110    0.1935    0.0000 C   0  0  0  0  0  0  0  0  0  0  0  0
    0.2915   -5.5210    0.0000 C   0  0  0  0  0  0  0  0  0  0  0  0
    0.3214   -4.0923    0.0000 C   0  0  0  0  0  0  0  0  0  0  0  0
    2.8854    0.1418    0.0000 C   0  0  0  0  0  0  0  0  0  0  0  0
    3.2530   -2.0098    0.0000 C   0  0  0  0  0  0  0  0  0  0  0  0
    3.8615    2.7797    0.0000 C   0  0  0  0  0  0  0  0  0  0  0  0
    0.6890   -6.2439    0.0000 C   0  0  0  0  0  0  0  0  0  0  0  0
    2.0671    1.5782    0.0000 O   0  0  0  0  0  0  0  0  0  0  0  0
    3.1335   -7.7243    0.0000 O   0  0  0  0  0  0  0  0  0  0  0  0
    2.1622    1.3139    0.0000 O   0  0  0  0  0  0  0  0  0  0  0  0
    1.6631    0.8820    0.0000 O   0  0  0  0  0  0  0  0  0  0  0  0
    1.5735   -3.4039    0.0000 O   0  0  0  0  0  0  0  0  0  0  0  0
    4.0181   -4.8843    0.0000 O   0  0  0  0  0  0  0  0  0  0  0  0
    0.2317   -8.3782    0.0000 O   0  0  0  0  0  0  0  0  0  0  0  0
   -0.4437   -1.2178    0.0000 O   0  0  0  0  0  0  0  0  0  0  0  0
    2.0009   -2.6982    0.0000 O   0  0  0  0  0  0  0  0  0  0  0  0
    4.1077   -0.5984    0.0000 O   0  0  0  0  0  0  0  0  0  0  0  0
   -0.0462   -1.9408    0.0000 C   0  0  0  0  0  0  0  0  0  0  0  0
    1.8814   -8.4127    0.0000 C   0  0  0  0  0  0  0  0  0  0  0  0
    3.6206   -4.1613    0.0000 C   0  0  0  0  0  0  0  0  0  0  0  0
   -0.4138    0.2108    0.0000 C   0  0  0  0  0  0  0  0  0  0  0  0
   -0.5333   -5.5037    0.0000 O   0  0  0  0  0  0  0  0  0  0  0  0
    0.4551    3.0420    0.0000 C   0  0  0  0  0  0  0  0  0  0  0  0
    3.9882   -6.3129    0.0000 C   0  0  0  0  0  0  0  0  0  0  0  0
    2.3262    3.7094    0.0000 C   0  0  0  0  0  0  0  0  0  0  0  0
    5.9363    2.1018    0.0000 C   0  0  0  0  0  0  0  0  0  0  0  0
    5.8329    1.2833    0.0000 C   0  0  0  0  0  0  0  0  0  0  0  0
   -0.3840    1.6394    0.0000 C   0  0  0  0  0  0  0  0  0  0  0  0
    1.5138   -6.2612    0.0000 C   0  0  0  0  0  0  0  0  0  0  0  0
   -0.3262   -3.1346    0.0000 C   0  0  0  0  0  0  0  0  0  0  0  0
    4.5186    2.2809    0.0000 C   0  0  0  0  0  0  0  0  0  0  0  0
    3.9006   -2.9675    0.0000 C   0  0  0  0  0  0  0  0  0  0  0  0
    3.9649    3.5982    0.0000 O   0  0  0  0  0  0  0  0  0  0  0  0
    2.0307   -1.2696    0.0000 C   0  0  0  0  0  0  0  0  0  0  0  0
   -0.5035   -4.0751    0.0000 C   0  0  0  0  0  0  0  0  0  0  0  0
    2.0606    0.1590    0.0000 C   0  0  0  0  0  0  0  0  0  0  0  0
    5.2792    2.6006    0.0000 C   0  0  0  0  0  0  0  0  0  0  0  0
    4.0480   -3.4556    0.0000 C   0  0  0  0  0  0  0  0  0  0  0  0
   -0.4736   -2.6465    0.0000 C   0  0  0  0  0  0  0  0  0  0  0  0
    1.4540   -9.1184    0.0000 C   0  0  0  0  0  0  0  0  0  0  0  0
   -0.8113    0.9337    0.0000 C   0  0  0  0  0  0  0  0  0  0  0  0
    1.3664   -5.7731    0.0000 C   0  0  0  0  0  0  0  0  0  0  0  0
    6.4901    0.7846    0.0000 C   0  0  0  0  0  0  0  0  0  0  0  0
    0.8671    3.7568    0.0000 C   0  0  0  0  0  0  0  0  0  0  0  0
   -0.3699    3.0413    0.0000 C   0  0  0  0  0  0  0  0  0  0  0  0
    4.4156   -5.6072    0.0000 C   0  0  0  0  0  0  0  0  0  0  0  0
    4.3857   -7.0358    0.0000 C   0  0  0  0  0  0  0  0  0  0  0  0
    4.4153    1.4624    0.0000 C   0  0  0  0  0  0  0  0  0  0  0  0
   -1.6361    0.9510    0.0000 C   0  0  0  0  0  0  0  0  0  0  0  0
   -0.8804    1.7558    0.0000 C   0  0  0  0  0  0  0  0  0  0  0  0
   -0.5770   -3.4650    0.0000 C   0  0  0  0  0  0  0  0  0  0  0  0
    1.8515   -9.8414    0.0000 C   0  0  0  0  0  0  0  0  0  0  0  0
    4.1514   -2.6371    0.0000 C   0  0  0  0  0  0  0  0  0  0  0  0
    4.8728   -3.4729    0.0000 C   0  0  0  0  0  0  0  0  0  0  0  0
    0.6292   -9.1012    0.0000 C   0  0  0  0  0  0  0  0  0  0  0  0
   -1.2984   -2.6292    0.0000 C   0  0  0  0  0  0  0  0  0  0  0  0
  2  1  1  0
  3 14  1  0
  4  1  1  0
  5  4  1  0
  6  7  1  0
  7 23  1  0
  8 22  1  0
  9  3  1  0
 10 13  1  0
 11 17  1  0
 12  8  1  0
 13 25  1  0
 14  2  1  0
 15 18  1  0
 16 26  1  0
 17 32  1  0
 18 28  1  0
 19  5  1  0
 20 24  1  0
 21  6  1  0
 22 15  1  0
 23 10  1  0
 24 31  1  0
 25 11  1  0
 26 34  1  0
 27 30  1  0
 28  9  1  0
 29 27  1  0
 30 12  1  0
 31 19  1  0
 32 20  1  0
 33  4  1  0
 34 29  1  0
 35  2  2  0
 36  7  2  0
 37  5  2  0
 38  9  2  0
 39 12  2  0
 40 13  2  0
 41 16  2  0
 42 15  2  0
 43 17  2  0
 44 24  2  0
 22 45  1  0
 21 46  1  0
 25 47  1  0
 28 48  1  0
 49 29  2  0
 14 50  1  0
 23 51  1  0
 52  1  1  0
 53 64  1  0
 54 53  2  3
 55  3  1  0
 56  6  1  0
 57  8  1  0
 58 33  1  0
 59 11  1  0
 33 60  1  0
 61 20  1  0
 30 62  1  0
 31 63  1  0
 64 58  1  0
 65 47  1  0
 66 45  1  0
 67 46  1  0
 68 48  1  0
 34 69  1  0
 70 54  1  0
 71 50  1  0
 72 50  1  0
 73 51  1  0
 74 51  1  0
 58 75  1  0
 76 68  1  0
 77 68  1  0
 78 66  1  0
 79 67  1  0
 80 65  1  0
 81 65  1  0
 82 67  1  0
 83 66  1  0
 16 21  1  0
M  END
>  <Classification>  (680) 
1

>  <pchembl>  (680) 
5.52

>  <InChI_steorem>  (680) 
InChI=1S/C60H107N11O12/c1-24-25-26-38(14)50(73)49-55(78)63-40(16)56(79)66(18)31-46(72)67(19)43(28-33(4)5)54(77)65-47(36(10)11)59(82)69(21)44(29-34(6)7)52(75)61-39(15)51(74)62-41(17)57(80)68(20)45(30-35(8)9)53(76)64-42(27-32(2)3)58(81)70(22)48(37(12)13)60(83)71(49)23/h24-25,32-45,47-50,73H,26-31H2,1-23H3,(H,61,75)(H,62,74)(H,63,78)(H,64,76)(H,65,77)

>  <source>  (680) 
ChEMBL25

>  <source_id>  (680) 
25

>  <optional_reference>  (680) 
10.1021/jm0109863

>  <optional_origin>  (680) 
None

>  <target>  (680) 
MDR1

$$$$

     RDKit          2D

 84 84  0  0  0  0  0  0  0  0999 V2000
    2.4992    2.9824    0.0000 N   0  0  0  0  0  0  0  0  0  0  0  0
    3.0165    1.7519    0.0000 C   0  0  0  0  0  0  0  0  0  0  0  0
    1.8747    2.4433    0.0000 C   0  0  0  0  0  0  0  0  0  0  0  0
    0.5448    1.7173    0.0000 N   0  0  0  0  0  0  0  0  0  0  0  0
    3.4167    0.9426    0.0000 N   0  0  0  0  0  0  0  0  0  0  0  0
    0.9423    0.9944    0.0000 C   0  0  0  0  0  0  0  0  0  0  0  0
    0.9124   -0.4343    0.0000 N   0  0  0  0  0  0  0  0  0  0  0  0
    0.3656   -6.8545    0.0000 N   0  0  0  0  0  0  0  0  0  0  0  0
    0.7630   -7.5774    0.0000 C   0  0  0  0  0  0  0  0  0  0  0  0
    0.9722    2.4230    0.0000 C   0  0  0  0  0  0  0  0  0  0  0  0
    0.5149    0.2887    0.0000 C   0  0  0  0  0  0  0  0  0  0  0  0
    2.0152   -6.8890    0.0000 N   0  0  0  0  0  0  0  0  0  0  0  0
    2.8699   -5.4776    0.0000 N   0  0  0  0  0  0  0  0  0  0  0  0
    0.4851   -1.1399    0.0000 C   0  0  0  0  0  0  0  0  0  0  0  0
    2.8400   -6.9062    0.0000 C   0  0  0  0  0  0  0  0  0  0  0  0
    3.2049    2.5551    0.0000 C   0  0  0  0  0  0  0  0  0  0  0  0
    3.3869   -0.4860    0.0000 C   0  0  0  0  0  0  0  0  0  0  0  0
    0.3954   -5.4258    0.0000 C   0  0  0  0  0  0  0  0  0  0  0  0
    3.2972   -4.7719    0.0000 C   0  0  0  0  0  0  0  0  0  0  0  0
    3.3271   -3.3433    0.0000 N   0  0  0  0  0  0  0  0  0  0  0  0
    2.9894    0.2369    0.0000 C   0  0  0  0  0  0  0  0  0  0  0  0
    0.7929   -6.1488    0.0000 C   0  0  0  0  0  0  0  0  0  0  0  0
    1.5879   -7.5946    0.0000 C   0  0  0  0  0  0  0  0  0  0  0  0
    2.9595   -1.1917    0.0000 N   0  0  0  0  0  0  0  0  0  0  0  0
    3.2674   -6.2005    0.0000 C   0  0  0  0  0  0  0  0  0  0  0  0
    2.9296   -2.6203    0.0000 C   0  0  0  0  0  0  0  0  0  0  0  0
    0.8228   -4.7201    0.0000 N   0  0  0  0  0  0  0  0  0  0  0  0
    0.4552   -2.5686    0.0000 N   0  0  0  0  0  0  0  0  0  0  0  0
    0.8527   -3.2915    0.0000 C   0  0  0  0  0  0  0  0  0  0  0  0
    0.8825   -1.8629    0.0000 C   0  0  0  0  0  0  0  0  0  0  0  0
    3.3570   -1.9146    0.0000 C   0  0  0  0  0  0  0  0  0  0  0  0
    2.8998   -4.0489    0.0000 C   0  0  0  0  0  0  0  0  0  0  0  0
    0.4253   -3.9972    0.0000 C   0  0  0  0  0  0  0  0  0  0  0  0
    2.1969    1.6577    0.0000 O   0  0  0  0  0  0  0  0  0  0  0  0
    1.9186    1.6195    0.0000 O   0  0  0  0  0  0  0  0  0  0  0  0
    1.7671    0.9771    0.0000 O   0  0  0  0  0  0  0  0  0  0  0  0
    0.3357   -8.2831    0.0000 O   0  0  0  0  0  0  0  0  0  0  0  0
   -0.3398   -1.1227    0.0000 O   0  0  0  0  0  0  0  0  0  0  0  0
    0.5591    3.1371    0.0000 C   0  0  0  0  0  0  0  0  0  0  0  0
   -0.3099    0.3059    0.0000 C   0  0  0  0  0  0  0  0  0  0  0  0
    3.2375   -7.6291    0.0000 O   0  0  0  0  0  0  0  0  0  0  0  0
    4.2117   -0.5032    0.0000 O   0  0  0  0  0  0  0  0  0  0  0  0
   -0.4294   -5.4086    0.0000 O   0  0  0  0  0  0  0  0  0  0  0  0
    4.1221   -4.7891    0.0000 O   0  0  0  0  0  0  0  0  0  0  0  0
    2.1048   -2.6031    0.0000 O   0  0  0  0  0  0  0  0  0  0  0  0
   -0.0319   -6.1315    0.0000 C   0  0  0  0  0  0  0  0  0  0  0  0
    3.8142    0.2197    0.0000 C   0  0  0  0  0  0  0  0  0  0  0  0
    4.0922   -6.2178    0.0000 C   0  0  0  0  0  0  0  0  0  0  0  0
    1.6775   -3.3088    0.0000 O   0  0  0  0  0  0  0  0  0  0  0  0
    3.9654    2.8748    0.0000 C   0  0  0  0  0  0  0  0  0  0  0  0
    1.9853   -8.3176    0.0000 C   0  0  0  0  0  0  0  0  0  0  0  0
    2.4301    3.8045    0.0000 C   0  0  0  0  0  0  0  0  0  0  0  0
    5.0365   -0.5205    0.0000 C   0  0  0  0  0  0  0  0  0  0  0  0
    5.4639    0.1852    0.0000 C   0  0  0  0  0  0  0  0  0  0  0  0
   -0.2800    1.7346    0.0000 C   0  0  0  0  0  0  0  0  0  0  0  0
    4.1042    1.3987    0.0000 C   0  0  0  0  0  0  0  0  0  0  0  0
    1.7372   -0.4515    0.0000 C   0  0  0  0  0  0  0  0  0  0  0  0
   -0.3119   -7.3253    0.0000 C   0  0  0  0  0  0  0  0  0  0  0  0
    2.0451   -5.4603    0.0000 C   0  0  0  0  0  0  0  0  0  0  0  0
    4.1519   -3.3605    0.0000 C   0  0  0  0  0  0  0  0  0  0  0  0
    4.1818   -1.9319    0.0000 C   0  0  0  0  0  0  0  0  0  0  0  0
    1.7074   -1.8801    0.0000 C   0  0  0  0  0  0  0  0  0  0  0  0
    4.2416    0.9254    0.0000 C   0  0  0  0  0  0  0  0  0  0  0  0
   -0.2659    3.1365    0.0000 C   0  0  0  0  0  0  0  0  0  0  0  0
   -0.7074    1.0289    0.0000 C   0  0  0  0  0  0  0  0  0  0  0  0
    4.4897   -6.9407    0.0000 C   0  0  0  0  0  0  0  0  0  0  0  0
   -0.4593   -6.8372    0.0000 C   0  0  0  0  0  0  0  0  0  0  0  0
   -0.3995   -3.9800    0.0000 C   0  0  0  0  0  0  0  0  0  0  0  0
    5.0664    0.9081    0.0000 C   0  0  0  0  0  0  0  0  0  0  0  0
    5.4340   -1.2434    0.0000 C   0  0  0  0  0  0  0  0  0  0  0  0
    1.5580   -9.0233    0.0000 C   0  0  0  0  0  0  0  0  0  0  0  0
    2.8101   -8.3348    0.0000 C   0  0  0  0  0  0  0  0  0  0  0  0
    4.0688    3.6933    0.0000 C   0  0  0  0  0  0  0  0  0  0  0  0
    4.6226    2.3760    0.0000 C   0  0  0  0  0  0  0  0  0  0  0  0
   -0.6778    2.4217    0.0000 C   0  0  0  0  0  0  0  0  0  0  0  0
   -0.5626   -7.6557    0.0000 C   0  0  0  0  0  0  0  0  0  0  0  0
   -1.2841   -6.8200    0.0000 C   0  0  0  0  0  0  0  0  0  0  0  0
    5.3145   -6.9579    0.0000 C   0  0  0  0  0  0  0  0  0  0  0  0
   -1.5322    1.0461    0.0000 C   0  0  0  0  0  0  0  0  0  0  0  0
   -0.7764    1.8510    0.0000 C   0  0  0  0  0  0  0  0  0  0  0  0
    4.0623   -7.6464    0.0000 C   0  0  0  0  0  0  0  0  0  0  0  0
   -0.6790    3.8506    0.0000 C   0  0  0  0  0  0  0  0  0  0  0  0
    4.3449    1.7439    0.0000 C   0  0  0  0  0  0  0  0  0  0  0  0
    4.5793   -2.6548    0.0000 C   0  0  0  0  0  0  0  0  0  0  0  0
  2 16  1  0
  3  1  1  0
  4 10  1  0
  5  2  1  0
  6  4  1  0
  7 11  1  0
  8 22  1  0
  9  8  1  0
 10  3  1  0
 11  6  1  0
 12 15  1  0
 13 19  1  0
 14  7  1  0
 15 25  1  0
 16  1  1  0
 17 21  1  0
 18 27  1  0
 19 32  1  0
 20 26  1  0
 21  5  1  0
 22 18  1  0
 23 12  1  0
 24 17  1  0
 25 13  1  0
 26 31  1  0
 27 33  1  0
 28 30  1  0
 29 28  1  0
 30 14  1  0
 31 24  1  0
 32 20  1  0
 33 29  1  0
 34  2  2  0
 35  3  2  0
 36  6  2  0
 37  9  2  0
 38 14  2  0
 10 39  1  0
 11 40  1  0
 41 15  2  0
 42 17  2  0
 43 18  2  0
 44 19  2  0
 45 26  2  0
 22 46  1  0
 21 47  1  0
 25 48  1  0
 49 29  2  0
 16 50  1  0
 23 51  1  0
 52  1  1  0
 53 54  2  3
 54 69  1  0
 55  4  1  0
 56  5  1  0
 57  7  1  0
 58  8  1  0
 59 13  1  0
 60 20  1  0
 31 61  1  0
 30 62  1  0
 63 47  1  0
 64 39  1  0
 65 40  1  0
 66 48  1  0
 67 46  1  0
 33 68  1  0
 69 63  1  0
 70 53  1  0
 71 51  1  0
 72 51  1  0
 73 50  1  0
 74 50  1  0
 75 64  1  0
 76 67  1  0
 77 67  1  0
 78 66  1  0
 79 65  1  0
 80 65  1  0
 81 66  1  0
 82 64  1  0
 63 83  1  0
 84 61  1  0
  9 23  1  0
M  END
>  <Classification>  (681) 
1

>  <pchembl>  (681) 
5.66

>  <InChI_steorem>  (681) 
InChI=1S/C62H111N11O11/c1-25-27-28-41(15)33-47-55(77)65-44(26-2)58(80)67(18)34-50(74)68(19)45(29-35(3)4)56(78)66-51(39(11)12)61(83)69(20)46(30-36(5)6)54(76)63-42(16)53(75)64-43(17)57(79)71(22)48(31-37(7)8)59(81)72(23)49(32-38(9)10)60(82)73(24)52(40(13)14)62(84)70(47)21/h25,27,35-49,51-52H,26,28-34H2,1-24H3,(H,63,76)(H,64,75)(H,65,77)(H,66,78)

>  <source>  (681) 
ChEMBL25

>  <source_id>  (681) 
25

>  <optional_reference>  (681) 
10.1021/jm0109863

>  <optional_origin>  (681) 
None

>  <target>  (681) 
MDR1

$$$$

     RDKit          2D

 83 83  0  0  0  0  0  0  0  0999 V2000
    2.6168    2.7610    0.0000 N   0  0  0  0  0  0  0  0  0  0  0  0
    1.9923    2.2219    0.0000 C   0  0  0  0  0  0  0  0  0  0  0  0
    3.0771   -1.4131    0.0000 N   0  0  0  0  0  0  0  0  0  0  0  0
    3.4745   -2.1360    0.0000 C   0  0  0  0  0  0  0  0  0  0  0  0
    3.3225    2.3337    0.0000 C   0  0  0  0  0  0  0  0  0  0  0  0
    3.1069    0.0155    0.0000 C   0  0  0  0  0  0  0  0  0  0  0  0
    3.4447   -3.5647    0.0000 N   0  0  0  0  0  0  0  0  0  0  0  0
    1.0897    2.2016    0.0000 C   0  0  0  0  0  0  0  0  0  0  0  0
    3.5343    0.7212    0.0000 N   0  0  0  0  0  0  0  0  0  0  0  0
    0.4831   -7.0759    0.0000 N   0  0  0  0  0  0  0  0  0  0  0  0
    0.9105   -6.3702    0.0000 C   0  0  0  0  0  0  0  0  0  0  0  0
    3.5044   -0.7074    0.0000 C   0  0  0  0  0  0  0  0  0  0  0  0
    3.0472   -2.8417    0.0000 C   0  0  0  0  0  0  0  0  0  0  0  0
    0.9403   -4.9415    0.0000 N   0  0  0  0  0  0  0  0  0  0  0  0
    0.5727   -2.7900    0.0000 N   0  0  0  0  0  0  0  0  0  0  0  0
    3.0173   -4.2703    0.0000 C   0  0  0  0  0  0  0  0  0  0  0  0
    0.5429   -4.2186    0.0000 C   0  0  0  0  0  0  0  0  0  0  0  0
    1.7054   -7.8160    0.0000 C   0  0  0  0  0  0  0  0  0  0  0  0
    1.0001   -2.0843    0.0000 C   0  0  0  0  0  0  0  0  0  0  0  0
    0.6624    1.4959    0.0000 N   0  0  0  0  0  0  0  0  0  0  0  0
    1.0300   -0.6557    0.0000 N   0  0  0  0  0  0  0  0  0  0  0  0
    0.8806   -7.7988    0.0000 C   0  0  0  0  0  0  0  0  0  0  0  0
    0.5130   -5.6472    0.0000 C   0  0  0  0  0  0  0  0  0  0  0  0
    3.1341    1.5305    0.0000 C   0  0  0  0  0  0  0  0  0  0  0  0
    0.9702   -3.5129    0.0000 C   0  0  0  0  0  0  0  0  0  0  0  0
    0.6325    0.0673    0.0000 C   0  0  0  0  0  0  0  0  0  0  0  0
    2.1328   -7.1104    0.0000 N   0  0  0  0  0  0  0  0  0  0  0  0
    2.9874   -5.6990    0.0000 N   0  0  0  0  0  0  0  0  0  0  0  0
    3.3849   -6.4219    0.0000 C   0  0  0  0  0  0  0  0  0  0  0  0
    3.4148   -4.9933    0.0000 C   0  0  0  0  0  0  0  0  0  0  0  0
    1.0598    0.7730    0.0000 C   0  0  0  0  0  0  0  0  0  0  0  0
    0.6026   -1.3613    0.0000 C   0  0  0  0  0  0  0  0  0  0  0  0
    1.6960    2.9919    0.0000 C   0  0  0  0  0  0  0  0  0  0  0  0
    2.9576   -7.1276    0.0000 C   0  0  0  0  0  0  0  0  0  0  0  0
    2.2821    0.0328    0.0000 O   0  0  0  0  0  0  0  0  0  0  0  0
    4.0830    2.6534    0.0000 O   0  0  0  0  0  0  0  0  0  0  0  0
    4.2994   -2.1533    0.0000 O   0  0  0  0  0  0  0  0  0  0  0  0
    1.7353   -6.3874    0.0000 O   0  0  0  0  0  0  0  0  0  0  0  0
    0.6766    2.9157    0.0000 O   0  0  0  0  0  0  0  0  0  0  0  0
    2.1925   -4.2531    0.0000 O   0  0  0  0  0  0  0  0  0  0  0  0
    4.3292   -0.7246    0.0000 C   0  0  0  0  0  0  0  0  0  0  0  0
    3.8720   -2.8590    0.0000 C   0  0  0  0  0  0  0  0  0  0  0  0
   -0.2820   -4.2014    0.0000 O   0  0  0  0  0  0  0  0  0  0  0  0
    2.1029   -8.5390    0.0000 O   0  0  0  0  0  0  0  0  0  0  0  0
    1.8249   -2.1015    0.0000 O   0  0  0  0  0  0  0  0  0  0  0  0
   -0.1923    0.0845    0.0000 O   0  0  0  0  0  0  0  0  0  0  0  0
    0.4532   -8.5045    0.0000 C   0  0  0  0  0  0  0  0  0  0  0  0
    0.1454   -3.4957    0.0000 C   0  0  0  0  0  0  0  0  0  0  0  0
    4.2097   -6.4392    0.0000 O   0  0  0  0  0  0  0  0  0  0  0  0
   -0.3118   -5.6300    0.0000 C   0  0  0  0  0  0  0  0  0  0  0  0
    2.5477    3.5831    0.0000 C   0  0  0  0  0  0  0  0  0  0  0  0
    2.4371    5.0450    0.0000 C   0  0  0  0  0  0  0  0  0  0  0  0
    3.2520    4.9166    0.0000 C   0  0  0  0  0  0  0  0  0  0  0  0
    2.2523   -1.3958    0.0000 C   0  0  0  0  0  0  0  0  0  0  0  0
    4.1018   -4.0634    0.0000 C   0  0  0  0  0  0  0  0  0  0  0  0
    4.3585    0.6861    0.0000 C   0  0  0  0  0  0  0  0  0  0  0  0
   -0.3417   -7.0586    0.0000 C   0  0  0  0  0  0  0  0  0  0  0  0
    2.2147    3.6335    0.0000 C   0  0  0  0  0  0  0  0  0  0  0  0
   -0.0844   -2.2912    0.0000 C   0  0  0  0  0  0  0  0  0  0  0  0
    0.8811    3.1203    0.0000 O   0  0  0  0  0  0  0  0  0  0  0  0
    1.8548   -0.6729    0.0000 C   0  0  0  0  0  0  0  0  0  0  0  0
    2.3145    1.4363    0.0000 C   0  0  0  0  0  0  0  0  0  0  0  0
    0.2350    0.7902    0.0000 C   0  0  0  0  0  0  0  0  0  0  0  0
    4.2396   -5.0105    0.0000 C   0  0  0  0  0  0  0  0  0  0  0  0
    1.9184    4.4034    0.0000 C   0  0  0  0  0  0  0  0  0  0  0  0
    4.7566   -0.0190    0.0000 C   0  0  0  0  0  0  0  0  0  0  0  0
    4.2695   -3.5819    0.0000 C   0  0  0  0  0  0  0  0  0  0  0  0
   -0.2521   -2.7727    0.0000 C   0  0  0  0  0  0  0  0  0  0  0  0
    0.8507   -9.2274    0.0000 C   0  0  0  0  0  0  0  0  0  0  0  0
    3.3550   -7.8505    0.0000 C   0  0  0  0  0  0  0  0  0  0  0  0
    3.7707    5.5582    0.0000 C   0  0  0  0  0  0  0  0  0  0  0  0
   -0.7093   -4.9070    0.0000 C   0  0  0  0  0  0  0  0  0  0  0  0
   -0.7392   -6.3357    0.0000 C   0  0  0  0  0  0  0  0  0  0  0  0
    2.9494    4.0086    0.0000 C   0  0  0  0  0  0  0  0  0  0  0  0
   -1.0769   -2.7555    0.0000 C   0  0  0  0  0  0  0  0  0  0  0  0
    4.8600    0.7995    0.0000 C   0  0  0  0  0  0  0  0  0  0  0  0
    5.5814   -0.0362    0.0000 C   0  0  0  0  0  0  0  0  0  0  0  0
    1.6755   -9.2447    0.0000 C   0  0  0  0  0  0  0  0  0  0  0  0
    0.4234   -9.9331    0.0000 C   0  0  0  0  0  0  0  0  0  0  0  0
   -0.3211   -1.9506    0.0000 C   0  0  0  0  0  0  0  0  0  0  0  0
    5.0943   -3.5991    0.0000 C   0  0  0  0  0  0  0  0  0  0  0  0
    4.3386   -4.4040    0.0000 C   0  0  0  0  0  0  0  0  0  0  0  0
   -0.1625    1.5132    0.0000 C   0  0  0  0  0  0  0  0  0  0  0  0
  2  1  1  0
  3 12  1  0
  4  3  1  0
  5  1  1  0
  6  9  1  0
  7 13  1  0
  8  2  1  0
  9 24  1  0
 10 11  1  0
 11 23  1  0
 12  6  1  0
 13  4  1  0
 14 17  1  0
 15 19  1  0
 16  7  1  0
 17 25  1  0
 18 27  1  0
 19 32  1  0
 20  8  1  0
 21 26  1  0
 22 10  1  0
 23 14  1  0
 24  5  1  0
 25 15  1  0
 26 31  1  0
 27 34  1  0
 30 28  1  0
 29 28  1  0
 30 16  1  0
 31 20  1  0
 32 21  1  0
 33  2  1  0
 34 29  1  0
 35  6  2  0
 36  5  2  0
 37  4  2  0
 38 11  2  0
 39  8  2  0
 40 16  2  0
 12 41  1  0
 13 42  1  0
 43 17  2  0
 44 18  2  0
 45 19  2  0
 46 26  2  0
 22 47  1  0
 25 48  1  0
 49 29  2  0
 23 50  1  0
 51  1  1  0
 52 65  1  0
 53 52  2  3
 54  3  1  0
 55  7  1  0
 56  9  1  0
 57 10  1  0
 58 33  1  0
 59 15  1  0
 33 60  1  0
 61 21  1  0
 24 62  1  0
 31 63  1  0
 30 64  1  0
 65 58  1  0
 66 41  1  0
 67 42  1  0
 68 48  1  0
 69 47  1  0
 34 70  1  0
 71 53  1  0
 72 50  1  0
 73 50  1  0
 58 74  1  0
 75 68  1  0
 76 66  1  0
 77 66  1  0
 78 69  1  0
 79 69  1  0
 80 68  1  0
 81 67  1  0
 82 67  1  0
 83 63  1  0
 18 22  1  0
M  END
>  <Classification>  (682) 
0

>  <pchembl>  (682) 
4.79

>  <InChI_steorem>  (682) 
InChI=1S/C60H107N11O12/c1-24-26-27-38(13)50(73)49-54(77)63-42(25-2)57(80)65(17)32-47(72)67(19)43(28-33(3)4)53(76)64-48(37(11)12)60(83)68(20)44(29-34(5)6)52(75)61-39(14)51(74)62-40(15)55(78)69(21)46(31-36(9)10)59(82)70(22)45(30-35(7)8)58(81)66(18)41(16)56(79)71(49)23/h24,26,33-46,48-50,73H,25,27-32H2,1-23H3,(H,61,75)(H,62,74)(H,63,77)(H,64,76)

>  <source>  (682) 
ChEMBL25

>  <source_id>  (682) 
25

>  <optional_reference>  (682) 
10.1021/jm0109863

>  <optional_origin>  (682) 
None

>  <target>  (682) 
MDR1

$$$$

     RDKit          2D

 84 85  0  0  0  0  0  0  0  0999 V2000
    2.1539   -6.8607    0.0000 N   0  0  0  0  0  0  0  0  0  0  0  0
    2.7060   -6.2476    0.0000 C   0  0  0  0  0  0  0  0  0  0  0  0
    3.9344   -5.3606    0.0000 N   0  0  0  0  0  0  0  0  0  0  0  0
    3.4495   -4.6932    0.0000 C   0  0  0  0  0  0  0  0  0  0  0  0
    3.3001   -3.2721    0.0000 N   0  0  0  0  0  0  0  0  0  0  0  0
    3.6357   -2.5184    0.0000 C   0  0  0  0  0  0  0  0  0  0  0  0
    3.4863   -1.0973    0.0000 N   0  0  0  0  0  0  0  0  0  0  0  0
    1.3972    2.9936    0.0000 N   0  0  0  0  0  0  0  0  0  0  0  0
    0.5767    2.9073    0.0000 C   0  0  0  0  0  0  0  0  0  0  0  0
    1.4865   -5.7046    0.0000 C   0  0  0  0  0  0  0  0  0  0  0  0
    3.7850   -3.9395    0.0000 C   0  0  0  0  0  0  0  0  0  0  0  0
    3.1507   -1.8510    0.0000 C   0  0  0  0  0  0  0  0  0  0  0  0
    0.7261    1.4862    0.0000 N   0  0  0  0  0  0  0  0  0  0  0  0
    0.5399   -0.6886    0.0000 N   0  0  0  0  0  0  0  0  0  0  0  0
    3.0014   -0.4298    0.0000 C   0  0  0  0  0  0  0  0  0  0  0  0
    1.4003   -6.5251    0.0000 C   0  0  0  0  0  0  0  0  0  0  0  0
    0.3905    0.7325    0.0000 C   0  0  0  0  0  0  0  0  0  0  0  0
    3.5989   -6.1143    0.0000 C   0  0  0  0  0  0  0  0  0  0  0  0
    2.5532    3.8335    0.0000 C   0  0  0  0  0  0  0  0  0  0  0  0
    1.0249   -1.3560    0.0000 C   0  0  0  0  0  0  0  0  0  0  0  0
    0.9881   -4.9519    0.0000 N   0  0  0  0  0  0  0  0  0  0  0  0
    1.1742   -2.7771    0.0000 N   0  0  0  0  0  0  0  0  0  0  0  0
    1.7328    3.7472    0.0000 C   0  0  0  0  0  0  0  0  0  0  0  0
    0.2412    2.1536    0.0000 C   0  0  0  0  0  0  0  0  0  0  0  0
    0.8755    0.0651    0.0000 C   0  0  0  0  0  0  0  0  0  0  0  0
    0.8387   -3.5308    0.0000 C   0  0  0  0  0  0  0  0  0  0  0  0
    3.0382    3.1661    0.0000 N   0  0  0  0  0  0  0  0  0  0  0  0
    2.8520    0.9913    0.0000 N   0  0  0  0  0  0  0  0  0  0  0  0
    3.1875    1.7449    0.0000 C   0  0  0  0  0  0  0  0  0  0  0  0
    3.3369    0.3238    0.0000 C   0  0  0  0  0  0  0  0  0  0  0  0
    1.3236   -4.1982    0.0000 C   0  0  0  0  0  0  0  0  0  0  0  0
    0.6893   -2.1097    0.0000 C   0  0  0  0  0  0  0  0  0  0  0  0
    2.7026    2.4124    0.0000 C   0  0  0  0  0  0  0  0  0  0  0  0
    0.6858   -6.9376    0.0000 C   0  0  0  0  0  0  0  0  0  0  0  0
    2.3155   -5.5208    0.0000 O   0  0  0  0  0  0  0  0  0  0  0  0
    2.6290   -4.7794    0.0000 O   0  0  0  0  0  0  0  0  0  0  0  0
    4.4562   -2.4322    0.0000 O   0  0  0  0  0  0  0  0  0  0  0  0
    0.0918    3.5748    0.0000 O   0  0  0  0  0  0  0  0  0  0  0  0
    2.1880   -5.2704    0.0000 O   0  0  0  0  0  0  0  0  0  0  0  0
    2.1809   -0.5161    0.0000 O   0  0  0  0  0  0  0  0  0  0  0  0
    4.6055   -3.8533    0.0000 C   0  0  0  0  0  0  0  0  0  0  0  0
    3.9712   -1.7647    0.0000 C   0  0  0  0  0  0  0  0  0  0  0  0
   -0.4299    0.6463    0.0000 O   0  0  0  0  0  0  0  0  0  0  0  0
    2.8888    4.5872    0.0000 O   0  0  0  0  0  0  0  0  0  0  0  0
    1.8453   -1.2698    0.0000 O   0  0  0  0  0  0  0  0  0  0  0  0
    0.0182   -3.6170    0.0000 O   0  0  0  0  0  0  0  0  0  0  0  0
    1.2478    4.4147    0.0000 C   0  0  0  0  0  0  0  0  0  0  0  0
    0.0550   -0.0211    0.0000 C   0  0  0  0  0  0  0  0  0  0  0  0
    4.0080    1.8312    0.0000 O   0  0  0  0  0  0  0  0  0  0  0  0
   -0.0287   -6.5251    0.0000 C   0  0  0  0  0  0  0  0  0  0  0  0
    4.0982   -6.7710    0.0000 C   0  0  0  0  0  0  0  0  0  0  0  0
   -0.5793    2.0674    0.0000 C   0  0  0  0  0  0  0  0  0  0  0  0
    2.3255   -7.6676    0.0000 C   0  0  0  0  0  0  0  0  0  0  0  0
    4.7549   -5.2744    0.0000 C   0  0  0  0  0  0  0  0  0  0  0  0
    2.4796   -3.3583    0.0000 C   0  0  0  0  0  0  0  0  0  0  0  0
    4.0994   -0.5452    0.0000 C   0  0  0  0  0  0  0  0  0  0  0  0
    1.8821    2.3261    0.0000 C   0  0  0  0  0  0  0  0  0  0  0  0
   -0.0732   -1.2406    0.0000 C   0  0  0  0  0  0  0  0  0  0  0  0
    1.9947   -2.6909    0.0000 C   0  0  0  0  0  0  0  0  0  0  0  0
    0.5031   -4.2845    0.0000 C   0  0  0  0  0  0  0  0  0  0  0  0
    4.1574    0.4101    0.0000 C   0  0  0  0  0  0  0  0  0  0  0  0
    0.6858   -7.7626    0.0000 C   0  0  0  0  0  0  0  0  0  0  0  0
    5.0905   -4.5207    0.0000 C   0  0  0  0  0  0  0  0  0  0  0  0
    4.3068   -1.0110    0.0000 C   0  0  0  0  0  0  0  0  0  0  0  0
   -0.2806   -0.7748    0.0000 C   0  0  0  0  0  0  0  0  0  0  0  0
    1.5834    5.1684    0.0000 C   0  0  0  0  0  0  0  0  0  0  0  0
    2.0895    1.8603    0.0000 C   0  0  0  0  0  0  0  0  0  0  0  0
   -0.0287   -5.7001    0.0000 C   0  0  0  0  0  0  0  0  0  0  0  0
   -0.7431   -6.9376    0.0000 C   0  0  0  0  0  0  0  0  0  0  0  0
    3.7791   -7.5318    0.0000 C   0  0  0  0  0  0  0  0  0  0  0  0
   -0.9149    1.3137    0.0000 C   0  0  0  0  0  0  0  0  0  0  0  0
   -1.0642    2.7348    0.0000 C   0  0  0  0  0  0  0  0  0  0  0  0
    4.9166   -6.6670    0.0000 C   0  0  0  0  0  0  0  0  0  0  0  0
    1.0984    5.8358    0.0000 C   0  0  0  0  0  0  0  0  0  0  0  0
   -0.2805   -1.5998    0.0000 C   0  0  0  0  0  0  0  0  0  0  0  0
    4.3068   -0.1860    0.0000 C   0  0  0  0  0  0  0  0  0  0  0  0
    5.1273   -0.9248    0.0000 C   0  0  0  0  0  0  0  0  0  0  0  0
   -1.1010   -0.8611    0.0000 C   0  0  0  0  0  0  0  0  0  0  0  0
    5.9109   -4.4345    0.0000 C   0  0  0  0  0  0  0  0  0  0  0  0
    5.2620   -5.3277    0.0000 C   0  0  0  0  0  0  0  0  0  0  0  0
    2.4039    5.2546    0.0000 C   0  0  0  0  0  0  0  0  0  0  0  0
    0.1676   -5.0382    0.0000 C   0  0  0  0  0  0  0  0  0  0  0  0
   -0.0287   -8.1751    0.0000 C   0  0  0  0  0  0  0  0  0  0  0  0
   -0.7431   -7.7626    0.0000 C   0  0  0  0  0  0  0  0  0  0  0  0
  2  1  1  0
  3 18  1  0
  4  3  1  0
  5 11  1  0
  6  5  1  0
  7 12  1  0
  8  9  1  0
  9 24  1  0
 10 16  1  0
 11  4  1  0
 12  6  1  0
 13 17  1  0
 14 20  1  0
 15  7  1  0
 16  1  1  0
 17 25  1  0
 18  2  1  0
 19 27  1  0
 20 32  1  0
 21 10  1  0
 22 26  1  0
 23  8  1  0
 24 13  1  0
 25 14  1  0
 26 31  1  0
 27 33  1  0
 28 30  1  0
 29 28  1  0
 30 15  1  0
 31 21  1  0
 32 22  1  0
 33 29  1  0
 16 34  1  0
 35  2  2  0
 36  4  2  0
 37  6  2  0
 38  9  2  0
 39 10  2  0
 40 15  2  0
 11 41  1  0
 12 42  1  0
 43 17  2  0
 44 19  2  0
 45 20  2  0
 46 26  2  0
 23 47  1  0
 25 48  1  0
 49 29  2  0
 50 34  1  0
 18 51  1  0
 24 52  1  0
 53  1  1  0
 54  3  1  0
 55  5  1  0
 56  7  1  0
 57  8  1  0
 58 14  1  0
 59 22  1  0
 31 60  1  0
 30 61  1  0
 62 34  1  0
 63 41  1  0
 64 42  1  0
 65 48  1  0
 66 47  1  0
 33 67  1  0
 68 50  1  0
 69 50  1  0
 70 51  1  0
 71 52  1  0
 72 52  1  0
 73 51  1  0
 74 66  1  0
 75 65  1  0
 76 64  1  0
 77 64  1  0
 78 65  1  0
 79 63  1  0
 80 63  1  0
 81 66  1  0
 82 60  1  0
 83 62  1  0
 84 83  1  0
 84 69  1  0
 19 23  1  0
M  END
>  <Classification>  (683) 
0

>  <pchembl>  (683) 
4.88

>  <InChI_steorem>  (683) 
InChI=1S/C62H111N11O11/c1-24-44-58(80)67(17)33-49(74)68(18)45(29-34(2)3)55(77)66-50(38(10)11)61(83)69(19)46(30-35(4)5)54(76)63-41(15)53(75)64-42(16)57(79)70(20)47(31-36(6)7)59(81)71(21)48(32-37(8)9)60(82)72(22)51(39(12)13)62(84)73(23)52(56(78)65-44)43-28-26-25-27-40(43)14/h34-48,50-52H,24-33H2,1-23H3,(H,63,76)(H,64,75)(H,65,78)(H,66,77)

>  <source>  (683) 
ChEMBL25

>  <source_id>  (683) 
25

>  <optional_reference>  (683) 
10.1021/jm0109863

>  <optional_origin>  (683) 
None

>  <target>  (683) 
MDR1

$$$$

     RDKit          2D

 84 85  0  0  0  0  0  0  0  0999 V2000
    4.2738   -6.4236    0.0000 N   0  0  0  0  0  0  0  0  0  0  0  0
    3.1938   -5.6390    0.0000 C   0  0  0  0  0  0  0  0  0  0  0  0
    4.5287   -5.6390    0.0000 C   0  0  0  0  0  0  0  0  0  0  0  0
    5.2902   -4.3291    0.0000 N   0  0  0  0  0  0  0  0  0  0  0  0
    2.4323   -5.1541    0.0000 N   0  0  0  0  0  0  0  0  0  0  0  0
    4.5757   -3.9166    0.0000 C   0  0  0  0  0  0  0  0  0  0  0  0
    3.8613   -2.6791    0.0000 N   0  0  0  0  0  0  0  0  0  0  0  0
    1.0034    3.0959    0.0000 N   0  0  0  0  0  0  0  0  0  0  0  0
    0.2889    3.5084    0.0000 C   0  0  0  0  0  0  0  0  0  0  0  0
    5.2902   -5.1541    0.0000 C   0  0  0  0  0  0  0  0  0  0  0  0
    4.5757   -3.0916    0.0000 C   0  0  0  0  0  0  0  0  0  0  0  0
   -0.4256    2.2709    0.0000 N   0  0  0  0  0  0  0  0  0  0  0  0
   -0.4256    0.6209    0.0000 N   0  0  0  0  0  0  0  0  0  0  0  0
    3.8613   -1.8541    0.0000 C   0  0  0  0  0  0  0  0  0  0  0  0
   -1.1400    1.8584    0.0000 C   0  0  0  0  0  0  0  0  0  0  0  0
    3.4488   -6.4236    0.0000 C   0  0  0  0  0  0  0  0  0  0  0  0
    1.7178   -3.9166    0.0000 C   0  0  0  0  0  0  0  0  0  0  0  0
    1.7178    1.8584    0.0000 C   0  0  0  0  0  0  0  0  0  0  0  0
   -0.4256   -0.2041    0.0000 C   0  0  0  0  0  0  0  0  0  0  0  0
    0.2889   -1.4416    0.0000 N   0  0  0  0  0  0  0  0  0  0  0  0
    2.4323   -4.3291    0.0000 C   0  0  0  0  0  0  0  0  0  0  0  0
    1.0034    2.2709    0.0000 C   0  0  0  0  0  0  0  0  0  0  0  0
   -0.4256    3.0959    0.0000 C   0  0  0  0  0  0  0  0  0  0  0  0
    1.7178   -3.0916    0.0000 N   0  0  0  0  0  0  0  0  0  0  0  0
   -1.1400    1.0334    0.0000 C   0  0  0  0  0  0  0  0  0  0  0  0
    1.0034   -1.8541    0.0000 C   0  0  0  0  0  0  0  0  0  0  0  0
    1.7178    1.0334    0.0000 N   0  0  0  0  0  0  0  0  0  0  0  0
    3.1468   -0.6166    0.0000 N   0  0  0  0  0  0  0  0  0  0  0  0
    2.4323   -0.2041    0.0000 C   0  0  0  0  0  0  0  0  0  0  0  0
    3.1468   -1.4416    0.0000 C   0  0  0  0  0  0  0  0  0  0  0  0
    1.0034   -2.6791    0.0000 C   0  0  0  0  0  0  0  0  0  0  0  0
    0.2889   -0.6166    0.0000 C   0  0  0  0  0  0  0  0  0  0  0  0
    2.4323    0.6209    0.0000 C   0  0  0  0  0  0  0  0  0  0  0  0
    3.8461   -5.1339    0.0000 O   0  0  0  0  0  0  0  0  0  0  0  0
    4.0644   -4.9570    0.0000 O   0  0  0  0  0  0  0  0  0  0  0  0
    3.8613   -4.3291    0.0000 O   0  0  0  0  0  0  0  0  0  0  0  0
    0.2889    4.3334    0.0000 O   0  0  0  0  0  0  0  0  0  0  0  0
    4.5757   -1.4416    0.0000 O   0  0  0  0  0  0  0  0  0  0  0  0
    6.0135   -5.5510    0.0000 C   0  0  0  0  0  0  0  0  0  0  0  0
    5.2902   -2.6791    0.0000 C   0  0  0  0  0  0  0  0  0  0  0  0
   -1.8545    2.2709    0.0000 O   0  0  0  0  0  0  0  0  0  0  0  0
    1.0034   -4.3291    0.0000 O   0  0  0  0  0  0  0  0  0  0  0  0
    2.4323    2.2709    0.0000 O   0  0  0  0  0  0  0  0  0  0  0  0
   -1.1400   -0.6166    0.0000 O   0  0  0  0  0  0  0  0  0  0  0  0
    1.7178   -4.7416    0.0000 C   0  0  0  0  0  0  0  0  0  0  0  0
    1.7178   -1.4416    0.0000 O   0  0  0  0  0  0  0  0  0  0  0  0
    1.7178    2.6834    0.0000 C   0  0  0  0  0  0  0  0  0  0  0  0
   -1.8545    0.6209    0.0000 C   0  0  0  0  0  0  0  0  0  0  0  0
    1.7178   -0.6166    0.0000 O   0  0  0  0  0  0  0  0  0  0  0  0
    2.9638   -7.0911    0.0000 C   0  0  0  0  0  0  0  0  0  0  0  0
   -1.1400    3.5084    0.0000 C   0  0  0  0  0  0  0  0  0  0  0  0
    4.7587   -7.0911    0.0000 C   0  0  0  0  0  0  0  0  0  0  0  0
    6.0953   -3.5785    0.0000 C   0  0  0  0  0  0  0  0  0  0  0  0
    2.0805   -5.9003    0.0000 C   0  0  0  0  0  0  0  0  0  0  0  0
    3.1468   -3.0916    0.0000 C   0  0  0  0  0  0  0  0  0  0  0  0
    1.3389    3.8496    0.0000 C   0  0  0  0  0  0  0  0  0  0  0  0
    0.2889    1.0334    0.0000 C   0  0  0  0  0  0  0  0  0  0  0  0
   -0.4256   -1.8541    0.0000 C   0  0  0  0  0  0  0  0  0  0  0  0
    1.7178   -5.5666    0.0000 C   0  0  0  0  0  0  0  0  0  0  0  0
    0.2889   -3.0916    0.0000 C   0  0  0  0  0  0  0  0  0  0  0  0
    2.4323   -1.8541    0.0000 C   0  0  0  0  0  0  0  0  0  0  0  0
    6.0047   -3.0916    0.0000 C   0  0  0  0  0  0  0  0  0  0  0  0
    6.7188   -5.1230    0.0000 C   0  0  0  0  0  0  0  0  0  0  0  0
    1.7178    3.5084    0.0000 C   0  0  0  0  0  0  0  0  0  0  0  0
   -2.5690    1.0334    0.0000 C   0  0  0  0  0  0  0  0  0  0  0  0
    3.1468    1.0334    0.0000 C   0  0  0  0  0  0  0  0  0  0  0  0
   -1.1400    4.3334    0.0000 C   0  0  0  0  0  0  0  0  0  0  0  0
    3.2994   -7.8447    0.0000 C   0  0  0  0  0  0  0  0  0  0  0  0
    2.1434   -7.0048    0.0000 C   0  0  0  0  0  0  0  0  0  0  0  0
   -1.8545    3.0959    0.0000 C   0  0  0  0  0  0  0  0  0  0  0  0
    1.0034   -5.9791    0.0000 C   0  0  0  0  0  0  0  0  0  0  0  0
    2.4323   -5.9791    0.0000 C   0  0  0  0  0  0  0  0  0  0  0  0
   -3.2834    0.6209    0.0000 C   0  0  0  0  0  0  0  0  0  0  0  0
    6.7191   -2.6791    0.0000 C   0  0  0  0  0  0  0  0  0  0  0  0
    6.0047   -3.9166    0.0000 C   0  0  0  0  0  0  0  0  0  0  0  0
   -2.5690    1.8584    0.0000 C   0  0  0  0  0  0  0  0  0  0  0  0
    6.7009   -4.2982    0.0000 C   0  0  0  0  0  0  0  0  0  0  0  0
    7.4421   -5.5199    0.0000 C   0  0  0  0  0  0  0  0  0  0  0  0
    1.0034    3.9209    0.0000 C   0  0  0  0  0  0  0  0  0  0  0  0
    2.4323    3.9209    0.0000 C   0  0  0  0  0  0  0  0  0  0  0  0
   -0.4256   -2.6791    0.0000 C   0  0  0  0  0  0  0  0  0  0  0  0
    2.4323   -6.8041    0.0000 C   0  0  0  0  0  0  0  0  0  0  0  0
    1.0034   -6.8041    0.0000 C   0  0  0  0  0  0  0  0  0  0  0  0
    1.7178   -7.2166    0.0000 C   0  0  0  0  0  0  0  0  0  0  0  0
  2 16  1  0
  3  1  1  0
  4 10  1  0
  5  2  1  0
  6  4  1  0
  7 11  1  0
  8 22  1  0
  9  8  1  0
 10  3  1  0
 11  6  1  0
 12 15  1  0
 13 19  1  0
 14  7  1  0
 15 25  1  0
 16  1  1  0
 17 21  1  0
 18 27  1  0
 19 32  1  0
 20 26  1  0
 21  5  1  0
 22 18  1  0
 23 12  1  0
 24 17  1  0
 25 13  1  0
 26 31  1  0
 27 33  1  0
 28 30  1  0
 29 28  1  0
 30 14  1  0
 31 24  1  0
 32 20  1  0
 33 29  1  0
 34  2  2  0
 35  3  2  0
 36  6  2  0
 37  9  2  0
 38 14  2  0
 10 39  1  0
 11 40  1  0
 41 15  2  0
 42 17  2  0
 43 18  2  0
 44 19  2  0
 21 45  1  0
 46 26  2  0
 22 47  1  0
 25 48  1  0
 49 29  2  0
 16 50  1  0
 23 51  1  0
 52  1  1  0
 53  4  1  0
 54  5  1  0
 55  7  1  0
 56  8  1  0
 57 13  1  0
 58 20  1  0
 59 45  1  0
 31 60  1  0
 30 61  1  0
 62 40  1  0
 63 39  1  0
 64 47  1  0
 65 48  1  0
 33 66  1  0
 67 51  1  0
 68 50  1  0
 69 50  1  0
 70 51  1  0
 71 59  1  0
 72 59  1  0
 73 65  1  0
 74 62  1  0
 75 62  1  0
 76 65  1  0
 77 63  1  0
 78 63  1  0
 79 64  1  0
 80 64  1  0
 81 60  1  0
 82 72  1  0
 83 71  1  0
 84 82  1  0
 84 83  1  0
  9 23  1  0
M  END
>  <Classification>  (684) 
1

>  <pchembl>  (684) 
5.09

>  <InChI_steorem>  (684) 
InChI=1S/C62H111N11O11/c1-23-44-58(80)67(16)34-50(74)68(17)45(29-35(2)3)56(78)66-51(39(10)11)61(83)69(18)46(30-36(4)5)54(76)63-41(14)53(75)64-42(15)57(79)71(20)48(31-37(6)7)59(81)72(21)49(32-38(8)9)60(82)73(22)52(40(12)13)62(84)70(19)47(55(77)65-44)33-43-27-25-24-26-28-43/h35-49,51-52H,23-34H2,1-22H3,(H,63,76)(H,64,75)(H,65,77)(H,66,78)

>  <source>  (684) 
ChEMBL25

>  <source_id>  (684) 
25

>  <optional_reference>  (684) 
10.1021/jm0109863

>  <optional_origin>  (684) 
None

>  <target>  (684) 
MDR1

$$$$

     RDKit          2D

 81 84  0  0  0  0  0  0  0  0999 V2000
   -0.6458   -1.4292    0.0000 N   0  0  0  0  0  0  0  0  0  0  0  0
    2.1792   -0.2042    0.0000 N   0  0  0  0  0  0  0  0  0  0  0  0
    1.1417   -3.4917    0.0000 N   0  0  0  0  0  0  0  0  0  0  0  0
    1.7417   -3.4917    0.0000 C   0  0  0  0  0  0  0  0  0  0  0  0
    1.6042   -0.0417    0.0000 C   0  0  0  0  0  0  0  0  0  0  0  0
   -0.4833   -0.2292    0.0000 C   0  0  0  0  0  0  0  0  0  0  0  0
   -0.8583   -0.7667    0.0000 C   0  0  0  0  0  0  0  0  0  0  0  0
    3.8792   -4.0417    0.0000 N   0  0  0  0  0  0  0  0  0  0  0  0
    3.8792   -3.4417    0.0000 C   0  0  0  0  0  0  0  0  0  0  0  0
    4.3792   -2.5417    0.0000 N   0  0  0  0  0  0  0  0  0  0  0  0
   -0.9458   -1.9417    0.0000 C   0  0  0  0  0  0  0  0  0  0  0  0
    2.9167   -0.9417    0.0000 C   0  0  0  0  0  0  0  0  0  0  0  0
    0.2542   -2.9792    0.0000 C   0  0  0  0  0  0  0  0  0  0  0  0
    2.6292   -4.0167    0.0000 N   0  0  0  0  0  0  0  0  0  0  0  0
    3.8667   -2.2542    0.0000 C   0  0  0  0  0  0  0  0  0  0  0  0
    0.3917   -0.1417    0.0000 O   0  0  0  0  0  0  0  0  0  0  0  0
    2.9292   -4.5167    0.0000 C   0  0  0  0  0  0  0  0  0  0  0  0
    3.3417   -1.3667    0.0000 N   0  0  0  0  0  0  0  0  0  0  0  0
   -0.0458   -2.4667    0.0000 N   0  0  0  0  0  0  0  0  0  0  0  0
    2.0417   -4.0167    0.0000 C   0  0  0  0  0  0  0  0  0  0  0  0
    4.3917   -3.1417    0.0000 C   0  0  0  0  0  0  0  0  0  0  0  0
    1.0792    0.2583    0.0000 C   0  0  0  0  0  0  0  0  0  0  0  0
   -0.6458   -2.4667    0.0000 C   0  0  0  0  0  0  0  0  0  0  0  0
    3.8542   -1.6542    0.0000 C   0  0  0  0  0  0  0  0  0  0  0  0
    2.3417   -0.7792    0.0000 C   0  0  0  0  0  0  0  0  0  0  0  0
    0.8417   -2.9792    0.0000 C   0  0  0  0  0  0  0  0  0  0  0  0
    3.5292   -4.5167    0.0000 C   0  0  0  0  0  0  0  0  0  0  0  0
   -1.5833   -0.7042    0.0000 C   0  0  0  0  0  0  0  0  0  0  0  0
    1.1792   -0.4667    0.0000 O   0  0  0  0  0  0  0  0  0  0  0  0
    2.0417   -2.9792    0.0000 O   0  0  0  0  0  0  0  0  0  0  0  0
    3.3542   -3.1542    0.0000 O   0  0  0  0  0  0  0  0  0  0  0  0
   -0.7958    0.2708    0.0000 O   0  0  0  0  0  0  0  0  0  0  0  0
    3.2167   -0.4292    0.0000 O   0  0  0  0  0  0  0  0  0  0  0  0
   -0.0458   -3.4917    0.0000 O   0  0  0  0  0  0  0  0  0  0  0  0
   -1.5333   -1.9417    0.0000 O   0  0  0  0  0  0  0  0  0  0  0  0
    3.3542   -2.5542    0.0000 O   0  0  0  0  0  0  0  0  0  0  0  0
    2.6292   -5.0417    0.0000 O   0  0  0  0  0  0  0  0  0  0  0  0
    4.3667   -1.3542    0.0000 C   0  0  0  0  0  0  0  0  0  0  0  0
   -0.9458   -2.9792    0.0000 C   0  0  0  0  0  0  0  0  0  0  0  0
    1.7417   -4.5167    0.0000 C   0  0  0  0  0  0  0  0  0  0  0  0
    1.0792    0.8583    0.0000 C   0  0  0  0  0  0  0  0  0  0  0  0
   -0.0458   -1.4292    0.0000 C   0  0  0  0  0  0  0  0  0  0  0  0
    2.6042    0.2208    0.0000 C   0  0  0  0  0  0  0  0  0  0  0  0
    0.8417   -4.0167    0.0000 C   0  0  0  0  0  0  0  0  0  0  0  0
    1.9167   -1.2042    0.0000 C   0  0  0  0  0  0  0  0  0  0  0  0
    1.1417   -2.4667    0.0000 C   0  0  0  0  0  0  0  0  0  0  0  0
    4.4417   -4.2292    0.0000 C   0  0  0  0  0  0  0  0  0  0  0  0
    6.7667   -1.3417    0.0000 O   0  0  0  0  0  0  0  0  0  0  0  0
    4.8917   -2.2417    0.0000 C   0  0  0  0  0  0  0  0  0  0  0  0
    4.9667   -1.3542    0.0000 C   0  0  0  0  0  0  0  0  0  0  0  0
    6.1667   -1.3417    0.0000 C   0  0  0  0  0  0  0  0  0  0  0  0
   -1.8958   -1.2042    0.0000 O   0  0  0  0  0  0  0  0  0  0  0  0
    7.0667   -0.8167    0.0000 C   0  0  0  0  0  0  0  0  0  0  0  0
    5.2667   -0.8292    0.0000 C   0  0  0  0  0  0  0  0  0  0  0  0
    5.2667   -1.8667    0.0000 C   0  0  0  0  0  0  0  0  0  0  0  0
    5.8667   -1.8667    0.0000 C   0  0  0  0  0  0  0  0  0  0  0  0
    5.8542   -0.8292    0.0000 C   0  0  0  0  0  0  0  0  0  0  0  0
    4.9042   -3.4292    0.0000 C   0  0  0  0  0  0  0  0  0  0  0  0
    3.8792   -5.0042    0.0000 C   0  0  0  0  0  0  0  0  0  0  0  0
    4.4417   -4.8167    0.0000 C   0  0  0  0  0  0  0  0  0  0  0  0
    7.6667   -0.8167    0.0000 C   0  0  0  0  0  0  0  0  0  0  0  0
   -1.5333   -2.9792    0.0000 C   0  0  0  0  0  0  0  0  0  0  0  0
   -1.7083   -0.3292    0.0000 C   0  0  0  0  0  0  0  0  0  0  0  0
   -2.0833   -0.6417    0.0000 C   0  0  0  0  0  0  0  0  0  0  0  0
    1.6042    1.1458    0.0000 C   0  0  0  0  0  0  0  0  0  0  0  0
    2.0417   -5.0417    0.0000 C   0  0  0  0  0  0  0  0  0  0  0  0
    1.1417   -4.5167    0.0000 C   0  0  0  0  0  0  0  0  0  0  0  0
    0.5792    1.1458    0.0000 C   0  0  0  0  0  0  0  0  0  0  0  0
    0.8417   -1.9417    0.0000 C   0  0  0  0  0  0  0  0  0  0  0  0
    1.7417   -2.4667    0.0000 C   0  0  0  0  0  0  0  0  0  0  0  0
    2.0667   -1.7792    0.0000 C   0  0  0  0  0  0  0  0  0  0  0  0
    1.3292   -1.0417    0.0000 C   0  0  0  0  0  0  0  0  0  0  0  0
    7.9542   -1.3417    0.0000 C   0  0  0  0  0  0  0  0  0  0  0  0
    7.9542   -0.3000    0.0000 C   0  0  0  0  0  0  0  0  0  0  0  0
   -1.8333   -3.4917    0.0000 C   0  0  0  0  0  0  0  0  0  0  0  0
   -1.8333   -2.4667    0.0000 C   0  0  0  0  0  0  0  0  0  0  0  0
    1.6042    1.7458    0.0000 C   0  0  0  0  0  0  0  0  0  0  0  0
    1.7417   -5.5542    0.0000 C   0  0  0  0  0  0  0  0  0  0  0  0
    8.5542   -0.3042    0.0000 C   0  0  0  0  0  0  0  0  0  0  0  0
    8.5542   -1.3417    0.0000 C   0  0  0  0  0  0  0  0  0  0  0  0
    8.8542   -0.8250    0.0000 C   0  0  0  0  0  0  0  0  0  0  0  0
  2  5  1  0
  3 26  1  0
  4  3  1  0
  5 22  1  0
  6  7  1  0
  7  1  1  0
  8 27  1  0
  9  8  1  0
 10 15  1  0
 11  1  1  0
 12 25  1  0
 13 19  1  0
 14 20  1  0
 15 24  1  0
 16  6  1  0
 17 14  1  0
 18 12  1  0
 19 23  1  0
 20  4  1  0
 21 10  1  0
 22 16  1  0
 23 11  1  0
 24 18  1  0
 25  2  1  0
 26 13  1  0
 27 17  1  0
  7 28  1  0
 29  5  2  0
 30  4  2  0
 31  9  2  0
 32  6  2  0
 33 12  2  0
 34 13  2  0
 35 11  2  0
 36 15  2  0
 37 17  2  0
 24 38  1  0
 23 39  1  0
 20 40  1  0
 22 41  1  0
 42  1  1  0
 43  2  1  0
 44  3  1  0
 25 45  1  0
 26 46  1  0
 47  8  1  0
 48 51  1  0
 49 10  1  0
 50 38  1  0
 51 56  1  0
 52 28  1  0
 53 48  1  0
 54 50  2  0
 55 50  1  0
 56 55  2  0
 57 54  1  0
 21 58  1  0
 27 59  1  0
 60 59  1  0
 61 53  1  0
 62 39  1  0
 63 28  1  0
 64 28  1  0
 65 41  1  0
 66 40  1  0
 40 67  1  0
 41 68  1  0
 69 46  1  0
 70 46  1  0
 71 45  1  0
 72 45  1  0
 73 61  1  0
 74 61  1  0
 75 62  1  0
 76 62  1  0
 77 65  1  0
 78 66  1  0
 79 74  1  0
 80 73  1  0
 81 79  1  0
 47 60  1  0
 21  9  1  0
 51 57  2  0
 81 80  1  0
M  END
>  <Classification>  (685) 
1

>  <pchembl>  (685) 
5.68

>  <InChI_steorem>  (685) 
InChI=1S/C61H100N8O12/c1-18-38(9)47-58(76)66(15)48(36(5)6)53(71)62-44(32-35(3)4)57(75)68(17)51(61(12,13)79)60(78)81-50(39(10)19-2)59(77)67(16)49(37(7)8)54(72)63-45(33-41-27-29-43(30-28-41)80-34-42-24-21-20-22-25-42)56(74)65(14)40(11)55(73)69-31-23-26-46(69)52(70)64-47/h27-30,35-40,42,44-51,79H,18-26,31-34H2,1-17H3,(H,62,71)(H,63,72)(H,64,70)

>  <source>  (685) 
ChEMBL25

>  <source_id>  (685) 
25

>  <optional_reference>  (685) 
10.1021/jm990955w

>  <optional_origin>  (685) 
None

>  <target>  (685) 
MDR1

$$$$

     RDKit          2D

 80 83  0  0  0  0  0  0  0  0999 V2000
    7.7682   -4.3646    0.0000 C   0  0  0  0  0  0  0  0  0  0  0  0
    7.0562   -4.7814    0.0000 C   0  0  0  0  0  0  0  0  0  0  0  0
    7.7509   -3.5310    0.0000 N   0  0  0  0  0  0  0  0  0  0  0  0
    0.7873   -1.9855    0.0000 N   0  0  0  0  0  0  0  0  0  0  0  0
    3.2706   -4.8508    0.0000 N   0  0  0  0  0  0  0  0  0  0  0  0
    4.7119   -0.2837    0.0000 N   0  0  0  0  0  0  0  0  0  0  0  0
    7.0562   -5.6149    0.0000 N   0  0  0  0  0  0  0  0  0  0  0  0
    4.0867   -4.8508    0.0000 C   0  0  0  0  0  0  0  0  0  0  0  0
    3.8957   -0.0579    0.0000 C   0  0  0  0  0  0  0  0  0  0  0  0
    0.9957   -0.3184    0.0000 C   0  0  0  0  0  0  0  0  0  0  0  0
    0.4747   -1.0478    0.0000 C   0  0  0  0  0  0  0  0  0  0  0  0
    7.0389   -3.1316    0.0000 C   0  0  0  0  0  0  0  0  0  0  0  0
    0.3531   -2.6975    0.0000 C   0  0  0  0  0  0  0  0  0  0  0  0
    5.7365   -1.2909    0.0000 C   0  0  0  0  0  0  0  0  0  0  0  0
    2.0202   -4.1388    0.0000 C   0  0  0  0  0  0  0  0  0  0  0  0
    5.3371   -5.5802    0.0000 N   0  0  0  0  0  0  0  0  0  0  0  0
    2.2113   -0.1969    0.0000 O   0  0  0  0  0  0  0  0  0  0  0  0
    5.7538   -6.2748    0.0000 C   0  0  0  0  0  0  0  0  0  0  0  0
    6.3095   -1.8987    0.0000 N   0  0  0  0  0  0  0  0  0  0  0  0
    1.6035   -3.4268    0.0000 N   0  0  0  0  0  0  0  0  0  0  0  0
    4.5035   -5.5802    0.0000 C   0  0  0  0  0  0  0  0  0  0  0  0
    3.1837    0.3588    0.0000 C   0  0  0  0  0  0  0  0  0  0  0  0
    7.0389   -2.2981    0.0000 C   0  0  0  0  0  0  0  0  0  0  0  0
    0.7873   -3.4268    0.0000 C   0  0  0  0  0  0  0  0  0  0  0  0
    2.8538   -4.1388    0.0000 C   0  0  0  0  0  0  0  0  0  0  0  0
    4.9203   -1.0825    0.0000 C   0  0  0  0  0  0  0  0  0  0  0  0
    6.5700   -6.2748    0.0000 C   0  0  0  0  0  0  0  0  0  0  0  0
    8.4802   -4.7640    0.0000 C   0  0  0  0  0  0  0  0  0  0  0  0
   -0.5325   -0.9609    0.0000 C   0  0  0  0  0  0  0  0  0  0  0  0
    6.3269   -4.3819    0.0000 O   0  0  0  0  0  0  0  0  0  0  0  0
    3.3227   -0.6484    0.0000 O   0  0  0  0  0  0  0  0  0  0  0  0
    4.5035   -4.1388    0.0000 O   0  0  0  0  0  0  0  0  0  0  0  0
    0.5615    0.3762    0.0000 O   0  0  0  0  0  0  0  0  0  0  0  0
    1.6035   -4.8508    0.0000 O   0  0  0  0  0  0  0  0  0  0  0  0
    6.1359   -0.5963    0.0000 O   0  0  0  0  0  0  0  0  0  0  0  0
   -0.4630   -2.6975    0.0000 O   0  0  0  0  0  0  0  0  0  0  0  0
    6.3269   -3.5484    0.0000 O   0  0  0  0  0  0  0  0  0  0  0  0
    5.3371   -7.0041    0.0000 O   0  0  0  0  0  0  0  0  0  0  0  0
    7.7509   -1.8813    0.0000 C   0  0  0  0  0  0  0  0  0  0  0  0
    0.3531   -4.1388    0.0000 C   0  0  0  0  0  0  0  0  0  0  0  0
    9.2096   -4.3472    0.0000 C   0  0  0  0  0  0  0  0  0  0  0  0
    4.0867   -6.2748    0.0000 C   0  0  0  0  0  0  0  0  0  0  0  0
    3.1837    1.1924    0.0000 C   0  0  0  0  0  0  0  0  0  0  0  0
    8.4629   -3.1143    0.0000 C   0  0  0  0  0  0  0  0  0  0  0  0
    1.6035   -1.9855    0.0000 C   0  0  0  0  0  0  0  0  0  0  0  0
    5.3023    0.3067    0.0000 C   0  0  0  0  0  0  0  0  0  0  0  0
    2.8538   -5.5802    0.0000 C   0  0  0  0  0  0  0  0  0  0  0  0
    7.8551   -5.8754    0.0000 C   0  0  0  0  0  0  0  0  0  0  0  0
    4.3299   -1.6729    0.0000 C   0  0  0  0  0  0  0  0  0  0  0  0
    3.2706   -3.4268    0.0000 C   0  0  0  0  0  0  0  0  0  0  0  0
    8.4976   -5.5975    0.0000 O   0  0  0  0  0  0  0  0  0  0  0  0
   -0.9666   -1.6729    0.0000 O   0  0  0  0  0  0  0  0  0  0  0  0
    8.5670   -1.8639    0.0000 C   0  0  0  0  0  0  0  0  0  0  0  0
    7.0562   -6.9520    0.0000 C   0  0  0  0  0  0  0  0  0  0  0  0
    7.8551   -6.6916    0.0000 C   0  0  0  0  0  0  0  0  0  0  0  0
   -0.4630   -4.1388    0.0000 C   0  0  0  0  0  0  0  0  0  0  0  0
   -1.2271   -0.8741    0.0000 C   0  0  0  0  0  0  0  0  0  0  0  0
   -0.7062   -0.4573    0.0000 C   0  0  0  0  0  0  0  0  0  0  0  0
    9.9216   -4.7640    0.0000 C   0  0  0  0  0  0  0  0  0  0  0  0
    9.1922   -3.5137    0.0000 C   0  0  0  0  0  0  0  0  0  0  0  0
    3.8957    1.5918    0.0000 C   0  0  0  0  0  0  0  0  0  0  0  0
    4.5035   -7.0041    0.0000 C   0  0  0  0  0  0  0  0  0  0  0  0
    3.2706   -6.2748    0.0000 C   0  0  0  0  0  0  0  0  0  0  0  0
    2.4717    1.5918    0.0000 C   0  0  0  0  0  0  0  0  0  0  0  0
    3.5310   -1.4472    0.0000 C   0  0  0  0  0  0  0  0  0  0  0  0
    4.5382   -2.4717    0.0000 C   0  0  0  0  0  0  0  0  0  0  0  0
    4.0867   -3.4268    0.0000 C   0  0  0  0  0  0  0  0  0  0  0  0
    2.8538   -2.6975    0.0000 C   0  0  0  0  0  0  0  0  0  0  0  0
    8.9665   -1.1520    0.0000 C   0  0  0  0  0  0  0  0  0  0  0  0
    8.9838   -2.5933    0.0000 C   0  0  0  0  0  0  0  0  0  0  0  0
   -0.8798   -3.4268    0.0000 C   0  0  0  0  0  0  0  0  0  0  0  0
   -0.8798   -4.8508    0.0000 C   0  0  0  0  0  0  0  0  0  0  0  0
    3.8957    2.4253    0.0000 C   0  0  0  0  0  0  0  0  0  0  0  0
    4.0867   -7.7161    0.0000 C   0  0  0  0  0  0  0  0  0  0  0  0
    9.9042   -3.0969    0.0000 C   0  0  0  0  0  0  0  0  0  0  0  0
   10.6335   -4.3299    0.0000 C   0  0  0  0  0  0  0  0  0  0  0  0
    9.8000   -1.1520    0.0000 C   0  0  0  0  0  0  0  0  0  0  0  0
    9.8000   -2.5586    0.0000 C   0  0  0  0  0  0  0  0  0  0  0  0
   10.6162   -3.5137    0.0000 C   0  0  0  0  0  0  0  0  0  0  0  0
   10.2168   -1.8639    0.0000 C   0  0  0  0  0  0  0  0  0  0  0  0
  2  1  1  0
  3  1  1  0
  4 11  1  0
  5  8  1  0
  6 26  1  0
  7  2  1  0
  8 21  1  0
  9  6  1  0
 10 17  1  0
 11 10  1  0
 12  3  1  0
 13 24  1  0
 14 19  1  0
 15 25  1  0
 16 18  1  0
 17 22  1  0
 18 27  1  0
 19 23  1  0
 20 15  1  0
 21 16  1  0
 22  9  1  0
 23 12  1  0
 24 20  1  0
 25  5  1  0
 26 14  1  0
 27  7  1  0
  1 28  1  0
 11 29  1  0
 30  2  2  0
 31  9  2  0
 32  8  2  0
 33 10  2  0
 34 15  2  0
 35 14  2  0
 36 13  2  0
 37 12  2  0
 38 18  2  0
 23 39  1  0
 24 40  1  0
 41 28  1  0
 21 42  1  0
 22 43  1  0
 44  3  1  0
 45  4  1  0
 46  6  1  0
 47  5  1  0
 48  7  1  0
 26 49  1  0
 25 50  1  0
 28 51  1  0
 52 29  1  0
 53 39  1  0
 27 54  1  0
 55 48  1  0
 56 40  1  0
 57 29  1  0
 58 29  1  0
 59 41  2  0
 60 41  1  0
 61 43  1  0
 62 42  1  0
 42 63  1  0
 43 64  1  0
 65 49  1  0
 66 49  1  0
 67 50  1  0
 68 50  1  0
 69 53  2  0
 70 53  1  0
 71 56  1  0
 72 56  1  0
 73 61  1  0
 74 62  1  0
 75 60  2  0
 76 59  1  0
 77 69  1  0
 78 70  2  0
 79 75  1  0
 80 78  1  0
 55 54  1  0
 79 76  2  0
 80 77  2  0
 13  4  1  0
M  END
>  <Classification>  (686) 
1

>  <pchembl>  (686) 
5.67

>  <InChI_steorem>  (686) 
InChI=1S/C60H92N8O12/c1-17-37(9)44-56(75)64(13)45(35(5)6)52(71)61-41(32-34(3)4)55(74)67(16)50(60(11,12)79)59(78)80-49(38(10)18-2)58(77)65(14)46(36(7)8)53(72)62-42(33-39-26-21-19-22-27-39)54(73)66(15)47(48(69)40-28-23-20-24-29-40)57(76)68-31-25-30-43(68)51(70)63-44/h19-24,26-29,34-38,41-50,69,79H,17-18,25,30-33H2,1-16H3,(H,61,71)(H,62,72)(H,63,70)

>  <source>  (686) 
ChEMBL25

>  <source_id>  (686) 
25

>  <optional_reference>  (686) 
10.1021/jm990955w

>  <optional_origin>  (686) 
None

>  <target>  (686) 
MDR1

$$$$

     RDKit          2D

 84 84  0  0  0  0  0  0  0  0999 V2000
    2.3329    2.8198    0.0000 N   0  0  0  0  0  0  0  0  0  0  0  0
    1.7084    2.2807    0.0000 C   0  0  0  0  0  0  0  0  0  0  0  0
    0.3785    1.5547    0.0000 N   0  0  0  0  0  0  0  0  0  0  0  0
    3.0386    2.3924    0.0000 C   0  0  0  0  0  0  0  0  0  0  0  0
    0.7759    0.8317    0.0000 C   0  0  0  0  0  0  0  0  0  0  0  0
    0.7461   -0.5969    0.0000 N   0  0  0  0  0  0  0  0  0  0  0  0
    0.3187   -1.3026    0.0000 C   0  0  0  0  0  0  0  0  0  0  0  0
    0.2888   -2.7312    0.0000 N   0  0  0  0  0  0  0  0  0  0  0  0
    2.8502    1.5892    0.0000 C   0  0  0  0  0  0  0  0  0  0  0  0
    0.3486    0.1260    0.0000 C   0  0  0  0  0  0  0  0  0  0  0  0
    0.7162   -2.0255    0.0000 C   0  0  0  0  0  0  0  0  0  0  0  0
    2.7035   -5.6402    0.0000 N   0  0  0  0  0  0  0  0  0  0  0  0
    3.1608   -3.5059    0.0000 N   0  0  0  0  0  0  0  0  0  0  0  0
    0.6863   -3.4542    0.0000 C   0  0  0  0  0  0  0  0  0  0  0  0
    3.1309   -4.9345    0.0000 C   0  0  0  0  0  0  0  0  0  0  0  0
    0.8058    2.2603    0.0000 C   0  0  0  0  0  0  0  0  0  0  0  0
    2.7633   -2.7830    0.0000 C   0  0  0  0  0  0  0  0  0  0  0  0
    2.6737   -7.0689    0.0000 C   0  0  0  0  0  0  0  0  0  0  0  0
    3.2504    0.7800    0.0000 N   0  0  0  0  0  0  0  0  0  0  0  0
    2.7932   -1.3544    0.0000 N   0  0  0  0  0  0  0  0  0  0  0  0
    1.8489   -7.0516    0.0000 N   0  0  0  0  0  0  0  0  0  0  0  0
    2.7334   -4.2116    0.0000 C   0  0  0  0  0  0  0  0  0  0  0  0
    3.2205   -0.6487    0.0000 C   0  0  0  0  0  0  0  0  0  0  0  0
    0.6564   -4.8828    0.0000 N   0  0  0  0  0  0  0  0  0  0  0  0
    0.1992   -7.0171    0.0000 N   0  0  0  0  0  0  0  0  0  0  0  0
    0.5967   -7.7401    0.0000 C   0  0  0  0  0  0  0  0  0  0  0  0
    0.2291   -5.5885    0.0000 C   0  0  0  0  0  0  0  0  0  0  0  0
    3.1010   -6.3632    0.0000 C   0  0  0  0  0  0  0  0  0  0  0  0
    1.4215   -7.7573    0.0000 C   0  0  0  0  0  0  0  0  0  0  0  0
    0.2590   -4.1599    0.0000 C   0  0  0  0  0  0  0  0  0  0  0  0
    2.8230    0.0743    0.0000 C   0  0  0  0  0  0  0  0  0  0  0  0
    3.1906   -2.0773    0.0000 C   0  0  0  0  0  0  0  0  0  0  0  0
    3.7991    2.7121    0.0000 C   0  0  0  0  0  0  0  0  0  0  0  0
    0.6266   -6.3114    0.0000 C   0  0  0  0  0  0  0  0  0  0  0  0
    2.0047    1.5107    0.0000 O   0  0  0  0  0  0  0  0  0  0  0  0
    1.6007    0.8145    0.0000 O   0  0  0  0  0  0  0  0  0  0  0  0
   -0.5061   -1.2854    0.0000 O   0  0  0  0  0  0  0  0  0  0  0  0
    2.0998    1.2463    0.0000 O   0  0  0  0  0  0  0  0  0  0  0  0
   -0.1086   -2.0083    0.0000 C   0  0  0  0  0  0  0  0  0  0  0  0
    1.5111   -3.4714    0.0000 O   0  0  0  0  0  0  0  0  0  0  0  0
   -0.4762    0.1433    0.0000 C   0  0  0  0  0  0  0  0  0  0  0  0
    3.9557   -4.9518    0.0000 O   0  0  0  0  0  0  0  0  0  0  0  0
    1.9385   -2.7657    0.0000 O   0  0  0  0  0  0  0  0  0  0  0  0
    3.0711   -7.7918    0.0000 O   0  0  0  0  0  0  0  0  0  0  0  0
    4.0453   -0.6659    0.0000 O   0  0  0  0  0  0  0  0  0  0  0  0
    3.5582   -4.2289    0.0000 C   0  0  0  0  0  0  0  0  0  0  0  0
    0.1693   -8.4458    0.0000 O   0  0  0  0  0  0  0  0  0  0  0  0
   -0.5957   -5.5712    0.0000 O   0  0  0  0  0  0  0  0  0  0  0  0
    1.8190   -8.4803    0.0000 C   0  0  0  0  0  0  0  0  0  0  0  0
    0.3927    2.9745    0.0000 C   0  0  0  0  0  0  0  0  0  0  0  0
    2.2638    3.6419    0.0000 C   0  0  0  0  0  0  0  0  0  0  0  0
    5.8739    2.0343    0.0000 C   0  0  0  0  0  0  0  0  0  0  0  0
   -0.4464    1.5719    0.0000 C   0  0  0  0  0  0  0  0  0  0  0  0
    5.7705    1.2158    0.0000 C   0  0  0  0  0  0  0  0  0  0  0  0
    3.9258   -6.3804    0.0000 C   0  0  0  0  0  0  0  0  0  0  0  0
    1.5709   -0.6142    0.0000 C   0  0  0  0  0  0  0  0  0  0  0  0
   -0.3886   -3.2021    0.0000 C   0  0  0  0  0  0  0  0  0  0  0  0
    4.4562    2.2134    0.0000 C   0  0  0  0  0  0  0  0  0  0  0  0
    3.8382   -3.0351    0.0000 C   0  0  0  0  0  0  0  0  0  0  0  0
    3.9025    3.5306    0.0000 O   0  0  0  0  0  0  0  0  0  0  0  0
    1.9683   -1.3371    0.0000 C   0  0  0  0  0  0  0  0  0  0  0  0
    3.6479    0.0570    0.0000 C   0  0  0  0  0  0  0  0  0  0  0  0
   -0.5659   -4.1426    0.0000 C   0  0  0  0  0  0  0  0  0  0  0  0
    5.2168    2.5331    0.0000 C   0  0  0  0  0  0  0  0  0  0  0  0
   -0.8737    0.8662    0.0000 C   0  0  0  0  0  0  0  0  0  0  0  0
   -0.5360   -2.7140    0.0000 C   0  0  0  0  0  0  0  0  0  0  0  0
    3.9856   -3.5232    0.0000 C   0  0  0  0  0  0  0  0  0  0  0  0
    1.3916   -9.1859    0.0000 C   0  0  0  0  0  0  0  0  0  0  0  0
    1.4514   -6.3287    0.0000 C   0  0  0  0  0  0  0  0  0  0  0  0
    6.4277    0.7170    0.0000 C   0  0  0  0  0  0  0  0  0  0  0  0
    0.8047    3.6893    0.0000 C   0  0  0  0  0  0  0  0  0  0  0  0
   -0.4323    2.9738    0.0000 C   0  0  0  0  0  0  0  0  0  0  0  0
    4.3532   -5.6747    0.0000 C   0  0  0  0  0  0  0  0  0  0  0  0
    4.3233   -7.1034    0.0000 C   0  0  0  0  0  0  0  0  0  0  0  0
    4.3529    1.3949    0.0000 C   0  0  0  0  0  0  0  0  0  0  0  0
    1.7891   -9.9089    0.0000 C   0  0  0  0  0  0  0  0  0  0  0  0
   -0.6394   -3.5325    0.0000 C   0  0  0  0  0  0  0  0  0  0  0  0
   -1.6985    0.8835    0.0000 C   0  0  0  0  0  0  0  0  0  0  0  0
   -0.9428    1.6883    0.0000 C   0  0  0  0  0  0  0  0  0  0  0  0
   -1.3608   -2.6967    0.0000 C   0  0  0  0  0  0  0  0  0  0  0  0
    0.5668   -9.1687    0.0000 C   0  0  0  0  0  0  0  0  0  0  0  0
    4.0890   -2.7047    0.0000 C   0  0  0  0  0  0  0  0  0  0  0  0
    4.8104   -3.5404    0.0000 C   0  0  0  0  0  0  0  0  0  0  0  0
    4.0752    0.7627    0.0000 C   0  0  0  0  0  0  0  0  0  0  0  0
  2  1  1  0
  3 16  1  0
  4  1  1  0
  5  3  1  0
  6 10  1  0
  7  6  1  0
  8 11  1  0
  9  4  1  0
 10  5  1  0
 11  7  1  0
 12 15  1  0
 13 17  1  0
 14  8  1  0
 15 22  1  0
 16  2  1  0
 17 32  1  0
 18 28  1  0
 19  9  1  0
 20 23  1  0
 21 18  1  0
 22 13  1  0
 23 31  1  0
 24 30  1  0
 25 34  1  0
 26 25  1  0
 27 24  1  0
 28 12  1  0
 29 21  1  0
 30 14  1  0
 31 19  1  0
 32 20  1  0
 33  4  1  0
 34 27  1  0
 35  2  2  0
 36  5  2  0
 37  7  2  0
 38  9  2  0
 11 39  1  0
 40 14  2  0
 10 41  1  0
 42 15  2  0
 43 17  2  0
 44 18  2  0
 45 23  2  0
 22 46  1  0
 47 26  2  0
 48 27  2  0
 29 49  1  0
 16 50  1  0
 51  1  1  0
 52 64  1  0
 53  3  1  0
 54 52  2  3
 28 55  1  0
 56  6  1  0
 57  8  1  0
 58 33  1  0
 59 13  1  0
 33 60  1  0
 61 20  1  0
 31 62  1  0
 30 63  1  0
 64 58  1  0
 65 41  1  0
 66 39  1  0
 67 46  1  0
 68 49  1  0
 34 69  1  0
 70 54  1  0
 71 50  1  0
 72 50  1  0
 73 55  1  0
 74 55  1  0
 58 75  1  0
 76 68  1  0
 77 66  1  0
 78 65  1  0
 79 65  1  0
 80 66  1  0
 81 68  1  0
 82 67  1  0
 83 67  1  0
 84 62  1  0
 26 29  1  0
M  END
>  <Classification>  (687) 
0

>  <pchembl>  (687) 
4.64

>  <InChI_steorem>  (687) 
InChI=1S/C61H109N11O12/c1-24-26-27-39(15)51(74)50-56(79)64-42(25-2)58(81)67(18)32-47(73)68(19)44(29-34(5)6)54(77)66-48(37(11)12)55(78)65-43(28-33(3)4)53(76)62-40(16)52(75)63-41(17)57(80)69(20)45(30-35(7)8)59(82)70(21)46(31-36(9)10)60(83)71(22)49(38(13)14)61(84)72(50)23/h24,26,33-46,48-51,74H,25,27-32H2,1-23H3,(H,62,76)(H,63,75)(H,64,79)(H,65,78)(H,66,77)

>  <source>  (687) 
ChEMBL25

>  <source_id>  (687) 
25

>  <optional_reference>  (687) 
10.1021/jm0109863

>  <optional_origin>  (687) 
None

>  <target>  (687) 
MDR1

$$$$

     RDKit          2D

 84 84  0  0  0  0  0  0  0  0999 V2000
    2.3749    2.8688    0.0000 N   0  0  0  0  0  0  0  0  0  0  0  0
    1.7505    2.3297    0.0000 C   0  0  0  0  0  0  0  0  0  0  0  0
    0.4205    1.6037    0.0000 N   0  0  0  0  0  0  0  0  0  0  0  0
    3.0806    2.4415    0.0000 C   0  0  0  0  0  0  0  0  0  0  0  0
    2.8923    1.6383    0.0000 C   0  0  0  0  0  0  0  0  0  0  0  0
    1.8909   -7.0026    0.0000 N   0  0  0  0  0  0  0  0  0  0  0  0
    2.7158   -7.0198    0.0000 C   0  0  0  0  0  0  0  0  0  0  0  0
    0.3309   -2.6822    0.0000 N   0  0  0  0  0  0  0  0  0  0  0  0
    0.8180    0.8808    0.0000 C   0  0  0  0  0  0  0  0  0  0  0  0
    2.7456   -5.5912    0.0000 N   0  0  0  0  0  0  0  0  0  0  0  0
    3.2028   -3.4569    0.0000 N   0  0  0  0  0  0  0  0  0  0  0  0
    0.7284   -3.4051    0.0000 C   0  0  0  0  0  0  0  0  0  0  0  0
    3.1730   -4.8855    0.0000 C   0  0  0  0  0  0  0  0  0  0  0  0
    0.8479    2.3094    0.0000 C   0  0  0  0  0  0  0  0  0  0  0  0
    0.3608   -1.2536    0.0000 C   0  0  0  0  0  0  0  0  0  0  0  0
    0.6388   -7.6910    0.0000 C   0  0  0  0  0  0  0  0  0  0  0  0
    2.8054   -2.7339    0.0000 C   0  0  0  0  0  0  0  0  0  0  0  0
    0.7881   -0.5479    0.0000 N   0  0  0  0  0  0  0  0  0  0  0  0
    3.2925    0.8290    0.0000 N   0  0  0  0  0  0  0  0  0  0  0  0
    2.8352   -1.3053    0.0000 N   0  0  0  0  0  0  0  0  0  0  0  0
    1.4636   -7.7083    0.0000 C   0  0  0  0  0  0  0  0  0  0  0  0
    0.7583   -1.9765    0.0000 C   0  0  0  0  0  0  0  0  0  0  0  0
    3.1431   -6.3141    0.0000 C   0  0  0  0  0  0  0  0  0  0  0  0
    2.7755   -4.1626    0.0000 C   0  0  0  0  0  0  0  0  0  0  0  0
    3.2626   -0.5996    0.0000 C   0  0  0  0  0  0  0  0  0  0  0  0
    0.2413   -6.9681    0.0000 N   0  0  0  0  0  0  0  0  0  0  0  0
    0.6985   -4.8338    0.0000 N   0  0  0  0  0  0  0  0  0  0  0  0
    0.3907    0.1751    0.0000 C   0  0  0  0  0  0  0  0  0  0  0  0
    0.2712   -5.5395    0.0000 C   0  0  0  0  0  0  0  0  0  0  0  0
    0.3010   -4.1108    0.0000 C   0  0  0  0  0  0  0  0  0  0  0  0
    2.8651    0.1233    0.0000 C   0  0  0  0  0  0  0  0  0  0  0  0
    3.2327   -2.0283    0.0000 C   0  0  0  0  0  0  0  0  0  0  0  0
    3.8412    2.7612    0.0000 C   0  0  0  0  0  0  0  0  0  0  0  0
    0.6686   -6.2624    0.0000 C   0  0  0  0  0  0  0  0  0  0  0  0
    2.0467    1.5597    0.0000 O   0  0  0  0  0  0  0  0  0  0  0  0
    3.1132   -7.7428    0.0000 O   0  0  0  0  0  0  0  0  0  0  0  0
    2.1419    1.2954    0.0000 O   0  0  0  0  0  0  0  0  0  0  0  0
    1.6428    0.8635    0.0000 O   0  0  0  0  0  0  0  0  0  0  0  0
    1.5532   -3.4224    0.0000 O   0  0  0  0  0  0  0  0  0  0  0  0
    3.9978   -4.9028    0.0000 O   0  0  0  0  0  0  0  0  0  0  0  0
    0.2114   -8.3967    0.0000 O   0  0  0  0  0  0  0  0  0  0  0  0
   -0.4640   -1.2363    0.0000 O   0  0  0  0  0  0  0  0  0  0  0  0
    1.9806   -2.7167    0.0000 O   0  0  0  0  0  0  0  0  0  0  0  0
    4.0874   -0.6169    0.0000 O   0  0  0  0  0  0  0  0  0  0  0  0
   -0.0666   -1.9593    0.0000 C   0  0  0  0  0  0  0  0  0  0  0  0
    1.8611   -8.4312    0.0000 C   0  0  0  0  0  0  0  0  0  0  0  0
    3.6003   -4.1798    0.0000 C   0  0  0  0  0  0  0  0  0  0  0  0
   -0.4342    0.1923    0.0000 C   0  0  0  0  0  0  0  0  0  0  0  0
   -0.5537   -5.5222    0.0000 O   0  0  0  0  0  0  0  0  0  0  0  0
    0.4348    3.0235    0.0000 C   0  0  0  0  0  0  0  0  0  0  0  0
    3.9679   -6.3314    0.0000 C   0  0  0  0  0  0  0  0  0  0  0  0
    2.3059    3.6909    0.0000 C   0  0  0  0  0  0  0  0  0  0  0  0
    5.9160    2.0834    0.0000 C   0  0  0  0  0  0  0  0  0  0  0  0
    5.8126    1.2649    0.0000 C   0  0  0  0  0  0  0  0  0  0  0  0
   -0.4043    1.6209    0.0000 C   0  0  0  0  0  0  0  0  0  0  0  0
    1.4935   -6.2796    0.0000 C   0  0  0  0  0  0  0  0  0  0  0  0
   -0.3465   -3.1531    0.0000 C   0  0  0  0  0  0  0  0  0  0  0  0
    4.4983    2.2624    0.0000 C   0  0  0  0  0  0  0  0  0  0  0  0
    3.8803   -2.9860    0.0000 C   0  0  0  0  0  0  0  0  0  0  0  0
    3.9445    3.5797    0.0000 O   0  0  0  0  0  0  0  0  0  0  0  0
    2.0104   -1.2881    0.0000 C   0  0  0  0  0  0  0  0  0  0  0  0
    3.6899    0.1061    0.0000 C   0  0  0  0  0  0  0  0  0  0  0  0
   -0.5238   -4.0936    0.0000 C   0  0  0  0  0  0  0  0  0  0  0  0
    5.2588    2.5821    0.0000 C   0  0  0  0  0  0  0  0  0  0  0  0
    4.0277   -3.4741    0.0000 C   0  0  0  0  0  0  0  0  0  0  0  0
   -0.4939   -2.6649    0.0000 C   0  0  0  0  0  0  0  0  0  0  0  0
    1.4337   -9.1369    0.0000 C   0  0  0  0  0  0  0  0  0  0  0  0
   -0.8316    0.9152    0.0000 C   0  0  0  0  0  0  0  0  0  0  0  0
    1.3461   -5.7915    0.0000 C   0  0  0  0  0  0  0  0  0  0  0  0
    6.4698    0.7661    0.0000 C   0  0  0  0  0  0  0  0  0  0  0  0
    0.8467    3.7383    0.0000 C   0  0  0  0  0  0  0  0  0  0  0  0
   -0.3902    3.0229    0.0000 C   0  0  0  0  0  0  0  0  0  0  0  0
    4.3953   -5.6257    0.0000 C   0  0  0  0  0  0  0  0  0  0  0  0
    4.3654   -7.0543    0.0000 C   0  0  0  0  0  0  0  0  0  0  0  0
    4.3949    1.4439    0.0000 C   0  0  0  0  0  0  0  0  0  0  0  0
   -1.6564    0.9325    0.0000 C   0  0  0  0  0  0  0  0  0  0  0  0
   -0.9007    1.7374    0.0000 C   0  0  0  0  0  0  0  0  0  0  0  0
   -0.5973   -3.4834    0.0000 C   0  0  0  0  0  0  0  0  0  0  0  0
    1.8312   -9.8598    0.0000 C   0  0  0  0  0  0  0  0  0  0  0  0
    4.1310   -2.6556    0.0000 C   0  0  0  0  0  0  0  0  0  0  0  0
    4.8525   -3.4914    0.0000 C   0  0  0  0  0  0  0  0  0  0  0  0
    0.6089   -9.1197    0.0000 C   0  0  0  0  0  0  0  0  0  0  0  0
   -1.3187   -2.6477    0.0000 C   0  0  0  0  0  0  0  0  0  0  0  0
    4.1173    0.8118    0.0000 C   0  0  0  0  0  0  0  0  0  0  0  0
  2  1  1  0
  3 14  1  0
  4  1  1  0
  5  4  1  0
  6  7  1  0
  7 23  1  0
  8 22  1  0
  9  3  1  0
 10 13  1  0
 11 17  1  0
 12  8  1  0
 13 24  1  0
 14  2  1  0
 15 18  1  0
 16 26  1  0
 17 32  1  0
 18 28  1  0
 19  5  1  0
 20 25  1  0
 21  6  1  0
 22 15  1  0
 23 10  1  0
 24 11  1  0
 25 31  1  0
 26 34  1  0
 27 30  1  0
 28  9  1  0
 29 27  1  0
 30 12  1  0
 31 19  1  0
 32 20  1  0
 33  4  1  0
 34 29  1  0
 35  2  2  0
 36  7  2  0
 37  5  2  0
 38  9  2  0
 39 12  2  0
 40 13  2  0
 41 16  2  0
 42 15  2  0
 43 17  2  0
 44 25  2  0
 22 45  1  0
 21 46  1  0
 24 47  1  0
 28 48  1  0
 49 29  2  0
 14 50  1  0
 23 51  1  0
 52  1  1  0
 53 64  1  0
 54 53  2  3
 55  3  1  0
 56  6  1  0
 57  8  1  0
 58 33  1  0
 59 11  1  0
 33 60  1  0
 61 20  1  0
 31 62  1  0
 30 63  1  0
 64 58  1  0
 65 47  1  0
 66 45  1  0
 67 46  1  0
 68 48  1  0
 34 69  1  0
 70 54  1  0
 71 50  1  0
 72 50  1  0
 73 51  1  0
 74 51  1  0
 58 75  1  0
 76 68  1  0
 77 68  1  0
 78 66  1  0
 79 67  1  0
 80 65  1  0
 81 65  1  0
 82 67  1  0
 83 66  1  0
 84 62  1  0
 16 21  1  0
M  END
>  <Classification>  (688) 
1

>  <pchembl>  (688) 
5.24

>  <InChI_steorem>  (688) 
InChI=1S/C61H109N11O12/c1-24-26-27-39(15)51(74)50-56(79)64-42(25-2)58(81)67(18)32-47(73)68(19)44(29-34(5)6)55(78)66-48(37(11)12)60(83)70(21)45(30-35(7)8)53(76)62-40(16)52(75)63-41(17)57(80)69(20)46(31-36(9)10)54(77)65-43(28-33(3)4)59(82)71(22)49(38(13)14)61(84)72(50)23/h24,26,33-46,48-51,74H,25,27-32H2,1-23H3,(H,62,76)(H,63,75)(H,64,79)(H,65,77)(H,66,78)

>  <source>  (688) 
ChEMBL25

>  <source_id>  (688) 
25

>  <optional_reference>  (688) 
10.1021/jm0109863

>  <optional_origin>  (688) 
None

>  <target>  (688) 
MDR1

$$$$

     RDKit          2D

 83 83  0  0  0  0  0  0  0  0999 V2000
    2.3808    2.7289    0.0000 N   0  0  0  0  0  0  0  0  0  0  0  0
    1.7563    2.1898    0.0000 C   0  0  0  0  0  0  0  0  0  0  0  0
    0.4264    1.4638    0.0000 N   0  0  0  0  0  0  0  0  0  0  0  0
    3.0865    2.3016    0.0000 C   0  0  0  0  0  0  0  0  0  0  0  0
    2.8981    1.4984    0.0000 C   0  0  0  0  0  0  0  0  0  0  0  0
    3.2983    0.6891    0.0000 N   0  0  0  0  0  0  0  0  0  0  0  0
    1.8968   -7.1425    0.0000 N   0  0  0  0  0  0  0  0  0  0  0  0
    0.3368   -2.8221    0.0000 N   0  0  0  0  0  0  0  0  0  0  0  0
    2.8710   -0.0166    0.0000 C   0  0  0  0  0  0  0  0  0  0  0  0
    3.2685   -0.7395    0.0000 C   0  0  0  0  0  0  0  0  0  0  0  0
    2.7216   -7.1597    0.0000 C   0  0  0  0  0  0  0  0  0  0  0  0
    0.8239    0.7409    0.0000 C   0  0  0  0  0  0  0  0  0  0  0  0
    3.2087   -3.5968    0.0000 N   0  0  0  0  0  0  0  0  0  0  0  0
    0.7343   -3.5450    0.0000 C   0  0  0  0  0  0  0  0  0  0  0  0
    0.8538    2.1695    0.0000 C   0  0  0  0  0  0  0  0  0  0  0  0
    3.1788   -5.0254    0.0000 C   0  0  0  0  0  0  0  0  0  0  0  0
    0.3667   -1.3935    0.0000 C   0  0  0  0  0  0  0  0  0  0  0  0
    0.6446   -7.8309    0.0000 C   0  0  0  0  0  0  0  0  0  0  0  0
    2.8411   -1.4452    0.0000 N   0  0  0  0  0  0  0  0  0  0  0  0
    2.8112   -2.8738    0.0000 C   0  0  0  0  0  0  0  0  0  0  0  0
    2.7515   -5.7311    0.0000 N   0  0  0  0  0  0  0  0  0  0  0  0
    1.4695   -7.8482    0.0000 C   0  0  0  0  0  0  0  0  0  0  0  0
    0.7641   -2.1164    0.0000 C   0  0  0  0  0  0  0  0  0  0  0  0
    0.7940   -0.6878    0.0000 N   0  0  0  0  0  0  0  0  0  0  0  0
    2.7814   -4.3025    0.0000 C   0  0  0  0  0  0  0  0  0  0  0  0
    0.2472   -7.1080    0.0000 N   0  0  0  0  0  0  0  0  0  0  0  0
    0.7044   -4.9737    0.0000 N   0  0  0  0  0  0  0  0  0  0  0  0
    3.1490   -6.4540    0.0000 C   0  0  0  0  0  0  0  0  0  0  0  0
    0.2770   -5.6793    0.0000 C   0  0  0  0  0  0  0  0  0  0  0  0
    0.3965    0.0352    0.0000 C   0  0  0  0  0  0  0  0  0  0  0  0
    0.3069   -4.2507    0.0000 C   0  0  0  0  0  0  0  0  0  0  0  0
    3.2386   -2.1681    0.0000 C   0  0  0  0  0  0  0  0  0  0  0  0
    3.8470    2.6213    0.0000 C   0  0  0  0  0  0  0  0  0  0  0  0
    0.6745   -6.4023    0.0000 C   0  0  0  0  0  0  0  0  0  0  0  0
    2.0526    1.4199    0.0000 O   0  0  0  0  0  0  0  0  0  0  0  0
    2.1478    1.1555    0.0000 O   0  0  0  0  0  0  0  0  0  0  0  0
    4.0933   -0.7568    0.0000 O   0  0  0  0  0  0  0  0  0  0  0  0
    1.6487    0.7236    0.0000 O   0  0  0  0  0  0  0  0  0  0  0  0
    3.1191   -7.8827    0.0000 O   0  0  0  0  0  0  0  0  0  0  0  0
    1.5591   -3.5623    0.0000 O   0  0  0  0  0  0  0  0  0  0  0  0
   -0.2905   -0.8947    0.0000 O   0  0  0  0  0  0  0  0  0  0  0  0
    4.0037   -5.0426    0.0000 O   0  0  0  0  0  0  0  0  0  0  0  0
    0.2173   -8.5366    0.0000 O   0  0  0  0  0  0  0  0  0  0  0  0
    1.9864   -2.8566    0.0000 O   0  0  0  0  0  0  0  0  0  0  0  0
   -0.0607   -2.0991    0.0000 C   0  0  0  0  0  0  0  0  0  0  0  0
    1.8669   -8.5711    0.0000 C   0  0  0  0  0  0  0  0  0  0  0  0
    3.6062   -4.3197    0.0000 C   0  0  0  0  0  0  0  0  0  0  0  0
    3.9738   -6.4713    0.0000 C   0  0  0  0  0  0  0  0  0  0  0  0
   -0.5478   -5.6621    0.0000 O   0  0  0  0  0  0  0  0  0  0  0  0
    3.6958   -0.0338    0.0000 C   0  0  0  0  0  0  0  0  0  0  0  0
    0.4407    2.8836    0.0000 C   0  0  0  0  0  0  0  0  0  0  0  0
    2.3117    3.5510    0.0000 C   0  0  0  0  0  0  0  0  0  0  0  0
    4.8143    4.5780    0.0000 C   0  0  0  0  0  0  0  0  0  0  0  0
    5.5748    4.8977    0.0000 C   0  0  0  0  0  0  0  0  0  0  0  0
   -0.3984    1.4811    0.0000 C   0  0  0  0  0  0  0  0  0  0  0  0
    1.4993   -6.4195    0.0000 C   0  0  0  0  0  0  0  0  0  0  0  0
   -0.4880   -2.8048    0.0000 C   0  0  0  0  0  0  0  0  0  0  0  0
    3.9504    3.4398    0.0000 C   0  0  0  0  0  0  0  0  0  0  0  0
    3.8861   -3.1259    0.0000 C   0  0  0  0  0  0  0  0  0  0  0  0
    4.5042    2.1225    0.0000 O   0  0  0  0  0  0  0  0  0  0  0  0
    2.0163   -1.4279    0.0000 C   0  0  0  0  0  0  0  0  0  0  0  0
    4.4423   -0.3851    0.0000 O   0  0  0  0  0  0  0  0  0  0  0  0
   -0.5179   -4.2335    0.0000 C   0  0  0  0  0  0  0  0  0  0  0  0
   -0.4283    0.0524    0.0000 C   0  0  0  0  0  0  0  0  0  0  0  0
    4.7109    3.7595    0.0000 C   0  0  0  0  0  0  0  0  0  0  0  0
    1.4396   -9.2768    0.0000 C   0  0  0  0  0  0  0  0  0  0  0  0
    4.0335   -3.6140    0.0000 C   0  0  0  0  0  0  0  0  0  0  0  0
   -0.4582   -1.3762    0.0000 C   0  0  0  0  0  0  0  0  0  0  0  0
    4.3713   -7.1942    0.0000 C   0  0  0  0  0  0  0  0  0  0  0  0
    1.3519   -5.9314    0.0000 C   0  0  0  0  0  0  0  0  0  0  0  0
    5.6782    5.7162    0.0000 C   0  0  0  0  0  0  0  0  0  0  0  0
    4.1232    0.6719    0.0000 C   0  0  0  0  0  0  0  0  0  0  0  0
    0.8526    3.5984    0.0000 C   0  0  0  0  0  0  0  0  0  0  0  0
   -0.3843    2.8830    0.0000 C   0  0  0  0  0  0  0  0  0  0  0  0
    3.2933    3.9386    0.0000 C   0  0  0  0  0  0  0  0  0  0  0  0
   -1.2830   -1.3590    0.0000 C   0  0  0  0  0  0  0  0  0  0  0  0
   -0.5272   -0.5541    0.0000 C   0  0  0  0  0  0  0  0  0  0  0  0
    1.8370   -9.9997    0.0000 C   0  0  0  0  0  0  0  0  0  0  0  0
    0.6148   -9.2595    0.0000 C   0  0  0  0  0  0  0  0  0  0  0  0
    4.1369   -2.7955    0.0000 C   0  0  0  0  0  0  0  0  0  0  0  0
    4.8584   -3.6313    0.0000 C   0  0  0  0  0  0  0  0  0  0  0  0
    5.1961   -7.2115    0.0000 C   0  0  0  0  0  0  0  0  0  0  0  0
    3.9439   -7.8999    0.0000 C   0  0  0  0  0  0  0  0  0  0  0  0
  2  1  1  0
  3 15  1  0
  4  1  1  0
  5  4  1  0
  6  5  1  0
  7 11  1  0
  8 23  1  0
  9  6  1  0
 10  9  1  0
 11 28  1  0
 12  3  1  0
 13 20  1  0
 14  8  1  0
 15  2  1  0
 16 25  1  0
 17 24  1  0
 18 26  1  0
 19 10  1  0
 20 32  1  0
 21 16  1  0
 22  7  1  0
 23 17  1  0
 24 30  1  0
 25 13  1  0
 26 34  1  0
 27 31  1  0
 28 21  1  0
 29 27  1  0
 30 12  1  0
 31 14  1  0
 32 19  1  0
 33  4  1  0
 34 29  1  0
 35  2  2  0
 36  5  2  0
 37 10  2  0
 38 12  2  0
 39 11  2  0
 40 14  2  0
 41 17  2  0
 42 16  2  0
 43 18  2  0
 44 20  2  0
 23 45  1  0
 22 46  1  0
 25 47  1  0
 28 48  1  0
 49 29  2  0
  9 50  1  0
 15 51  1  0
 52  1  1  0
 53 65  1  0
 54 53  2  3
 55  3  1  0
 56  7  1  0
 57  8  1  0
 58 33  1  0
 59 13  1  0
 33 60  1  0
 61 19  1  0
 50 62  1  0
 31 63  1  0
 30 64  1  0
 65 58  1  0
 66 46  1  0
 67 47  1  0
 68 45  1  0
 69 48  1  0
 34 70  1  0
 71 54  1  0
 72 50  1  0
 73 51  1  0
 74 51  1  0
 58 75  1  0
 76 68  1  0
 77 68  1  0
 78 66  1  0
 79 66  1  0
 80 67  1  0
 81 67  1  0
 82 69  1  0
 83 69  1  0
 18 22  1  0
M  END
>  <Classification>  (689) 
0

>  <pchembl>  (689) 
4.25

>  <InChI_steorem>  (689) 
InChI=1S/C59H105N11O13/c1-23-24-25-36(12)49(73)48-54(78)64-46(40(16)71)58(82)65(17)30-45(72)66(18)42(27-32(4)5)53(77)63-41(26-31(2)3)57(81)68(20)44(29-34(8)9)51(75)60-37(13)50(74)61-38(14)55(79)67(19)43(28-33(6)7)52(76)62-39(15)56(80)69(21)47(35(10)11)59(83)70(48)22/h23-24,31-44,46-49,71,73H,25-30H2,1-22H3,(H,60,75)(H,61,74)(H,62,76)(H,63,77)(H,64,78)

>  <source>  (689) 
ChEMBL25

>  <source_id>  (689) 
25

>  <optional_reference>  (689) 
10.1021/jm0109863

>  <optional_origin>  (689) 
None

>  <target>  (689) 
MDR1

$$$$

     RDKit          2D

 84 84  0  0  0  0  0  0  0  0999 V2000
    2.6523    2.7739    0.0000 N   0  0  0  0  0  0  0  0  0  0  0  0
    2.0279    2.2348    0.0000 C   0  0  0  0  0  0  0  0  0  0  0  0
    3.3580    2.3465    0.0000 C   0  0  0  0  0  0  0  0  0  0  0  0
    3.5101   -2.1232    0.0000 C   0  0  0  0  0  0  0  0  0  0  0  0
    3.4802   -3.5518    0.0000 N   0  0  0  0  0  0  0  0  0  0  0  0
    1.1253    2.2145    0.0000 C   0  0  0  0  0  0  0  0  0  0  0  0
    3.1126   -1.4002    0.0000 N   0  0  0  0  0  0  0  0  0  0  0  0
    0.5187   -7.0630    0.0000 N   0  0  0  0  0  0  0  0  0  0  0  0
    0.9460   -6.3573    0.0000 C   0  0  0  0  0  0  0  0  0  0  0  0
    3.0828   -2.8289    0.0000 C   0  0  0  0  0  0  0  0  0  0  0  0
    0.9759   -4.9287    0.0000 N   0  0  0  0  0  0  0  0  0  0  0  0
    3.5699    0.7341    0.0000 N   0  0  0  0  0  0  0  0  0  0  0  0
    0.6083   -2.7771    0.0000 N   0  0  0  0  0  0  0  0  0  0  0  0
    3.0529   -4.2575    0.0000 C   0  0  0  0  0  0  0  0  0  0  0  0
    3.1425    0.0284    0.0000 C   0  0  0  0  0  0  0  0  0  0  0  0
    0.5784   -4.2058    0.0000 C   0  0  0  0  0  0  0  0  0  0  0  0
    1.7410   -7.8032    0.0000 C   0  0  0  0  0  0  0  0  0  0  0  0
    1.0357   -2.0714    0.0000 C   0  0  0  0  0  0  0  0  0  0  0  0
    0.6979    1.5088    0.0000 N   0  0  0  0  0  0  0  0  0  0  0  0
    1.0655   -0.6428    0.0000 N   0  0  0  0  0  0  0  0  0  0  0  0
    3.5400   -0.6945    0.0000 C   0  0  0  0  0  0  0  0  0  0  0  0
    0.9162   -7.7860    0.0000 C   0  0  0  0  0  0  0  0  0  0  0  0
    3.1697    1.5433    0.0000 C   0  0  0  0  0  0  0  0  0  0  0  0
    0.5486   -5.6344    0.0000 C   0  0  0  0  0  0  0  0  0  0  0  0
    1.0058   -3.5001    0.0000 C   0  0  0  0  0  0  0  0  0  0  0  0
    0.6681    0.0801    0.0000 C   0  0  0  0  0  0  0  0  0  0  0  0
    2.1683   -7.0975    0.0000 N   0  0  0  0  0  0  0  0  0  0  0  0
    3.0230   -5.6861    0.0000 N   0  0  0  0  0  0  0  0  0  0  0  0
    3.4205   -6.4091    0.0000 C   0  0  0  0  0  0  0  0  0  0  0  0
    3.4504   -4.9804    0.0000 C   0  0  0  0  0  0  0  0  0  0  0  0
    1.0954    0.7858    0.0000 C   0  0  0  0  0  0  0  0  0  0  0  0
    0.6382   -1.3485    0.0000 C   0  0  0  0  0  0  0  0  0  0  0  0
    1.7316    3.0047    0.0000 C   0  0  0  0  0  0  0  0  0  0  0  0
    2.9931   -7.1148    0.0000 C   0  0  0  0  0  0  0  0  0  0  0  0
    4.1186    2.6663    0.0000 O   0  0  0  0  0  0  0  0  0  0  0  0
    4.3349   -2.1404    0.0000 O   0  0  0  0  0  0  0  0  0  0  0  0
    1.7708   -6.3746    0.0000 O   0  0  0  0  0  0  0  0  0  0  0  0
    0.7122    2.9286    0.0000 O   0  0  0  0  0  0  0  0  0  0  0  0
    2.2281   -4.2403    0.0000 O   0  0  0  0  0  0  0  0  0  0  0  0
    3.9076   -2.8461    0.0000 C   0  0  0  0  0  0  0  0  0  0  0  0
   -0.2464   -4.1885    0.0000 O   0  0  0  0  0  0  0  0  0  0  0  0
    2.3177    0.0456    0.0000 O   0  0  0  0  0  0  0  0  0  0  0  0
    2.1384   -8.5261    0.0000 O   0  0  0  0  0  0  0  0  0  0  0  0
    1.8605   -2.0887    0.0000 O   0  0  0  0  0  0  0  0  0  0  0  0
   -0.1568    0.0974    0.0000 O   0  0  0  0  0  0  0  0  0  0  0  0
    0.4888   -8.4916    0.0000 C   0  0  0  0  0  0  0  0  0  0  0  0
    4.3648   -0.7118    0.0000 C   0  0  0  0  0  0  0  0  0  0  0  0
    0.1810   -3.4828    0.0000 C   0  0  0  0  0  0  0  0  0  0  0  0
    4.2453   -6.4263    0.0000 O   0  0  0  0  0  0  0  0  0  0  0  0
    3.9893    1.6376    0.0000 C   0  0  0  0  0  0  0  0  0  0  0  0
   -0.2763   -5.6171    0.0000 C   0  0  0  0  0  0  0  0  0  0  0  0
    2.5833    3.5960    0.0000 C   0  0  0  0  0  0  0  0  0  0  0  0
   -0.1946    4.0315    0.0000 C   0  0  0  0  0  0  0  0  0  0  0  0
   -0.4909    4.8015    0.0000 C   0  0  0  0  0  0  0  0  0  0  0  0
    4.1374   -4.0506    0.0000 C   0  0  0  0  0  0  0  0  0  0  0  0
   -0.3061   -7.0458    0.0000 C   0  0  0  0  0  0  0  0  0  0  0  0
    2.2878   -1.3830    0.0000 C   0  0  0  0  0  0  0  0  0  0  0  0
    0.9166    3.1331    0.0000 C   0  0  0  0  0  0  0  0  0  0  0  0
   -0.0488   -2.2784    0.0000 C   0  0  0  0  0  0  0  0  0  0  0  0
    2.2502    3.6463    0.0000 O   0  0  0  0  0  0  0  0  0  0  0  0
    1.8903   -0.6601    0.0000 C   0  0  0  0  0  0  0  0  0  0  0  0
    0.2706    0.8031    0.0000 C   0  0  0  0  0  0  0  0  0  0  0  0
    4.2752   -4.9977    0.0000 C   0  0  0  0  0  0  0  0  0  0  0  0
    0.6203    3.9031    0.0000 C   0  0  0  0  0  0  0  0  0  0  0  0
    4.3051   -3.5691    0.0000 C   0  0  0  0  0  0  0  0  0  0  0  0
    0.8863   -9.2146    0.0000 C   0  0  0  0  0  0  0  0  0  0  0  0
    4.7922   -0.0061    0.0000 C   0  0  0  0  0  0  0  0  0  0  0  0
   -0.2165   -2.7599    0.0000 C   0  0  0  0  0  0  0  0  0  0  0  0
    3.3906   -7.8377    0.0000 C   0  0  0  0  0  0  0  0  0  0  0  0
   -1.3058    4.9299    0.0000 C   0  0  0  0  0  0  0  0  0  0  0  0
    4.3175    2.3945    0.0000 C   0  0  0  0  0  0  0  0  0  0  0  0
    4.4807    0.9749    0.0000 C   0  0  0  0  0  0  0  0  0  0  0  0
   -0.6737   -4.8942    0.0000 C   0  0  0  0  0  0  0  0  0  0  0  0
   -0.7036   -6.3228    0.0000 C   0  0  0  0  0  0  0  0  0  0  0  0
    0.1199    2.9190    0.0000 C   0  0  0  0  0  0  0  0  0  0  0  0
    4.8955    0.8124    0.0000 C   0  0  0  0  0  0  0  0  0  0  0  0
    5.1299   -3.5863    0.0000 C   0  0  0  0  0  0  0  0  0  0  0  0
   -1.0413   -2.7426    0.0000 C   0  0  0  0  0  0  0  0  0  0  0  0
   -0.2856   -1.9378    0.0000 C   0  0  0  0  0  0  0  0  0  0  0  0
    4.3741   -4.3912    0.0000 C   0  0  0  0  0  0  0  0  0  0  0  0
    1.7111   -9.2318    0.0000 C   0  0  0  0  0  0  0  0  0  0  0  0
    0.4589   -9.9203    0.0000 C   0  0  0  0  0  0  0  0  0  0  0  0
    5.6170   -0.0234    0.0000 C   0  0  0  0  0  0  0  0  0  0  0  0
   -0.1269    1.5260    0.0000 C   0  0  0  0  0  0  0  0  0  0  0  0
  2  1  1  0
  3  1  1  0
  4  7  1  0
  5 10  1  0
  2  6  1  0
  7 21  1  0
  8  9  1  0
  9 24  1  0
 10  4  1  0
 11 16  1  0
 12 23  1  0
 13 18  1  0
 14  5  1  0
 15 12  1  0
 16 25  1  0
 17 27  1  0
 18 32  1  0
 19  6  1  0
 20 26  1  0
 21 15  1  0
 22  8  1  0
 23  3  1  0
 24 11  1  0
 25 13  1  0
 26 31  1  0
 27 34  1  0
 30 28  1  0
 29 28  1  0
 30 14  1  0
 31 19  1  0
 32 20  1  0
 33  2  1  0
 34 29  1  0
 35  3  2  0
 36  4  2  0
 37  9  2  0
 38  6  2  0
 39 14  2  0
 10 40  1  0
 41 16  2  0
 42 15  2  0
 43 17  2  0
 44 18  2  0
 45 26  2  0
 22 46  1  0
 21 47  1  0
 25 48  1  0
 49 29  2  0
 23 50  1  0
 24 51  1  0
 52  1  1  0
 53 64  1  0
 54 53  2  3
 55  5  1  0
 56  8  1  0
 57  7  1  0
 33 58  1  0
 59 13  1  0
 33 60  1  0
 61 20  1  0
 31 62  1  0
 30 63  1  0
 58 64  1  0
 65 40  1  0
 66 46  1  0
 67 47  1  0
 68 48  1  0
 34 69  1  0
 70 54  1  0
 71 50  1  0
 72 50  1  0
 73 51  1  0
 74 51  1  0
 58 75  1  0
 76 67  1  0
 77 65  1  0
 78 68  1  0
 79 68  1  0
 80 65  1  0
 81 66  1  0
 82 66  1  0
 83 67  1  0
 84 62  1  0
 17 22  1  0
M  END
>  <Classification>  (690) 
1

>  <pchembl>  (690) 
5.47

>  <InChI_steorem>  (690) 
InChI=1S/C61H109N11O12/c1-24-26-27-39(15)51(74)50-56(79)64-42(25-2)58(81)67(18)32-47(73)68(19)43(28-33(3)4)54(77)65-48(37(11)12)60(83)70(21)44(29-34(5)6)53(76)62-40(16)52(75)63-41(17)57(80)71(22)46(31-36(9)10)59(82)69(20)45(30-35(7)8)55(78)66-49(38(13)14)61(84)72(50)23/h24,26,33-46,48-51,74H,25,27-32H2,1-23H3,(H,62,76)(H,63,75)(H,64,79)(H,65,77)(H,66,78)

>  <source>  (690) 
ChEMBL25

>  <source_id>  (690) 
25

>  <optional_reference>  (690) 
10.1021/jm0109863

>  <optional_origin>  (690) 
None

>  <target>  (690) 
MDR1

$$$$

     RDKit          2D

 85 85  0  0  0  0  0  0  0  0999 V2000
   -4.7732    2.9170    0.0000 N   0  0  0  0  0  0  0  0  0  0  0  0
   -4.7732    2.0920    0.0000 C   0  0  0  0  0  0  0  0  0  0  0  0
   -4.0587    3.3295    0.0000 C   0  0  0  0  0  0  0  0  0  0  0  0
   -5.4877    3.3295    0.0000 C   0  0  0  0  0  0  0  0  0  0  0  0
   -4.0587    4.1545    0.0000 C   0  0  0  0  0  0  0  0  0  0  0  0
   -3.3443    2.9170    0.0000 C   0  0  0  0  0  0  0  0  0  0  0  0
   -4.7732    4.5670    0.0000 C   0  0  0  0  0  0  0  0  0  0  0  0
   -4.7732    5.3920    0.0000 C   0  0  0  0  0  0  0  0  0  0  0  0
   -5.4877    4.1545    0.0000 C   0  0  0  0  0  0  0  0  0  0  0  0
   -3.3443    2.0920    0.0000 O   0  0  0  0  0  0  0  0  0  0  0  0
   -2.5193    2.9170    0.0000 N   0  0  0  0  0  0  0  0  0  0  0  0
   -2.5193    2.0920    0.0000 C   0  0  0  0  0  0  0  0  0  0  0  0
   -1.7224    3.1305    0.0000 C   0  0  0  0  0  0  0  0  0  0  0  0
   -0.9255    2.9170    0.0000 C   0  0  0  0  0  0  0  0  0  0  0  0
   -1.7224    3.9555    0.0000 C   0  0  0  0  0  0  0  0  0  0  0  0
   -0.1005    2.9170    0.0000 N   0  0  0  0  0  0  0  0  0  0  0  0
   -1.0332    2.0990    0.0000 O   0  0  0  0  0  0  0  0  0  0  0  0
    0.6964    3.1305    0.0000 C   0  0  0  0  0  0  0  0  0  0  0  0
    1.4933    2.9170    0.0000 C   0  0  0  0  0  0  0  0  0  0  0  0
   -0.1005    2.0920    0.0000 C   0  0  0  0  0  0  0  0  0  0  0  0
    0.6964    3.9555    0.0000 C   0  0  0  0  0  0  0  0  0  0  0  0
    1.4109    4.3680    0.0000 C   0  0  0  0  0  0  0  0  0  0  0  0
   -0.0181    4.3680    0.0000 C   0  0  0  0  0  0  0  0  0  0  0  0
    1.4109    5.1930    0.0000 C   0  0  0  0  0  0  0  0  0  0  0  0
    2.1253    3.9555    0.0000 C   0  0  0  0  0  0  0  0  0  0  0  0
    0.6964    5.6055    0.0000 C   0  0  0  0  0  0  0  0  0  0  0  0
    0.6964    6.4305    0.0000 C   0  0  0  0  0  0  0  0  0  0  0  0
   -0.0181    6.8430    0.0000 C   0  0  0  0  0  0  0  0  0  0  0  0
    2.3183    2.9170    0.0000 N   0  0  0  0  0  0  0  0  0  0  0  0
    1.3856    2.0990    0.0000 O   0  0  0  0  0  0  0  0  0  0  0  0
    3.0328    3.3295    0.0000 C   0  0  0  0  0  0  0  0  0  0  0  0
    3.7472    2.9170    0.0000 C   0  0  0  0  0  0  0  0  0  0  0  0
    3.0328    4.1545    0.0000 C   0  0  0  0  0  0  0  0  0  0  0  0
    3.7472    4.5670    0.0000 C   0  0  0  0  0  0  0  0  0  0  0  0
    4.5722    2.9170    0.0000 N   0  0  0  0  0  0  0  0  0  0  0  0
    3.5337    2.1201    0.0000 O   0  0  0  0  0  0  0  0  0  0  0  0
    4.5722    2.0920    0.0000 C   0  0  0  0  0  0  0  0  0  0  0  0
    5.2867    1.6795    0.0000 C   0  0  0  0  0  0  0  0  0  0  0  0
    5.1556    3.5003    0.0000 C   0  0  0  0  0  0  0  0  0  0  0  0
    6.0012    2.0920    0.0000 O   0  0  0  0  0  0  0  0  0  0  0  0
   -4.9867    1.2951    0.0000 C   0  0  0  0  0  0  0  0  0  0  0  0
   -3.9553    1.9843    0.0000 O   0  0  0  0  0  0  0  0  0  0  0  0
   -4.7732    0.4982    0.0000 N   0  0  0  0  0  0  0  0  0  0  0  0
   -5.8117    1.2951    0.0000 C   0  0  0  0  0  0  0  0  0  0  0  0
   -6.2242    2.0095    0.0000 C   0  0  0  0  0  0  0  0  0  0  0  0
   -7.0492    2.0095    0.0000 C   0  0  0  0  0  0  0  0  0  0  0  0
   -5.8117    2.7240    0.0000 C   0  0  0  0  0  0  0  0  0  0  0  0
   -4.9867   -0.2987    0.0000 C   0  0  0  0  0  0  0  0  0  0  0  0
   -4.5742   -1.0132    0.0000 C   0  0  0  0  0  0  0  0  0  0  0  0
   -5.8047   -0.4064    0.0000 O   0  0  0  0  0  0  0  0  0  0  0  0
   -3.9482    0.4982    0.0000 C   0  0  0  0  0  0  0  0  0  0  0  0
   -3.7774   -0.7996    0.0000 N   0  0  0  0  0  0  0  0  0  0  0  0
   -4.8900   -1.7754    0.0000 C   0  0  0  0  0  0  0  0  0  0  0  0
   -2.9524   -0.7996    0.0000 C   0  0  0  0  0  0  0  0  0  0  0  0
   -2.2379   -1.2121    0.0000 C   0  0  0  0  0  0  0  0  0  0  0  0
   -2.7388   -0.0028    0.0000 O   0  0  0  0  0  0  0  0  0  0  0  0
   -1.4410   -0.9986    0.0000 N   0  0  0  0  0  0  0  0  0  0  0  0
   -2.3456   -2.0301    0.0000 C   0  0  0  0  0  0  0  0  0  0  0  0
   -0.6160   -0.9986    0.0000 C   0  0  0  0  0  0  0  0  0  0  0  0
    0.0985   -1.4111    0.0000 C   0  0  0  0  0  0  0  0  0  0  0  0
   -0.4025   -0.2017    0.0000 O   0  0  0  0  0  0  0  0  0  0  0  0
    0.8130   -0.9986    0.0000 N   0  0  0  0  0  0  0  0  0  0  0  0
    0.0985   -2.2361    0.0000 C   0  0  0  0  0  0  0  0  0  0  0  0
    0.8130   -2.6486    0.0000 C   0  0  0  0  0  0  0  0  0  0  0  0
    0.8130   -3.4736    0.0000 C   0  0  0  0  0  0  0  0  0  0  0  0
    1.5274   -2.2361    0.0000 C   0  0  0  0  0  0  0  0  0  0  0  0
    1.6380   -0.9986    0.0000 C   0  0  0  0  0  0  0  0  0  0  0  0
    0.5994   -0.2017    0.0000 C   0  0  0  0  0  0  0  0  0  0  0  0
    2.3524   -1.4111    0.0000 C   0  0  0  0  0  0  0  0  0  0  0  0
    1.8515   -0.2017    0.0000 O   0  0  0  0  0  0  0  0  0  0  0  0
    3.0669   -0.9986    0.0000 N   0  0  0  0  0  0  0  0  0  0  0  0
    2.3524   -2.2361    0.0000 C   0  0  0  0  0  0  0  0  0  0  0  0
    3.0669   -2.6486    0.0000 C   0  0  0  0  0  0  0  0  0  0  0  0
    1.9399   -2.9506    0.0000 C   0  0  0  0  0  0  0  0  0  0  0  0
    3.8919   -0.9986    0.0000 C   0  0  0  0  0  0  0  0  0  0  0  0
    4.4753   -1.5820    0.0000 C   0  0  0  0  0  0  0  0  0  0  0  0
    4.2076   -0.2364    0.0000 O   0  0  0  0  0  0  0  0  0  0  0  0
    5.2721   -1.3685    0.0000 N   0  0  0  0  0  0  0  0  0  0  0  0
    4.2617   -2.3789    0.0000 C   0  0  0  0  0  0  0  0  0  0  0  0
    4.8451   -2.9622    0.0000 C   0  0  0  0  0  0  0  0  0  0  0  0
    4.6316   -3.7591    0.0000 C   0  0  0  0  0  0  0  0  0  0  0  0
    5.6420   -2.7487    0.0000 C   0  0  0  0  0  0  0  0  0  0  0  0
    5.9255   -1.8722    0.0000 C   0  0  0  0  0  0  0  0  0  0  0  0
   -1.0963    4.8100    0.0000 C   0  0  0  0  0  0  0  0  0  0  0  0
   -2.4369    4.3680    0.0000 C   0  0  0  0  0  0  0  0  0  0  0  0
  1  2  1  0
  1  3  1  0
  1  4  1  0
  3  5  1  0
  3  6  1  0
  5  7  1  0
  7  8  1  0
  7  9  1  0
  6 10  2  0
  6 11  1  0
 11 12  1  0
 11 13  1  0
 13 14  1  0
 13 15  1  0
 14 16  1  0
 14 17  2  0
 18 16  1  0
 18 19  1  0
 16 20  1  0
 18 21  1  0
 21 22  1  0
 21 23  1  0
 22 24  1  0
 22 25  1  0
 24 26  1  0
 26 27  2  3
 27 28  1  0
 19 29  1  0
 19 30  2  0
 31 29  1  0
 31 32  1  0
 31 33  1  0
 33 34  1  0
 32 35  1  0
 32 36  2  0
 35 37  1  0
 37 38  1  0
 35 39  1  0
 38 40  2  0
  2 41  1  0
  2 42  2  0
 41 43  1  0
 41 44  1  0
 44 45  1  0
 45 46  1  0
 45 47  1  0
 43 48  1  0
 48 49  1  0
 48 50  2  0
 43 51  1  0
 49 52  1  0
 49 53  1  0
 52 54  1  0
 54 55  1  0
 54 56  2  0
 55 57  1  0
 55 58  1  0
 57 59  1  0
 59 60  1  0
 59 61  2  0
 60 62  1  0
 60 63  1  0
 63 64  1  0
 64 65  1  0
 64 66  1  0
 62 67  1  0
 62 68  1  0
 67 69  1  0
 67 70  2  0
 69 71  1  0
 69 72  1  0
 72 73  1  0
 72 74  1  0
 71 75  1  0
 75 76  1  0
 75 77  2  0
 76 78  1  0
 76 79  1  0
 79 80  1  0
 80 81  1  0
 80 82  1  0
 78 38  1  0
 78 83  1  0
 15 84  1  0
 15 85  1  0
M  END
>  <Classification>  (691) 
0

>  <pchembl>  (691) 
4.81

>  <InChI_steorem>  (691) 
InChI=1S/C63H113N11O11/c1-26-28-29-41(15)42(16)53-57(79)66-45(27-2)59(81)68(19)34-50(75)69(20)46(30-35(3)4)56(78)67-51(39(11)12)62(84)70(21)47(31-36(5)6)55(77)64-43(17)54(76)65-44(18)58(80)71(22)48(32-37(7)8)60(82)72(23)49(33-38(9)10)61(83)73(24)52(40(13)14)63(85)74(53)25/h26,28,35-49,51-53H,27,29-34H2,1-25H3,(H,64,77)(H,65,76)(H,66,79)(H,67,78)

>  <source>  (691) 
ChEMBL25

>  <source_id>  (691) 
25

>  <optional_reference>  (691) 
10.1021/jm0109863

>  <optional_origin>  (691) 
None

>  <target>  (691) 
MDR1

$$$$

     RDKit          2D

 85 85  0  0  0  0  0  0  0  0999 V2000
   -8.1321    3.5357    0.0000 N   0  0  0  0  0  0  0  0  0  0  0  0
   -7.4177    3.9482    0.0000 C   0  0  0  0  0  0  0  0  0  0  0  0
   -6.7032    3.5357    0.0000 C   0  0  0  0  0  0  0  0  0  0  0  0
   -6.7032    2.7107    0.0000 O   0  0  0  0  0  0  0  0  0  0  0  0
   -5.8782    3.5357    0.0000 N   0  0  0  0  0  0  0  0  0  0  0  0
   -5.1637    3.9482    0.0000 C   0  0  0  0  0  0  0  0  0  0  0  0
   -4.4493    3.5357    0.0000 C   0  0  0  0  0  0  0  0  0  0  0  0
   -5.1637    4.7732    0.0000 C   0  0  0  0  0  0  0  0  0  0  0  0
   -4.4493    5.1857    0.0000 C   0  0  0  0  0  0  0  0  0  0  0  0
   -5.8782    5.1857    0.0000 C   0  0  0  0  0  0  0  0  0  0  0  0
   -3.6243    3.5357    0.0000 N   0  0  0  0  0  0  0  0  0  0  0  0
   -4.6628    2.7388    0.0000 O   0  0  0  0  0  0  0  0  0  0  0  0
   -2.9098    3.9482    0.0000 C   0  0  0  0  0  0  0  0  0  0  0  0
   -2.1953    3.5357    0.0000 C   0  0  0  0  0  0  0  0  0  0  0  0
   -2.9098    4.7732    0.0000 C   0  0  0  0  0  0  0  0  0  0  0  0
   -3.6243    5.1857    0.0000 O   0  0  0  0  0  0  0  0  0  0  0  0
   -2.1953    5.1857    0.0000 C   0  0  0  0  0  0  0  0  0  0  0  0
   -2.1953    6.0107    0.0000 C   0  0  0  0  0  0  0  0  0  0  0  0
   -1.4808    4.7732    0.0000 C   0  0  0  0  0  0  0  0  0  0  0  0
   -2.9098    6.4232    0.0000 C   0  0  0  0  0  0  0  0  0  0  0  0
   -2.9098    7.2482    0.0000 C   0  0  0  0  0  0  0  0  0  0  0  0
   -3.6243    7.6607    0.0000 C   0  0  0  0  0  0  0  0  0  0  0  0
   -3.6243    8.4857    0.0000 C   0  0  0  0  0  0  0  0  0  0  0  0
   -1.3703    3.5357    0.0000 N   0  0  0  0  0  0  0  0  0  0  0  0
   -2.4088    2.7388    0.0000 O   0  0  0  0  0  0  0  0  0  0  0  0
   -0.6558    3.9482    0.0000 C   0  0  0  0  0  0  0  0  0  0  0  0
    0.0586    3.5357    0.0000 C   0  0  0  0  0  0  0  0  0  0  0  0
   -0.6558    4.7732    0.0000 C   0  0  0  0  0  0  0  0  0  0  0  0
    0.0586    5.1857    0.0000 C   0  0  0  0  0  0  0  0  0  0  0  0
    0.8836    3.5357    0.0000 N   0  0  0  0  0  0  0  0  0  0  0  0
   -0.1549    2.7388    0.0000 O   0  0  0  0  0  0  0  0  0  0  0  0
    1.3686    2.8683    0.0000 C   0  0  0  0  0  0  0  0  0  0  0  0
    2.1531    3.1232    0.0000 C   0  0  0  0  0  0  0  0  0  0  0  0
    2.1531    3.9482    0.0000 C   0  0  0  0  0  0  0  0  0  0  0  0
    1.3686    4.2031    0.0000 C   0  0  0  0  0  0  0  0  0  0  0  0
    1.1136    2.0837    0.0000 C   0  0  0  0  0  0  0  0  0  0  0  0
   -8.8466    3.9482    0.0000 C   0  0  0  0  0  0  0  0  0  0  0  0
   -8.1321    2.7107    0.0000 C   0  0  0  0  0  0  0  0  0  0  0  0
   -7.5488    2.1274    0.0000 O   0  0  0  0  0  0  0  0  0  0  0  0
   -8.5446    1.9962    0.0000 C   0  0  0  0  0  0  0  0  0  0  0  0
   -8.1321    1.2818    0.0000 N   0  0  0  0  0  0  0  0  0  0  0  0
   -8.1321    0.4568    0.0000 C   0  0  0  0  0  0  0  0  0  0  0  0
   -7.5488   -0.1266    0.0000 C   0  0  0  0  0  0  0  0  0  0  0  0
   -8.8466    0.0443    0.0000 O   0  0  0  0  0  0  0  0  0  0  0  0
   -9.3696    1.9962    0.0000 C   0  0  0  0  0  0  0  0  0  0  0  0
   -9.7821    1.2818    0.0000 C   0  0  0  0  0  0  0  0  0  0  0  0
  -10.6071    1.2818    0.0000 C   0  0  0  0  0  0  0  0  0  0  0  0
   -9.3696    0.5673    0.0000 C   0  0  0  0  0  0  0  0  0  0  0  0
   -6.7519    0.0869    0.0000 N   0  0  0  0  0  0  0  0  0  0  0  0
   -7.7623   -0.9235    0.0000 C   0  0  0  0  0  0  0  0  0  0  0  0
   -5.9269    0.0869    0.0000 C   0  0  0  0  0  0  0  0  0  0  0  0
   -5.2124   -0.3256    0.0000 C   0  0  0  0  0  0  0  0  0  0  0  0
   -4.4155   -0.1120    0.0000 N   0  0  0  0  0  0  0  0  0  0  0  0
   -5.7134    0.8838    0.0000 O   0  0  0  0  0  0  0  0  0  0  0  0
   -5.3201   -1.1435    0.0000 C   0  0  0  0  0  0  0  0  0  0  0  0
   -3.7011    0.3005    0.0000 C   0  0  0  0  0  0  0  0  0  0  0  0
   -2.8761    0.3005    0.0000 C   0  0  0  0  0  0  0  0  0  0  0  0
   -3.9146    1.0973    0.0000 O   0  0  0  0  0  0  0  0  0  0  0  0
   -2.1616    0.7130    0.0000 N   0  0  0  0  0  0  0  0  0  0  0  0
   -2.6625   -0.4964    0.0000 C   0  0  0  0  0  0  0  0  0  0  0  0
   -1.3366    0.7130    0.0000 C   0  0  0  0  0  0  0  0  0  0  0  0
   -0.7532    0.1296    0.0000 C   0  0  0  0  0  0  0  0  0  0  0  0
   -0.0388    0.5421    0.0000 N   0  0  0  0  0  0  0  0  0  0  0  0
   -1.0209    1.4752    0.0000 O   0  0  0  0  0  0  0  0  0  0  0  0
   -0.8609   -0.6883    0.0000 C   0  0  0  0  0  0  0  0  0  0  0  0
   -0.2064   -1.1906    0.0000 C   0  0  0  0  0  0  0  0  0  0  0  0
   -1.6231   -1.0041    0.0000 C   0  0  0  0  0  0  0  0  0  0  0  0
   -3.0750   -1.2109    0.0000 C   0  0  0  0  0  0  0  0  0  0  0  0
   -2.6625   -1.9254    0.0000 C   0  0  0  0  0  0  0  0  0  0  0  0
   -3.9000   -1.2109    0.0000 C   0  0  0  0  0  0  0  0  0  0  0  0
    0.7581    0.3286    0.0000 C   0  0  0  0  0  0  0  0  0  0  0  0
    1.3415    0.9119    0.0000 O   0  0  0  0  0  0  0  0  0  0  0  0
    1.4726   -0.0839    0.0000 C   0  0  0  0  0  0  0  0  0  0  0  0
    2.2695    0.1296    0.0000 N   0  0  0  0  0  0  0  0  0  0  0  0
    1.3649   -0.9019    0.0000 C   0  0  0  0  0  0  0  0  0  0  0  0
    2.0194   -1.4041    0.0000 C   0  0  0  0  0  0  0  0  0  0  0  0
    2.0194   -2.2291    0.0000 C   0  0  0  0  0  0  0  0  0  0  0  0
    2.7594   -1.0392    0.0000 C   0  0  0  0  0  0  0  0  0  0  0  0
    2.8529   -0.4538    0.0000 C   0  0  0  0  0  0  0  0  0  0  0  0
    2.4830    0.9265    0.0000 C   0  0  0  0  0  0  0  0  0  0  0  0
    3.2799    1.1400    0.0000 O   0  0  0  0  0  0  0  0  0  0  0  0
   -7.4177    4.7732    0.0000 C   0  0  0  0  0  0  0  0  0  0  0  0
   -8.1321    5.1857    0.0000 C   0  0  0  0  0  0  0  0  0  0  0  0
   -8.1321    6.0107    0.0000 C   0  0  0  0  0  0  0  0  0  0  0  0
   -8.8466    4.7732    0.0000 C   0  0  0  0  0  0  0  0  0  0  0  0
  1  2  1  0
  2  3  1  0
  3  4  2  0
  3  5  1  0
  6  5  1  0
  6  7  1  0
  6  8  1  0
  8  9  1  0
  8 10  1  0
  7 11  1  0
  7 12  2  0
 13 11  1  0
 13 14  1  0
 13 15  1  0
 15 16  1  0
 15 17  1  0
 17 18  1  0
 17 19  1  0
 18 20  1  0
 20 21  2  3
 21 22  1  0
 22 23  1  0
 14 24  1  0
 14 25  2  0
 26 24  1  0
 26 27  1  0
 26 28  1  0
 28 29  1  0
 27 30  1  0
 27 31  2  0
 32 30  1  0
 30 35  1  0
 32 33  1  0
 33 34  1  0
 34 35  1  0
 32 36  1  0
  1 37  1  0
  1 38  1  0
 38 39  2  0
 38 40  1  0
 40 41  1  0
 41 42  1  0
 42 43  1  0
 42 44  2  0
 40 45  1  0
 45 46  1  0
 46 47  1  0
 46 48  1  0
 43 49  1  0
 43 50  1  0
 49 51  1  0
 51 52  1  0
 52 53  1  0
 51 54  2  0
 52 55  1  0
 53 56  1  0
 56 57  1  0
 56 58  2  0
 57 59  1  0
 57 60  1  0
 59 61  1  0
 61 62  1  0
 62 63  1  0
 61 64  2  0
 62 65  1  0
 65 66  1  0
 65 67  1  0
 60 68  1  0
 68 69  1  0
 68 70  1  0
 63 71  1  0
 71 72  2  0
 71 73  1  0
 73 74  1  0
 73 75  1  0
 75 76  1  0
 76 77  1  0
 76 78  1  0
 74 79  1  0
 74 80  1  0
 80 81  2  0
  2 82  1  0
 82 83  1  0
 83 84  1  0
 83 85  1  0
M  END
>  <Classification>  (692) 
1

>  <pchembl>  (692) 
5.28

>  <InChI_steorem>  (692) 
InChI=1S/C62H111N11O12/c1-21-23-24-26-40(15)52(75)51(60(83)65-44(22-2)62(85)73-28-25-27-41(73)16)70-59(82)50(39(13)14)69-57(80)48(32-37(9)10)72(20)61(84)46(30-35(5)6)67-54(77)43(18)63-53(76)42(17)64-55(78)45(29-34(3)4)66-58(81)49(38(11)12)68-56(79)47(31-36(7)8)71(19)33-74/h23-24,33-52,75H,21-22,25-32H2,1-20H3,(H,63,76)(H,64,78)(H,65,83)(H,66,81)(H,67,77)(H,68,79)(H,69,80)(H,70,82)

>  <source>  (692) 
ChEMBL25

>  <source_id>  (692) 
25

>  <optional_reference>  (692) 
10.1021/jm0109863

>  <optional_origin>  (692) 
None

>  <target>  (692) 
MDR1

$$$$

     RDKit          2D

 85 85  0  0  0  0  0  0  0  0999 V2000
    2.2981    2.6772    0.0000 N   0  0  0  0  0  0  0  0  0  0  0  0
    1.6736    2.1381    0.0000 C   0  0  0  0  0  0  0  0  0  0  0  0
    0.3437    1.4121    0.0000 N   0  0  0  0  0  0  0  0  0  0  0  0
    3.0038    2.2498    0.0000 C   0  0  0  0  0  0  0  0  0  0  0  0
    0.7412    0.6891    0.0000 C   0  0  0  0  0  0  0  0  0  0  0  0
    0.7113   -0.7395    0.0000 N   0  0  0  0  0  0  0  0  0  0  0  0
    0.2839   -1.4452    0.0000 C   0  0  0  0  0  0  0  0  0  0  0  0
    0.2541   -2.8738    0.0000 N   0  0  0  0  0  0  0  0  0  0  0  0
    2.8154    1.4466    0.0000 C   0  0  0  0  0  0  0  0  0  0  0  0
    1.8141   -7.1942    0.0000 N   0  0  0  0  0  0  0  0  0  0  0  0
    2.6389   -7.2115    0.0000 C   0  0  0  0  0  0  0  0  0  0  0  0
    3.0961   -5.0771    0.0000 C   0  0  0  0  0  0  0  0  0  0  0  0
    2.6688   -5.7828    0.0000 N   0  0  0  0  0  0  0  0  0  0  0  0
    0.3138   -0.0166    0.0000 C   0  0  0  0  0  0  0  0  0  0  0  0
    0.6814   -2.1681    0.0000 C   0  0  0  0  0  0  0  0  0  0  0  0
    0.6515   -3.5968    0.0000 C   0  0  0  0  0  0  0  0  0  0  0  0
    3.1260   -3.6485    0.0000 N   0  0  0  0  0  0  0  0  0  0  0  0
    0.7710    2.1177    0.0000 C   0  0  0  0  0  0  0  0  0  0  0  0
    0.5619   -7.8827    0.0000 C   0  0  0  0  0  0  0  0  0  0  0  0
    2.7285   -2.9256    0.0000 C   0  0  0  0  0  0  0  0  0  0  0  0
    3.2156    0.6374    0.0000 N   0  0  0  0  0  0  0  0  0  0  0  0
    2.7584   -1.4969    0.0000 N   0  0  0  0  0  0  0  0  0  0  0  0
    1.3867   -7.8999    0.0000 C   0  0  0  0  0  0  0  0  0  0  0  0
    3.0663   -6.5058    0.0000 C   0  0  0  0  0  0  0  0  0  0  0  0
    3.1858   -0.7913    0.0000 C   0  0  0  0  0  0  0  0  0  0  0  0
    0.1644   -7.1597    0.0000 N   0  0  0  0  0  0  0  0  0  0  0  0
    0.6217   -5.0254    0.0000 N   0  0  0  0  0  0  0  0  0  0  0  0
    0.1943   -5.7311    0.0000 C   0  0  0  0  0  0  0  0  0  0  0  0
    2.6987   -4.3542    0.0000 C   0  0  0  0  0  0  0  0  0  0  0  0
    0.2242   -4.3025    0.0000 C   0  0  0  0  0  0  0  0  0  0  0  0
    2.7883   -0.0683    0.0000 C   0  0  0  0  0  0  0  0  0  0  0  0
    3.1559   -2.2199    0.0000 C   0  0  0  0  0  0  0  0  0  0  0  0
    3.7643    2.5696    0.0000 C   0  0  0  0  0  0  0  0  0  0  0  0
    0.5918   -6.4540    0.0000 C   0  0  0  0  0  0  0  0  0  0  0  0
    1.9699    1.3681    0.0000 O   0  0  0  0  0  0  0  0  0  0  0  0
    1.5660    0.6719    0.0000 O   0  0  0  0  0  0  0  0  0  0  0  0
   -0.5409   -1.4280    0.0000 O   0  0  0  0  0  0  0  0  0  0  0  0
    3.0364   -7.9344    0.0000 O   0  0  0  0  0  0  0  0  0  0  0  0
    2.0650    1.1038    0.0000 O   0  0  0  0  0  0  0  0  0  0  0  0
    3.9209   -5.0944    0.0000 O   0  0  0  0  0  0  0  0  0  0  0  0
   -0.1434   -2.1509    0.0000 C   0  0  0  0  0  0  0  0  0  0  0  0
    1.4764   -3.6140    0.0000 O   0  0  0  0  0  0  0  0  0  0  0  0
   -0.5110    0.0007    0.0000 C   0  0  0  0  0  0  0  0  0  0  0  0
    0.1346   -8.5884    0.0000 O   0  0  0  0  0  0  0  0  0  0  0  0
    1.9037   -2.9083    0.0000 O   0  0  0  0  0  0  0  0  0  0  0  0
    4.0106   -0.8085    0.0000 O   0  0  0  0  0  0  0  0  0  0  0  0
    1.7842   -8.6228    0.0000 C   0  0  0  0  0  0  0  0  0  0  0  0
   -0.6305   -5.7138    0.0000 O   0  0  0  0  0  0  0  0  0  0  0  0
    0.3580    2.8319    0.0000 C   0  0  0  0  0  0  0  0  0  0  0  0
    3.8911   -6.5230    0.0000 C   0  0  0  0  0  0  0  0  0  0  0  0
    2.2290    3.4993    0.0000 C   0  0  0  0  0  0  0  0  0  0  0  0
   -0.4811    1.4293    0.0000 C   0  0  0  0  0  0  0  0  0  0  0  0
    5.8392    1.8917    0.0000 C   0  0  0  0  0  0  0  0  0  0  0  0
    5.7358    1.0732    0.0000 C   0  0  0  0  0  0  0  0  0  0  0  0
    3.5235   -4.3715    0.0000 C   0  0  0  0  0  0  0  0  0  0  0  0
    1.5361   -0.7568    0.0000 C   0  0  0  0  0  0  0  0  0  0  0  0
   -0.4234   -3.3447    0.0000 C   0  0  0  0  0  0  0  0  0  0  0  0
    1.4166   -6.4713    0.0000 C   0  0  0  0  0  0  0  0  0  0  0  0
    4.4215    2.0708    0.0000 C   0  0  0  0  0  0  0  0  0  0  0  0
    3.9508   -3.6658    0.0000 C   0  0  0  0  0  0  0  0  0  0  0  0
    3.8677    3.3881    0.0000 O   0  0  0  0  0  0  0  0  0  0  0  0
    1.9336   -1.4797    0.0000 C   0  0  0  0  0  0  0  0  0  0  0  0
    3.6131   -0.0856    0.0000 C   0  0  0  0  0  0  0  0  0  0  0  0
   -0.6006   -4.2852    0.0000 C   0  0  0  0  0  0  0  0  0  0  0  0
    5.1820    2.3905    0.0000 C   0  0  0  0  0  0  0  0  0  0  0  0
   -0.5707   -2.8566    0.0000 C   0  0  0  0  0  0  0  0  0  0  0  0
   -0.9085    0.7236    0.0000 C   0  0  0  0  0  0  0  0  0  0  0  0
    1.3569   -9.3285    0.0000 C   0  0  0  0  0  0  0  0  0  0  0  0
    1.2692   -5.9832    0.0000 C   0  0  0  0  0  0  0  0  0  0  0  0
    6.3929    0.5744    0.0000 C   0  0  0  0  0  0  0  0  0  0  0  0
    4.3184   -5.8173    0.0000 C   0  0  0  0  0  0  0  0  0  0  0  0
    0.7699    3.5467    0.0000 C   0  0  0  0  0  0  0  0  0  0  0  0
   -0.4670    2.8312    0.0000 C   0  0  0  0  0  0  0  0  0  0  0  0
    4.2885   -7.2460    0.0000 C   0  0  0  0  0  0  0  0  0  0  0  0
    4.2840   -4.0517    0.0000 C   0  0  0  0  0  0  0  0  0  0  0  0
    4.2700   -4.7227    0.0000 C   0  0  0  0  0  0  0  0  0  0  0  0
    4.3181    1.2523    0.0000 C   0  0  0  0  0  0  0  0  0  0  0  0
    1.7543  -10.0515    0.0000 C   0  0  0  0  0  0  0  0  0  0  0  0
   -0.6741   -3.6751    0.0000 C   0  0  0  0  0  0  0  0  0  0  0  0
   -1.3956   -2.8393    0.0000 C   0  0  0  0  0  0  0  0  0  0  0  0
    0.5320   -9.3113    0.0000 C   0  0  0  0  0  0  0  0  0  0  0  0
   -1.7333    0.7409    0.0000 C   0  0  0  0  0  0  0  0  0  0  0  0
   -0.9775    1.5457    0.0000 C   0  0  0  0  0  0  0  0  0  0  0  0
    4.0404    0.6201    0.0000 C   0  0  0  0  0  0  0  0  0  0  0  0
    7.1535    0.8942    0.0000 C   0  0  0  0  0  0  0  0  0  0  0  0
  2  1  1  0
  3 18  1  0
  4  1  1  0
  5  3  1  0
  6 14  1  0
  7  6  1  0
  8 15  1  0
  9  4  1  0
 10 11  1  0
 11 24  1  0
 12 29  1  0
 13 12  1  0
 14  5  1  0
 15  7  1  0
 16  8  1  0
 17 20  1  0
 18  2  1  0
 19 26  1  0
 20 32  1  0
 21  9  1  0
 22 25  1  0
 23 10  1  0
 24 13  1  0
 25 31  1  0
 26 34  1  0
 27 30  1  0
 28 27  1  0
 29 17  1  0
 30 16  1  0
 31 21  1  0
 32 22  1  0
 33  4  1  0
 34 28  1  0
 35  2  2  0
 36  5  2  0
 37  7  2  0
 38 11  2  0
 39  9  2  0
 40 12  2  0
 15 41  1  0
 42 16  2  0
 14 43  1  0
 44 19  2  0
 45 20  2  0
 46 25  2  0
 23 47  1  0
 48 28  2  0
 18 49  1  0
 24 50  1  0
 51  1  1  0
 52  3  1  0
 53 65  1  0
 54 53  2  3
 29 55  1  0
 56  6  1  0
 57  8  1  0
 58 10  1  0
 59 33  1  0
 60 17  1  0
 33 61  1  0
 62 22  1  0
 31 63  1  0
 30 64  1  0
 65 59  1  0
 66 41  1  0
 67 43  1  0
 68 47  1  0
 34 69  1  0
 70 54  1  0
 71 50  1  0
 72 49  1  0
 73 49  1  0
 74 50  1  0
 75 55  1  0
 76 55  1  0
 59 77  1  0
 78 68  1  0
 79 66  1  0
 80 66  1  0
 81 68  1  0
 82 67  1  0
 83 67  1  0
 84 63  1  0
 85 70  1  0
 19 23  1  0
M  END
>  <Classification>  (693) 
0

>  <pchembl>  (693) 
4.96

>  <InChI_steorem>  (693) 
InChI=1S/C62H111N11O12/c1-25-27-28-29-40(15)52(75)51-56(79)65-43(26-2)58(81)67(18)33-47(74)71(22)49(38(11)12)55(78)66-48(37(9)10)61(84)68(19)44(30-34(3)4)54(77)63-41(16)53(76)64-42(17)57(80)69(20)45(31-35(5)6)59(82)70(21)46(32-36(7)8)60(83)72(23)50(39(13)14)62(85)73(51)24/h27-28,34-46,48-52,75H,25-26,29-33H2,1-24H3,(H,63,77)(H,64,76)(H,65,79)(H,66,78)

>  <source>  (693) 
ChEMBL25

>  <source_id>  (693) 
25

>  <optional_reference>  (693) 
10.1021/jm0109863

>  <optional_origin>  (693) 
None

>  <target>  (693) 
MDR1

$$$$

     RDKit          2D

 86 86  0  0  0  0  0  0  0  0999 V2000
    2.3059    2.6620    0.0000 N   0  0  0  0  0  0  0  0  0  0  0  0
    2.8232    1.4314    0.0000 C   0  0  0  0  0  0  0  0  0  0  0  0
    1.6814    2.1229    0.0000 C   0  0  0  0  0  0  0  0  0  0  0  0
    0.3515    1.3969    0.0000 N   0  0  0  0  0  0  0  0  0  0  0  0
    3.2234    0.6222    0.0000 N   0  0  0  0  0  0  0  0  0  0  0  0
    0.7490    0.6739    0.0000 C   0  0  0  0  0  0  0  0  0  0  0  0
    0.7191   -0.7547    0.0000 N   0  0  0  0  0  0  0  0  0  0  0  0
    0.1723   -7.1749    0.0000 N   0  0  0  0  0  0  0  0  0  0  0  0
    0.5697   -7.8978    0.0000 C   0  0  0  0  0  0  0  0  0  0  0  0
    0.7789    2.1026    0.0000 C   0  0  0  0  0  0  0  0  0  0  0  0
    0.3216   -0.0318    0.0000 C   0  0  0  0  0  0  0  0  0  0  0  0
    1.8219   -7.2094    0.0000 N   0  0  0  0  0  0  0  0  0  0  0  0
    2.7662   -1.5121    0.0000 N   0  0  0  0  0  0  0  0  0  0  0  0
    2.6766   -5.7980    0.0000 N   0  0  0  0  0  0  0  0  0  0  0  0
    0.2918   -1.4604    0.0000 C   0  0  0  0  0  0  0  0  0  0  0  0
    2.7364   -2.9408    0.0000 C   0  0  0  0  0  0  0  0  0  0  0  0
    3.1936   -0.8064    0.0000 C   0  0  0  0  0  0  0  0  0  0  0  0
    2.6467   -7.2266    0.0000 C   0  0  0  0  0  0  0  0  0  0  0  0
    3.0116    2.2347    0.0000 C   0  0  0  0  0  0  0  0  0  0  0  0
    0.2021   -5.7463    0.0000 C   0  0  0  0  0  0  0  0  0  0  0  0
    3.1338   -3.6637    0.0000 N   0  0  0  0  0  0  0  0  0  0  0  0
    3.1040   -5.0923    0.0000 C   0  0  0  0  0  0  0  0  0  0  0  0
    2.7961   -0.0835    0.0000 C   0  0  0  0  0  0  0  0  0  0  0  0
    0.5996   -6.4692    0.0000 C   0  0  0  0  0  0  0  0  0  0  0  0
    1.3946   -7.9151    0.0000 C   0  0  0  0  0  0  0  0  0  0  0  0
    3.0741   -6.5210    0.0000 C   0  0  0  0  0  0  0  0  0  0  0  0
    0.6295   -5.0406    0.0000 N   0  0  0  0  0  0  0  0  0  0  0  0
    3.1637   -2.2351    0.0000 C   0  0  0  0  0  0  0  0  0  0  0  0
    0.2619   -2.8890    0.0000 N   0  0  0  0  0  0  0  0  0  0  0  0
    0.6594   -3.6120    0.0000 C   0  0  0  0  0  0  0  0  0  0  0  0
    0.6892   -2.1833    0.0000 C   0  0  0  0  0  0  0  0  0  0  0  0
    2.7065   -4.3694    0.0000 C   0  0  0  0  0  0  0  0  0  0  0  0
    0.2320   -4.3176    0.0000 C   0  0  0  0  0  0  0  0  0  0  0  0
    2.0036    1.3372    0.0000 O   0  0  0  0  0  0  0  0  0  0  0  0
    1.7253    1.2991    0.0000 O   0  0  0  0  0  0  0  0  0  0  0  0
    1.5738    0.6567    0.0000 O   0  0  0  0  0  0  0  0  0  0  0  0
    0.1424   -8.6035    0.0000 O   0  0  0  0  0  0  0  0  0  0  0  0
   -0.5331   -1.4431    0.0000 O   0  0  0  0  0  0  0  0  0  0  0  0
   -0.5032   -0.0145    0.0000 C   0  0  0  0  0  0  0  0  0  0  0  0
    0.3658    2.8167    0.0000 C   0  0  0  0  0  0  0  0  0  0  0  0
    1.9115   -2.9235    0.0000 O   0  0  0  0  0  0  0  0  0  0  0  0
    3.0442   -7.9496    0.0000 O   0  0  0  0  0  0  0  0  0  0  0  0
    4.0184   -0.8237    0.0000 O   0  0  0  0  0  0  0  0  0  0  0  0
   -0.6227   -5.7290    0.0000 O   0  0  0  0  0  0  0  0  0  0  0  0
    3.9288   -5.1096    0.0000 O   0  0  0  0  0  0  0  0  0  0  0  0
   -0.2252   -6.4520    0.0000 C   0  0  0  0  0  0  0  0  0  0  0  0
    3.6209   -0.1007    0.0000 C   0  0  0  0  0  0  0  0  0  0  0  0
    3.8989   -6.5382    0.0000 C   0  0  0  0  0  0  0  0  0  0  0  0
    1.4842   -3.6292    0.0000 O   0  0  0  0  0  0  0  0  0  0  0  0
    3.7721    2.5544    0.0000 C   0  0  0  0  0  0  0  0  0  0  0  0
    1.7920   -8.6380    0.0000 C   0  0  0  0  0  0  0  0  0  0  0  0
    3.9885   -2.2523    0.0000 C   0  0  0  0  0  0  0  0  0  0  0  0
    2.2369    3.4841    0.0000 C   0  0  0  0  0  0  0  0  0  0  0  0
    5.3004    1.2934    0.0000 C   0  0  0  0  0  0  0  0  0  0  0  0
    6.1253    1.2761    0.0000 C   0  0  0  0  0  0  0  0  0  0  0  0
    3.9109    1.0782    0.0000 C   0  0  0  0  0  0  0  0  0  0  0  0
   -0.4733    1.4141    0.0000 C   0  0  0  0  0  0  0  0  0  0  0  0
    1.5439   -0.7719    0.0000 C   0  0  0  0  0  0  0  0  0  0  0  0
   -0.5052   -7.6458    0.0000 C   0  0  0  0  0  0  0  0  0  0  0  0
    1.8518   -5.7808    0.0000 C   0  0  0  0  0  0  0  0  0  0  0  0
    3.9586   -3.6809    0.0000 C   0  0  0  0  0  0  0  0  0  0  0  0
    1.5141   -2.2006    0.0000 C   0  0  0  0  0  0  0  0  0  0  0  0
    4.0483    0.6049    0.0000 C   0  0  0  0  0  0  0  0  0  0  0  0
   -0.4592    2.8160    0.0000 C   0  0  0  0  0  0  0  0  0  0  0  0
   -0.9006    0.7084    0.0000 C   0  0  0  0  0  0  0  0  0  0  0  0
    4.2964   -7.2611    0.0000 C   0  0  0  0  0  0  0  0  0  0  0  0
   -0.6525   -7.1577    0.0000 C   0  0  0  0  0  0  0  0  0  0  0  0
   -0.5928   -4.3004    0.0000 C   0  0  0  0  0  0  0  0  0  0  0  0
    4.8731    0.5877    0.0000 C   0  0  0  0  0  0  0  0  0  0  0  0
    6.5526    1.9818    0.0000 C   0  0  0  0  0  0  0  0  0  0  0  0
    1.3647   -9.3437    0.0000 C   0  0  0  0  0  0  0  0  0  0  0  0
    3.8755    3.3729    0.0000 C   0  0  0  0  0  0  0  0  0  0  0  0
    4.4293    2.0556    0.0000 C   0  0  0  0  0  0  0  0  0  0  0  0
    4.4159   -1.5466    0.0000 C   0  0  0  0  0  0  0  0  0  0  0  0
    2.6169   -8.6553    0.0000 C   0  0  0  0  0  0  0  0  0  0  0  0
    4.3860   -2.9753    0.0000 C   0  0  0  0  0  0  0  0  0  0  0  0
   -1.7255    0.7257    0.0000 C   0  0  0  0  0  0  0  0  0  0  0  0
   -0.9697    1.5305    0.0000 C   0  0  0  0  0  0  0  0  0  0  0  0
    5.1212   -7.2784    0.0000 C   0  0  0  0  0  0  0  0  0  0  0  0
    3.8690   -7.9668    0.0000 C   0  0  0  0  0  0  0  0  0  0  0  0
   -0.8711    2.1012    0.0000 C   0  0  0  0  0  0  0  0  0  0  0  0
   -0.7559   -7.9762    0.0000 C   0  0  0  0  0  0  0  0  0  0  0  0
   -1.4774   -7.1404    0.0000 C   0  0  0  0  0  0  0  0  0  0  0  0
   -0.8723    3.5302    0.0000 C   0  0  0  0  0  0  0  0  0  0  0  0
    4.1516    1.4234    0.0000 C   0  0  0  0  0  0  0  0  0  0  0  0
    6.1551    2.7048    0.0000 C   0  0  0  0  0  0  0  0  0  0  0  0
  2 19  1  0
  3  1  1  0
  4 10  1  0
  5  2  1  0
  6  4  1  0
  7 11  1  0
  8 24  1  0
  9  8  1  0
 10  3  1  0
 11  6  1  0
 12 18  1  0
 13 17  1  0
 14 22  1  0
 15  7  1  0
 16 28  1  0
 17 23  1  0
 18 26  1  0
 19  1  1  0
 20 27  1  0
 21 16  1  0
 22 32  1  0
 23  5  1  0
 24 20  1  0
 25 12  1  0
 26 14  1  0
 27 33  1  0
 28 13  1  0
 29 31  1  0
 30 29  1  0
 31 15  1  0
 32 21  1  0
 33 30  1  0
 34  2  2  0
 35  3  2  0
 36  6  2  0
 37  9  2  0
 38 15  2  0
 11 39  1  0
 10 40  1  0
 41 16  2  0
 42 18  2  0
 43 17  2  0
 44 20  2  0
 45 22  2  0
 24 46  1  0
 23 47  1  0
 26 48  1  0
 49 30  2  0
 19 50  1  0
 25 51  1  0
 28 52  1  0
 53  1  1  0
 54 69  1  0
 55 54  2  3
 56  5  1  0
 57  4  1  0
 58  7  1  0
 59  8  1  0
 60 14  1  0
 61 21  1  0
 31 62  1  0
 63 47  1  0
 64 40  1  0
 65 39  1  0
 66 48  1  0
 67 46  1  0
 33 68  1  0
 69 63  1  0
 70 55  1  0
 71 51  1  0
 72 50  1  0
 73 50  1  0
 74 52  1  0
 75 51  1  0
 76 52  1  0
 77 65  1  0
 78 65  1  0
 79 66  1  0
 80 66  1  0
 81 64  1  0
 82 67  1  0
 83 67  1  0
 84 64  1  0
 63 85  1  0
 86 70  1  0
  9 25  1  0
M  END
>  <Classification>  (694) 
1

>  <pchembl>  (694) 
5.57

>  <InChI_steorem>  (694) 
InChI=1S/C64H115N11O11/c1-26-27-28-29-43(16)34-48-58(80)67-52(40(10)11)62(84)69(19)35-51(76)70(20)46(30-36(2)3)57(79)68-53(41(12)13)63(85)71(21)47(31-37(4)5)56(78)65-44(17)55(77)66-45(18)59(81)73(23)49(32-38(6)7)60(82)74(24)50(33-39(8)9)61(83)75(25)54(42(14)15)64(86)72(48)22/h27-28,36-50,52-54H,26,29-35H2,1-25H3,(H,65,78)(H,66,77)(H,67,80)(H,68,79)

>  <source>  (694) 
ChEMBL25

>  <source_id>  (694) 
25

>  <optional_reference>  (694) 
10.1021/jm0109863

>  <optional_origin>  (694) 
None

>  <target>  (694) 
MDR1

$$$$

     RDKit          2D

 84 84  0  0  0  0  0  0  0  0999 V2000
    2.3104    2.8806    0.0000 N   0  0  0  0  0  0  0  0  0  0  0  0
    1.6859    2.3415    0.0000 C   0  0  0  0  0  0  0  0  0  0  0  0
    0.3560    1.6155    0.0000 N   0  0  0  0  0  0  0  0  0  0  0  0
    3.0161    2.4533    0.0000 C   0  0  0  0  0  0  0  0  0  0  0  0
    0.7535    0.8926    0.0000 C   0  0  0  0  0  0  0  0  0  0  0  0
    0.7236   -0.5361    0.0000 N   0  0  0  0  0  0  0  0  0  0  0  0
    0.2962   -1.2418    0.0000 C   0  0  0  0  0  0  0  0  0  0  0  0
    0.2664   -2.6704    0.0000 N   0  0  0  0  0  0  0  0  0  0  0  0
    2.8277    1.6501    0.0000 C   0  0  0  0  0  0  0  0  0  0  0  0
    1.8264   -6.9908    0.0000 N   0  0  0  0  0  0  0  0  0  0  0  0
    2.6512   -7.0080    0.0000 C   0  0  0  0  0  0  0  0  0  0  0  0
    0.3261    0.1869    0.0000 C   0  0  0  0  0  0  0  0  0  0  0  0
    0.6937   -1.9647    0.0000 C   0  0  0  0  0  0  0  0  0  0  0  0
    2.6811   -5.5794    0.0000 N   0  0  0  0  0  0  0  0  0  0  0  0
    0.6638   -3.3933    0.0000 C   0  0  0  0  0  0  0  0  0  0  0  0
    0.7833    2.3212    0.0000 C   0  0  0  0  0  0  0  0  0  0  0  0
    3.1084   -4.8737    0.0000 C   0  0  0  0  0  0  0  0  0  0  0  0
    0.5742   -7.6792    0.0000 C   0  0  0  0  0  0  0  0  0  0  0  0
    3.2279    0.8408    0.0000 N   0  0  0  0  0  0  0  0  0  0  0  0
    1.3990   -7.6965    0.0000 C   0  0  0  0  0  0  0  0  0  0  0  0
    2.7707   -1.2935    0.0000 N   0  0  0  0  0  0  0  0  0  0  0  0
    3.0786   -6.3023    0.0000 C   0  0  0  0  0  0  0  0  0  0  0  0
    3.1981   -0.5878    0.0000 C   0  0  0  0  0  0  0  0  0  0  0  0
    0.1767   -6.9563    0.0000 N   0  0  0  0  0  0  0  0  0  0  0  0
    0.6340   -4.8220    0.0000 N   0  0  0  0  0  0  0  0  0  0  0  0
    0.2066   -5.5276    0.0000 C   0  0  0  0  0  0  0  0  0  0  0  0
    3.1383   -3.4451    0.0000 N   0  0  0  0  0  0  0  0  0  0  0  0
    2.7110   -4.1508    0.0000 C   0  0  0  0  0  0  0  0  0  0  0  0
    0.2365   -4.0990    0.0000 C   0  0  0  0  0  0  0  0  0  0  0  0
    2.7408   -2.7221    0.0000 C   0  0  0  0  0  0  0  0  0  0  0  0
    2.8006    0.1351    0.0000 C   0  0  0  0  0  0  0  0  0  0  0  0
    3.7766    2.7730    0.0000 C   0  0  0  0  0  0  0  0  0  0  0  0
    0.6041   -6.2506    0.0000 C   0  0  0  0  0  0  0  0  0  0  0  0
    3.1682   -2.0164    0.0000 C   0  0  0  0  0  0  0  0  0  0  0  0
    1.9822    1.5716    0.0000 O   0  0  0  0  0  0  0  0  0  0  0  0
    1.5783    0.8753    0.0000 O   0  0  0  0  0  0  0  0  0  0  0  0
   -0.5286   -1.2245    0.0000 O   0  0  0  0  0  0  0  0  0  0  0  0
    3.0487   -7.7310    0.0000 O   0  0  0  0  0  0  0  0  0  0  0  0
    2.0773    1.3072    0.0000 O   0  0  0  0  0  0  0  0  0  0  0  0
   -0.1311   -1.9474    0.0000 C   0  0  0  0  0  0  0  0  0  0  0  0
    1.4887   -3.4106    0.0000 O   0  0  0  0  0  0  0  0  0  0  0  0
   -0.4987    0.2041    0.0000 C   0  0  0  0  0  0  0  0  0  0  0  0
    3.9332   -4.8909    0.0000 O   0  0  0  0  0  0  0  0  0  0  0  0
    0.1469   -8.3849    0.0000 O   0  0  0  0  0  0  0  0  0  0  0  0
    4.0229   -0.6051    0.0000 O   0  0  0  0  0  0  0  0  0  0  0  0
    1.7965   -8.4194    0.0000 C   0  0  0  0  0  0  0  0  0  0  0  0
   -0.6182   -5.5104    0.0000 O   0  0  0  0  0  0  0  0  0  0  0  0
    1.9160   -2.7049    0.0000 O   0  0  0  0  0  0  0  0  0  0  0  0
    0.3703    3.0353    0.0000 C   0  0  0  0  0  0  0  0  0  0  0  0
    3.9034   -6.3196    0.0000 C   0  0  0  0  0  0  0  0  0  0  0  0
    2.2413    3.7027    0.0000 C   0  0  0  0  0  0  0  0  0  0  0  0
    5.8515    2.0952    0.0000 C   0  0  0  0  0  0  0  0  0  0  0  0
   -0.4688    1.6327    0.0000 C   0  0  0  0  0  0  0  0  0  0  0  0
    5.7481    1.2767    0.0000 C   0  0  0  0  0  0  0  0  0  0  0  0
    3.5358   -4.1680    0.0000 C   0  0  0  0  0  0  0  0  0  0  0  0
    1.5484   -0.5533    0.0000 C   0  0  0  0  0  0  0  0  0  0  0  0
   -0.4111   -3.1413    0.0000 C   0  0  0  0  0  0  0  0  0  0  0  0
    1.4289   -6.2678    0.0000 C   0  0  0  0  0  0  0  0  0  0  0  0
    4.4338    2.2742    0.0000 C   0  0  0  0  0  0  0  0  0  0  0  0
    3.8800    3.5915    0.0000 O   0  0  0  0  0  0  0  0  0  0  0  0
    1.9459   -1.2763    0.0000 C   0  0  0  0  0  0  0  0  0  0  0  0
    3.6254    0.1179    0.0000 C   0  0  0  0  0  0  0  0  0  0  0  0
   -0.5883   -4.0818    0.0000 C   0  0  0  0  0  0  0  0  0  0  0  0
    5.1943    2.5939    0.0000 C   0  0  0  0  0  0  0  0  0  0  0  0
   -0.8962    0.9271    0.0000 C   0  0  0  0  0  0  0  0  0  0  0  0
   -0.5584   -2.6531    0.0000 C   0  0  0  0  0  0  0  0  0  0  0  0
    1.3692   -9.1251    0.0000 C   0  0  0  0  0  0  0  0  0  0  0  0
    1.2815   -5.7797    0.0000 C   0  0  0  0  0  0  0  0  0  0  0  0
    6.4052    0.7779    0.0000 C   0  0  0  0  0  0  0  0  0  0  0  0
    3.9631   -3.4623    0.0000 C   0  0  0  0  0  0  0  0  0  0  0  0
    4.3307   -5.6139    0.0000 C   0  0  0  0  0  0  0  0  0  0  0  0
    4.3008   -7.0425    0.0000 C   0  0  0  0  0  0  0  0  0  0  0  0
    0.7822    3.7501    0.0000 C   0  0  0  0  0  0  0  0  0  0  0  0
   -0.4547    3.0347    0.0000 C   0  0  0  0  0  0  0  0  0  0  0  0
    4.2823   -4.5193    0.0000 C   0  0  0  0  0  0  0  0  0  0  0  0
    4.3304    1.4557    0.0000 C   0  0  0  0  0  0  0  0  0  0  0  0
   -0.6618   -3.4716    0.0000 C   0  0  0  0  0  0  0  0  0  0  0  0
   -1.7210    0.9443    0.0000 C   0  0  0  0  0  0  0  0  0  0  0  0
   -0.9652    1.7492    0.0000 C   0  0  0  0  0  0  0  0  0  0  0  0
   -1.3833   -2.6359    0.0000 C   0  0  0  0  0  0  0  0  0  0  0  0
    1.7666   -9.8480    0.0000 C   0  0  0  0  0  0  0  0  0  0  0  0
    0.5443   -9.1078    0.0000 C   0  0  0  0  0  0  0  0  0  0  0  0
    4.0527    0.8236    0.0000 C   0  0  0  0  0  0  0  0  0  0  0  0
    4.7879   -3.4796    0.0000 C   0  0  0  0  0  0  0  0  0  0  0  0
  2  1  1  0
  3 16  1  0
  4  1  1  0
  5  3  1  0
  6 12  1  0
  7  6  1  0
  8 13  1  0
  9  4  1  0
 10 11  1  0
 11 22  1  0
 12  5  1  0
 13  7  1  0
 14 17  1  0
 15  8  1  0
 16  2  1  0
 17 28  1  0
 18 24  1  0
 19  9  1  0
 20 10  1  0
 21 23  1  0
 22 14  1  0
 23 31  1  0
 24 33  1  0
 25 29  1  0
 26 25  1  0
 27 30  1  0
 28 27  1  0
 29 15  1  0
 30 34  1  0
 31 19  1  0
 32  4  1  0
 33 26  1  0
 34 21  1  0
 35  2  2  0
 36  5  2  0
 37  7  2  0
 38 11  2  0
 39  9  2  0
 13 40  1  0
 41 15  2  0
 12 42  1  0
 43 17  2  0
 44 18  2  0
 45 23  2  0
 20 46  1  0
 47 26  2  0
 48 30  2  0
 16 49  1  0
 22 50  1  0
 51  1  1  0
 52 64  1  0
 53  3  1  0
 54 52  2  3
 28 55  1  0
 56  6  1  0
 57  8  1  0
 58 10  1  0
 59 32  1  0
 32 60  1  0
 61 21  1  0
 31 62  1  0
 29 63  1  0
 64 59  1  0
 65 42  1  0
 66 40  1  0
 67 46  1  0
 33 68  1  0
 69 54  1  0
 70 55  1  0
 71 50  1  0
 72 50  1  0
 73 49  1  0
 74 49  1  0
 55 75  1  0
 59 76  1  0
 77 66  1  0
 78 65  1  0
 79 65  1  0
 80 66  1  0
 81 67  1  0
 82 67  1  0
 83 62  1  0
 84 70  1  0
 18 20  1  0
M  END
>  <Classification>  (695) 
0

>  <pchembl>  (695) 
4.82

>  <InChI_steorem>  (695) 
InChI=1S/C61H109N11O12/c1-24-27-28-39(15)51(74)50-55(78)64-42(26-3)57(80)67(18)32-46(73)65-48(38(14)25-2)54(77)66-47(36(10)11)60(83)68(19)43(29-33(4)5)53(76)62-40(16)52(75)63-41(17)56(79)69(20)44(30-34(6)7)58(81)70(21)45(31-35(8)9)59(82)71(22)49(37(12)13)61(84)72(50)23/h24,27,33-45,47-51,74H,25-26,28-32H2,1-23H3,(H,62,76)(H,63,75)(H,64,78)(H,65,73)(H,66,77)

>  <source>  (695) 
ChEMBL25

>  <source_id>  (695) 
25

>  <optional_reference>  (695) 
10.1021/jm0109863

>  <optional_origin>  (695) 
None

>  <target>  (695) 
MDR1

$$$$

     RDKit          2D

 85 85  0  0  0  0  0  0  0  0999 V2000
    2.3603    2.7649    0.0000 N   0  0  0  0  0  0  0  0  0  0  0  0
    1.7358    2.2258    0.0000 C   0  0  0  0  0  0  0  0  0  0  0  0
    0.4059    1.4997    0.0000 N   0  0  0  0  0  0  0  0  0  0  0  0
    3.0660    2.3375    0.0000 C   0  0  0  0  0  0  0  0  0  0  0  0
    2.8776    1.5343    0.0000 C   0  0  0  0  0  0  0  0  0  0  0  0
    1.8763   -7.1065    0.0000 N   0  0  0  0  0  0  0  0  0  0  0  0
    2.7011   -7.1238    0.0000 C   0  0  0  0  0  0  0  0  0  0  0  0
    0.3163   -2.7861    0.0000 N   0  0  0  0  0  0  0  0  0  0  0  0
    0.8034    0.7768    0.0000 C   0  0  0  0  0  0  0  0  0  0  0  0
    2.7310   -5.6951    0.0000 N   0  0  0  0  0  0  0  0  0  0  0  0
    3.1882   -3.5608    0.0000 N   0  0  0  0  0  0  0  0  0  0  0  0
    0.7137   -3.5091    0.0000 C   0  0  0  0  0  0  0  0  0  0  0  0
    3.1583   -4.9895    0.0000 C   0  0  0  0  0  0  0  0  0  0  0  0
    0.8332    2.2054    0.0000 C   0  0  0  0  0  0  0  0  0  0  0  0
    0.3461   -1.3575    0.0000 C   0  0  0  0  0  0  0  0  0  0  0  0
    0.6241   -7.7950    0.0000 C   0  0  0  0  0  0  0  0  0  0  0  0
    2.7907   -2.8379    0.0000 C   0  0  0  0  0  0  0  0  0  0  0  0
    0.7735   -0.6518    0.0000 N   0  0  0  0  0  0  0  0  0  0  0  0
    3.2778    0.7251    0.0000 N   0  0  0  0  0  0  0  0  0  0  0  0
    2.8206   -1.4093    0.0000 N   0  0  0  0  0  0  0  0  0  0  0  0
    1.4489   -7.8122    0.0000 C   0  0  0  0  0  0  0  0  0  0  0  0
    0.7436   -2.0805    0.0000 C   0  0  0  0  0  0  0  0  0  0  0  0
    3.1285   -6.4181    0.0000 C   0  0  0  0  0  0  0  0  0  0  0  0
    2.7609   -4.2665    0.0000 C   0  0  0  0  0  0  0  0  0  0  0  0
    3.2479   -0.7036    0.0000 C   0  0  0  0  0  0  0  0  0  0  0  0
    0.2266   -7.0720    0.0000 N   0  0  0  0  0  0  0  0  0  0  0  0
    0.6839   -4.9377    0.0000 N   0  0  0  0  0  0  0  0  0  0  0  0
    0.3760    0.0711    0.0000 C   0  0  0  0  0  0  0  0  0  0  0  0
    0.2565   -5.6434    0.0000 C   0  0  0  0  0  0  0  0  0  0  0  0
    0.2864   -4.2148    0.0000 C   0  0  0  0  0  0  0  0  0  0  0  0
    2.8505    0.0194    0.0000 C   0  0  0  0  0  0  0  0  0  0  0  0
    3.2181   -2.1322    0.0000 C   0  0  0  0  0  0  0  0  0  0  0  0
    3.8265    2.6572    0.0000 C   0  0  0  0  0  0  0  0  0  0  0  0
    0.6540   -6.3663    0.0000 C   0  0  0  0  0  0  0  0  0  0  0  0
    2.0321    1.4558    0.0000 O   0  0  0  0  0  0  0  0  0  0  0  0
    3.0986   -7.8467    0.0000 O   0  0  0  0  0  0  0  0  0  0  0  0
    2.1272    1.1914    0.0000 O   0  0  0  0  0  0  0  0  0  0  0  0
    1.6282    0.7596    0.0000 O   0  0  0  0  0  0  0  0  0  0  0  0
    1.5386   -3.5263    0.0000 O   0  0  0  0  0  0  0  0  0  0  0  0
    3.9831   -5.0067    0.0000 O   0  0  0  0  0  0  0  0  0  0  0  0
    0.1968   -8.5007    0.0000 O   0  0  0  0  0  0  0  0  0  0  0  0
   -0.4787   -1.3403    0.0000 O   0  0  0  0  0  0  0  0  0  0  0  0
    1.9659   -2.8206    0.0000 O   0  0  0  0  0  0  0  0  0  0  0  0
    4.0728   -0.7208    0.0000 O   0  0  0  0  0  0  0  0  0  0  0  0
   -0.0812   -2.0632    0.0000 C   0  0  0  0  0  0  0  0  0  0  0  0
    1.8464   -8.5352    0.0000 C   0  0  0  0  0  0  0  0  0  0  0  0
    3.5857   -4.2838    0.0000 C   0  0  0  0  0  0  0  0  0  0  0  0
   -0.4488    0.0884    0.0000 C   0  0  0  0  0  0  0  0  0  0  0  0
   -0.5683   -5.6262    0.0000 O   0  0  0  0  0  0  0  0  0  0  0  0
    0.4202    2.9196    0.0000 C   0  0  0  0  0  0  0  0  0  0  0  0
    3.9533   -6.4353    0.0000 C   0  0  0  0  0  0  0  0  0  0  0  0
    2.2912    3.5870    0.0000 C   0  0  0  0  0  0  0  0  0  0  0  0
    5.3476    3.2967    0.0000 C   0  0  0  0  0  0  0  0  0  0  0  0
    6.1081    3.6164    0.0000 C   0  0  0  0  0  0  0  0  0  0  0  0
   -0.4189    1.5170    0.0000 C   0  0  0  0  0  0  0  0  0  0  0  0
    1.4788   -6.3836    0.0000 C   0  0  0  0  0  0  0  0  0  0  0  0
   -0.3612   -3.2570    0.0000 C   0  0  0  0  0  0  0  0  0  0  0  0
    4.4837    2.1585    0.0000 C   0  0  0  0  0  0  0  0  0  0  0  0
    3.8656   -3.0900    0.0000 C   0  0  0  0  0  0  0  0  0  0  0  0
    3.9299    3.4757    0.0000 O   0  0  0  0  0  0  0  0  0  0  0  0
    1.9958   -1.3920    0.0000 C   0  0  0  0  0  0  0  0  0  0  0  0
    3.6753    0.0021    0.0000 C   0  0  0  0  0  0  0  0  0  0  0  0
   -0.5384   -4.1975    0.0000 C   0  0  0  0  0  0  0  0  0  0  0  0
    5.2442    2.4782    0.0000 C   0  0  0  0  0  0  0  0  0  0  0  0
    4.0130   -3.5781    0.0000 C   0  0  0  0  0  0  0  0  0  0  0  0
   -0.5086   -2.7689    0.0000 C   0  0  0  0  0  0  0  0  0  0  0  0
    1.4191   -9.2409    0.0000 C   0  0  0  0  0  0  0  0  0  0  0  0
   -0.8463    0.8113    0.0000 C   0  0  0  0  0  0  0  0  0  0  0  0
    1.3314   -5.8955    0.0000 C   0  0  0  0  0  0  0  0  0  0  0  0
    6.2115    4.4349    0.0000 C   0  0  0  0  0  0  0  0  0  0  0  0
    4.3806   -5.7296    0.0000 C   0  0  0  0  0  0  0  0  0  0  0  0
    4.3507   -7.1583    0.0000 C   0  0  0  0  0  0  0  0  0  0  0  0
    0.8321    3.6344    0.0000 C   0  0  0  0  0  0  0  0  0  0  0  0
   -0.4048    2.9189    0.0000 C   0  0  0  0  0  0  0  0  0  0  0  0
    4.3803    1.3400    0.0000 C   0  0  0  0  0  0  0  0  0  0  0  0
    4.1026    0.7078    0.0000 C   0  0  0  0  0  0  0  0  0  0  0  0
    1.8165   -9.9638    0.0000 C   0  0  0  0  0  0  0  0  0  0  0  0
    0.5942   -9.2236    0.0000 C   0  0  0  0  0  0  0  0  0  0  0  0
   -0.6119   -3.5874    0.0000 C   0  0  0  0  0  0  0  0  0  0  0  0
   -1.6711    0.8285    0.0000 C   0  0  0  0  0  0  0  0  0  0  0  0
    4.1164   -2.7596    0.0000 C   0  0  0  0  0  0  0  0  0  0  0  0
    4.8378   -3.5953    0.0000 C   0  0  0  0  0  0  0  0  0  0  0  0
   -0.9153    1.6334    0.0000 C   0  0  0  0  0  0  0  0  0  0  0  0
   -1.3334   -2.7516    0.0000 C   0  0  0  0  0  0  0  0  0  0  0  0
    4.9275    0.6906    0.0000 C   0  0  0  0  0  0  0  0  0  0  0  0
  2  1  1  0
  3 14  1  0
  4  1  1  0
  5  4  1  0
  6  7  1  0
  7 23  1  0
  8 22  1  0
  9  3  1  0
 10 13  1  0
 11 17  1  0
 12  8  1  0
 13 24  1  0
 14  2  1  0
 15 18  1  0
 16 26  1  0
 17 32  1  0
 18 28  1  0
 19  5  1  0
 20 25  1  0
 21  6  1  0
 22 15  1  0
 23 10  1  0
 24 11  1  0
 25 31  1  0
 26 34  1  0
 27 30  1  0
 28  9  1  0
 29 27  1  0
 30 12  1  0
 31 19  1  0
 32 20  1  0
 33  4  1  0
 34 29  1  0
 35  2  2  0
 36  7  2  0
 37  5  2  0
 38  9  2  0
 39 12  2  0
 40 13  2  0
 41 16  2  0
 42 15  2  0
 43 17  2  0
 44 25  2  0
 22 45  1  0
 21 46  1  0
 24 47  1  0
 28 48  1  0
 49 29  2  0
 14 50  1  0
 23 51  1  0
 52  1  1  0
 53 64  1  0
 54 53  2  3
 55  3  1  0
 56  6  1  0
 57  8  1  0
 58 33  1  0
 59 11  1  0
 33 60  1  0
 61 20  1  0
 31 62  1  0
 30 63  1  0
 64 58  1  0
 65 47  1  0
 66 45  1  0
 67 46  1  0
 68 48  1  0
 34 69  1  0
 70 54  1  0
 71 51  1  0
 72 51  1  0
 73 50  1  0
 74 50  1  0
 58 75  1  0
 76 62  1  0
 77 67  1  0
 78 67  1  0
 79 66  1  0
 80 68  1  0
 81 65  1  0
 82 65  1  0
 83 68  1  0
 84 66  1  0
 85 76  1  0
 16 21  1  0
M  END
>  <Classification>  (696) 
1

>  <pchembl>  (696) 
5.06

>  <InChI_steorem>  (696) 
InChI=1S/C62H111N11O12/c1-24-26-28-40(15)52(75)51-57(80)65-43(27-25-2)59(82)68(18)33-48(74)69(19)45(30-35(5)6)56(79)67-49(38(11)12)61(84)71(21)46(31-36(7)8)54(77)63-41(16)53(76)64-42(17)58(81)70(20)47(32-37(9)10)55(78)66-44(29-34(3)4)60(83)72(22)50(39(13)14)62(85)73(51)23/h24,26,34-47,49-52,75H,25,27-33H2,1-23H3,(H,63,77)(H,64,76)(H,65,80)(H,66,78)(H,67,79)

>  <source>  (696) 
ChEMBL25

>  <source_id>  (696) 
25

>  <optional_reference>  (696) 
10.1021/jm0109863

>  <optional_origin>  (696) 
None

>  <target>  (696) 
MDR1

$$$$

     RDKit          2D

 85 85  0  0  0  0  0  0  0  0999 V2000
    2.3630    2.8620    0.0000 N   0  0  0  0  0  0  0  0  0  0  0  0
    1.7385    2.3229    0.0000 C   0  0  0  0  0  0  0  0  0  0  0  0
    0.4086    1.5969    0.0000 N   0  0  0  0  0  0  0  0  0  0  0  0
    3.0687    2.4346    0.0000 C   0  0  0  0  0  0  0  0  0  0  0  0
    2.8803    1.6314    0.0000 C   0  0  0  0  0  0  0  0  0  0  0  0
    1.8790   -7.0094    0.0000 N   0  0  0  0  0  0  0  0  0  0  0  0
    2.7038   -7.0267    0.0000 C   0  0  0  0  0  0  0  0  0  0  0  0
    0.3189   -2.6890    0.0000 N   0  0  0  0  0  0  0  0  0  0  0  0
    3.2805    0.8222    0.0000 N   0  0  0  0  0  0  0  0  0  0  0  0
    0.8060    0.8739    0.0000 C   0  0  0  0  0  0  0  0  0  0  0  0
    2.7337   -5.5980    0.0000 N   0  0  0  0  0  0  0  0  0  0  0  0
    3.1909   -3.4637    0.0000 N   0  0  0  0  0  0  0  0  0  0  0  0
    3.2506   -0.6065    0.0000 C   0  0  0  0  0  0  0  0  0  0  0  0
    0.7164   -3.4120    0.0000 C   0  0  0  0  0  0  0  0  0  0  0  0
    3.1610   -4.8923    0.0000 C   0  0  0  0  0  0  0  0  0  0  0  0
    0.8359    2.3026    0.0000 C   0  0  0  0  0  0  0  0  0  0  0  0
    0.3488   -1.2604    0.0000 C   0  0  0  0  0  0  0  0  0  0  0  0
    0.6268   -7.6979    0.0000 C   0  0  0  0  0  0  0  0  0  0  0  0
    2.8233   -1.3121    0.0000 N   0  0  0  0  0  0  0  0  0  0  0  0
    2.7934   -2.7408    0.0000 C   0  0  0  0  0  0  0  0  0  0  0  0
    0.7762   -0.5547    0.0000 N   0  0  0  0  0  0  0  0  0  0  0  0
    1.4516   -7.7151    0.0000 C   0  0  0  0  0  0  0  0  0  0  0  0
    0.7463   -1.9833    0.0000 C   0  0  0  0  0  0  0  0  0  0  0  0
    3.1311   -6.3210    0.0000 C   0  0  0  0  0  0  0  0  0  0  0  0
    2.7635   -4.1694    0.0000 C   0  0  0  0  0  0  0  0  0  0  0  0
    2.8532    0.1165    0.0000 C   0  0  0  0  0  0  0  0  0  0  0  0
    0.2293   -6.9749    0.0000 N   0  0  0  0  0  0  0  0  0  0  0  0
    0.6865   -4.8406    0.0000 N   0  0  0  0  0  0  0  0  0  0  0  0
    0.3787    0.1682    0.0000 C   0  0  0  0  0  0  0  0  0  0  0  0
    0.2592   -5.5463    0.0000 C   0  0  0  0  0  0  0  0  0  0  0  0
    0.2891   -4.1177    0.0000 C   0  0  0  0  0  0  0  0  0  0  0  0
    3.2208   -2.0351    0.0000 C   0  0  0  0  0  0  0  0  0  0  0  0
    3.8292    2.7544    0.0000 C   0  0  0  0  0  0  0  0  0  0  0  0
    0.6567   -6.2692    0.0000 C   0  0  0  0  0  0  0  0  0  0  0  0
    2.0348    1.5529    0.0000 O   0  0  0  0  0  0  0  0  0  0  0  0
    2.1299    1.2886    0.0000 O   0  0  0  0  0  0  0  0  0  0  0  0
    3.1013   -7.7496    0.0000 O   0  0  0  0  0  0  0  0  0  0  0  0
    1.6309    0.8567    0.0000 O   0  0  0  0  0  0  0  0  0  0  0  0
    4.0754   -0.6237    0.0000 O   0  0  0  0  0  0  0  0  0  0  0  0
    1.5412   -3.4292    0.0000 O   0  0  0  0  0  0  0  0  0  0  0  0
    3.9858   -4.9096    0.0000 O   0  0  0  0  0  0  0  0  0  0  0  0
    0.1994   -8.4035    0.0000 O   0  0  0  0  0  0  0  0  0  0  0  0
   -0.4760   -1.2432    0.0000 O   0  0  0  0  0  0  0  0  0  0  0  0
    1.9686   -2.7235    0.0000 O   0  0  0  0  0  0  0  0  0  0  0  0
   -0.0785   -1.9661    0.0000 C   0  0  0  0  0  0  0  0  0  0  0  0
    1.8491   -8.4380    0.0000 C   0  0  0  0  0  0  0  0  0  0  0  0
    3.5884   -4.1867    0.0000 C   0  0  0  0  0  0  0  0  0  0  0  0
   -0.4461    0.1855    0.0000 C   0  0  0  0  0  0  0  0  0  0  0  0
   -0.5656   -5.5290    0.0000 O   0  0  0  0  0  0  0  0  0  0  0  0
    0.4228    3.0167    0.0000 C   0  0  0  0  0  0  0  0  0  0  0  0
    3.9559   -6.3382    0.0000 C   0  0  0  0  0  0  0  0  0  0  0  0
    3.6780    0.0992    0.0000 C   0  0  0  0  0  0  0  0  0  0  0  0
    2.2939    3.6841    0.0000 C   0  0  0  0  0  0  0  0  0  0  0  0
    5.9040    2.0765    0.0000 C   0  0  0  0  0  0  0  0  0  0  0  0
    5.8007    1.2580    0.0000 C   0  0  0  0  0  0  0  0  0  0  0  0
   -0.4162    1.6141    0.0000 C   0  0  0  0  0  0  0  0  0  0  0  0
    1.4815   -6.2865    0.0000 C   0  0  0  0  0  0  0  0  0  0  0  0
   -0.3585   -3.1599    0.0000 C   0  0  0  0  0  0  0  0  0  0  0  0
    4.4864    2.2556    0.0000 C   0  0  0  0  0  0  0  0  0  0  0  0
    3.8683   -2.9928    0.0000 C   0  0  0  0  0  0  0  0  0  0  0  0
    3.9326    3.5729    0.0000 O   0  0  0  0  0  0  0  0  0  0  0  0
    1.9985   -1.2949    0.0000 C   0  0  0  0  0  0  0  0  0  0  0  0
   -0.5357   -4.1004    0.0000 C   0  0  0  0  0  0  0  0  0  0  0  0
    5.2469    2.5753    0.0000 C   0  0  0  0  0  0  0  0  0  0  0  0
   -0.5059   -2.6718    0.0000 C   0  0  0  0  0  0  0  0  0  0  0  0
    4.0157   -3.4810    0.0000 C   0  0  0  0  0  0  0  0  0  0  0  0
    1.4217   -9.1437    0.0000 C   0  0  0  0  0  0  0  0  0  0  0  0
   -0.8436    0.9084    0.0000 C   0  0  0  0  0  0  0  0  0  0  0  0
    1.3341   -5.7984    0.0000 C   0  0  0  0  0  0  0  0  0  0  0  0
    6.4578    0.7593    0.0000 C   0  0  0  0  0  0  0  0  0  0  0  0
    4.1053    0.8049    0.0000 C   0  0  0  0  0  0  0  0  0  0  0  0
    4.3833   -5.6325    0.0000 C   0  0  0  0  0  0  0  0  0  0  0  0
    4.3534   -7.0612    0.0000 C   0  0  0  0  0  0  0  0  0  0  0  0
    0.8348    3.7315    0.0000 C   0  0  0  0  0  0  0  0  0  0  0  0
   -0.4022    3.0160    0.0000 C   0  0  0  0  0  0  0  0  0  0  0  0
    4.4245   -0.2520    0.0000 C   0  0  0  0  0  0  0  0  0  0  0  0
    4.3830    1.4371    0.0000 C   0  0  0  0  0  0  0  0  0  0  0  0
    1.8192   -9.8667    0.0000 C   0  0  0  0  0  0  0  0  0  0  0  0
   -0.6092   -3.4903    0.0000 C   0  0  0  0  0  0  0  0  0  0  0  0
   -1.6684    0.9257    0.0000 C   0  0  0  0  0  0  0  0  0  0  0  0
   -0.9127    1.7305    0.0000 C   0  0  0  0  0  0  0  0  0  0  0  0
   -1.3307   -2.6545    0.0000 C   0  0  0  0  0  0  0  0  0  0  0  0
    4.1191   -2.6625    0.0000 C   0  0  0  0  0  0  0  0  0  0  0  0
    4.8405   -3.4982    0.0000 C   0  0  0  0  0  0  0  0  0  0  0  0
    0.5969   -9.1265    0.0000 C   0  0  0  0  0  0  0  0  0  0  0  0
  2  1  1  0
  3 16  1  0
  4  1  1  0
  5  4  1  0
  6  7  1  0
  7 24  1  0
  8 23  1  0
  9  5  1  0
 10  3  1  0
 11 15  1  0
 12 20  1  0
 13 26  1  0
 14  8  1  0
 15 25  1  0
 16  2  1  0
 17 21  1  0
 18 27  1  0
 19 13  1  0
 20 32  1  0
 21 29  1  0
 22  6  1  0
 23 17  1  0
 24 11  1  0
 25 12  1  0
 26  9  1  0
 27 34  1  0
 28 31  1  0
 29 10  1  0
 30 28  1  0
 31 14  1  0
 32 19  1  0
 33  4  1  0
 34 30  1  0
 35  2  2  0
 36  5  2  0
 37  7  2  0
 38 10  2  0
 39 13  2  0
 40 14  2  0
 41 15  2  0
 42 18  2  0
 43 17  2  0
 44 20  2  0
 23 45  1  0
 22 46  1  0
 25 47  1  0
 29 48  1  0
 49 30  2  0
 16 50  1  0
 24 51  1  0
 26 52  1  0
 53  1  1  0
 54 64  1  0
 55 54  2  3
 56  3  1  0
 57  6  1  0
 58  8  1  0
 59 33  1  0
 60 12  1  0
 33 61  1  0
 62 19  1  0
 31 63  1  0
 64 59  1  0
 65 45  1  0
 66 47  1  0
 67 46  1  0
 68 48  1  0
 34 69  1  0
 70 55  1  0
 71 52  1  0
 72 51  1  0
 73 51  1  0
 74 50  1  0
 75 50  1  0
 76 52  1  0
 59 77  1  0
 78 67  1  0
 79 65  1  0
 80 68  1  0
 81 68  1  0
 82 65  1  0
 83 66  1  0
 84 66  1  0
 85 67  1  0
 18 22  1  0
M  END
>  <Classification>  (697) 
1

>  <pchembl>  (697) 
5.06

>  <InChI_steorem>  (697) 
InChI=1S/C62H111N11O12/c1-25-26-27-40(16)52(75)51-57(80)67-48(37(10)11)60(83)68(19)32-47(74)69(20)44(29-34(4)5)56(79)66-49(38(12)13)61(84)71(22)45(30-35(6)7)54(77)63-41(17)53(76)64-42(18)58(81)70(21)46(31-36(8)9)55(78)65-43(28-33(2)3)59(82)72(23)50(39(14)15)62(85)73(51)24/h25-26,33-46,48-52,75H,27-32H2,1-24H3,(H,63,77)(H,64,76)(H,65,78)(H,66,79)(H,67,80)

>  <source>  (697) 
ChEMBL25

>  <source_id>  (697) 
25

>  <optional_reference>  (697) 
10.1021/jm0109863

>  <optional_origin>  (697) 
None

>  <target>  (697) 
MDR1

$$$$

     RDKit          2D

 85 85  0  0  0  0  0  0  0  0999 V2000
    2.4033    2.6577    0.0000 N   0  0  0  0  0  0  0  0  0  0  0  0
    1.7788    2.1186    0.0000 C   0  0  0  0  0  0  0  0  0  0  0  0
    0.4489    1.3925    0.0000 N   0  0  0  0  0  0  0  0  0  0  0  0
    3.1090    2.2303    0.0000 C   0  0  0  0  0  0  0  0  0  0  0  0
    0.8464    0.6696    0.0000 C   0  0  0  0  0  0  0  0  0  0  0  0
    0.8165   -0.7590    0.0000 N   0  0  0  0  0  0  0  0  0  0  0  0
    0.3891   -1.4647    0.0000 C   0  0  0  0  0  0  0  0  0  0  0  0
    0.3593   -2.8934    0.0000 N   0  0  0  0  0  0  0  0  0  0  0  0
    2.9206    1.4271    0.0000 C   0  0  0  0  0  0  0  0  0  0  0  0
    1.9193   -7.2137    0.0000 N   0  0  0  0  0  0  0  0  0  0  0  0
    2.7441   -7.2310    0.0000 C   0  0  0  0  0  0  0  0  0  0  0  0
    0.4190   -0.0361    0.0000 C   0  0  0  0  0  0  0  0  0  0  0  0
    0.7866   -2.1877    0.0000 C   0  0  0  0  0  0  0  0  0  0  0  0
    2.7740   -5.8024    0.0000 N   0  0  0  0  0  0  0  0  0  0  0  0
    3.2312   -3.6680    0.0000 N   0  0  0  0  0  0  0  0  0  0  0  0
    0.7567   -3.6163    0.0000 C   0  0  0  0  0  0  0  0  0  0  0  0
    3.2013   -5.0967    0.0000 C   0  0  0  0  0  0  0  0  0  0  0  0
    0.8762    2.0982    0.0000 C   0  0  0  0  0  0  0  0  0  0  0  0
    0.6671   -7.9022    0.0000 C   0  0  0  0  0  0  0  0  0  0  0  0
    2.8337   -2.9451    0.0000 C   0  0  0  0  0  0  0  0  0  0  0  0
    3.3208    0.6179    0.0000 N   0  0  0  0  0  0  0  0  0  0  0  0
    2.8636   -1.5165    0.0000 N   0  0  0  0  0  0  0  0  0  0  0  0
    1.4919   -7.9194    0.0000 C   0  0  0  0  0  0  0  0  0  0  0  0
    3.1715   -6.5253    0.0000 C   0  0  0  0  0  0  0  0  0  0  0  0
    2.8039   -4.3737    0.0000 C   0  0  0  0  0  0  0  0  0  0  0  0
    3.2910   -0.8108    0.0000 C   0  0  0  0  0  0  0  0  0  0  0  0
    0.2696   -7.1792    0.0000 N   0  0  0  0  0  0  0  0  0  0  0  0
    0.7269   -5.0449    0.0000 N   0  0  0  0  0  0  0  0  0  0  0  0
    0.2995   -5.7506    0.0000 C   0  0  0  0  0  0  0  0  0  0  0  0
    0.3294   -4.3220    0.0000 C   0  0  0  0  0  0  0  0  0  0  0  0
    2.8935   -0.0878    0.0000 C   0  0  0  0  0  0  0  0  0  0  0  0
    3.2611   -2.2394    0.0000 C   0  0  0  0  0  0  0  0  0  0  0  0
    3.8695    2.5500    0.0000 C   0  0  0  0  0  0  0  0  0  0  0  0
    0.6970   -6.4736    0.0000 C   0  0  0  0  0  0  0  0  0  0  0  0
    2.0751    1.3486    0.0000 O   0  0  0  0  0  0  0  0  0  0  0  0
    1.6712    0.6523    0.0000 O   0  0  0  0  0  0  0  0  0  0  0  0
   -0.4357   -1.4475    0.0000 O   0  0  0  0  0  0  0  0  0  0  0  0
    3.1416   -7.9539    0.0000 O   0  0  0  0  0  0  0  0  0  0  0  0
    2.1702    1.0842    0.0000 O   0  0  0  0  0  0  0  0  0  0  0  0
    1.5816   -3.6335    0.0000 O   0  0  0  0  0  0  0  0  0  0  0  0
   -0.4058   -0.0188    0.0000 C   0  0  0  0  0  0  0  0  0  0  0  0
   -0.0382   -2.1704    0.0000 C   0  0  0  0  0  0  0  0  0  0  0  0
    4.0261   -5.1139    0.0000 O   0  0  0  0  0  0  0  0  0  0  0  0
    0.2398   -8.6079    0.0000 O   0  0  0  0  0  0  0  0  0  0  0  0
    2.0089   -2.9279    0.0000 O   0  0  0  0  0  0  0  0  0  0  0  0
    4.1158   -0.8280    0.0000 O   0  0  0  0  0  0  0  0  0  0  0  0
    1.8894   -8.6424    0.0000 C   0  0  0  0  0  0  0  0  0  0  0  0
    3.6287   -4.3910    0.0000 C   0  0  0  0  0  0  0  0  0  0  0  0
   -0.5253   -5.7334    0.0000 O   0  0  0  0  0  0  0  0  0  0  0  0
    0.4632    2.8124    0.0000 C   0  0  0  0  0  0  0  0  0  0  0  0
    3.9963   -6.5425    0.0000 C   0  0  0  0  0  0  0  0  0  0  0  0
    2.3342    3.4798    0.0000 C   0  0  0  0  0  0  0  0  0  0  0  0
    5.9444    1.8722    0.0000 C   0  0  0  0  0  0  0  0  0  0  0  0
   -0.3759    1.4098    0.0000 C   0  0  0  0  0  0  0  0  0  0  0  0
    5.8410    1.0537    0.0000 C   0  0  0  0  0  0  0  0  0  0  0  0
    1.6413   -0.7763    0.0000 C   0  0  0  0  0  0  0  0  0  0  0  0
   -0.3182   -3.3642    0.0000 C   0  0  0  0  0  0  0  0  0  0  0  0
    1.5218   -6.4908    0.0000 C   0  0  0  0  0  0  0  0  0  0  0  0
    4.5267    2.0513    0.0000 C   0  0  0  0  0  0  0  0  0  0  0  0
    3.9086   -3.1972    0.0000 C   0  0  0  0  0  0  0  0  0  0  0  0
    3.9729    3.3685    0.0000 O   0  0  0  0  0  0  0  0  0  0  0  0
    2.0388   -1.4992    0.0000 C   0  0  0  0  0  0  0  0  0  0  0  0
   -0.4954   -4.3047    0.0000 C   0  0  0  0  0  0  0  0  0  0  0  0
    2.0687   -0.0706    0.0000 C   0  0  0  0  0  0  0  0  0  0  0  0
    5.2872    2.3710    0.0000 C   0  0  0  0  0  0  0  0  0  0  0  0
   -0.4655   -2.8761    0.0000 C   0  0  0  0  0  0  0  0  0  0  0  0
   -0.8033    0.7041    0.0000 C   0  0  0  0  0  0  0  0  0  0  0  0
    1.4621   -9.3481    0.0000 C   0  0  0  0  0  0  0  0  0  0  0  0
    4.0560   -3.6853    0.0000 C   0  0  0  0  0  0  0  0  0  0  0  0
    1.3744   -6.0027    0.0000 C   0  0  0  0  0  0  0  0  0  0  0  0
    6.4981    0.5549    0.0000 C   0  0  0  0  0  0  0  0  0  0  0  0
    4.4236   -5.8369    0.0000 C   0  0  0  0  0  0  0  0  0  0  0  0
    0.8751    3.5272    0.0000 C   0  0  0  0  0  0  0  0  0  0  0  0
   -0.3618    2.8117    0.0000 C   0  0  0  0  0  0  0  0  0  0  0  0
    4.3937   -7.2655    0.0000 C   0  0  0  0  0  0  0  0  0  0  0  0
    4.4233    1.2328    0.0000 C   0  0  0  0  0  0  0  0  0  0  0  0
    1.8595  -10.0710    0.0000 C   0  0  0  0  0  0  0  0  0  0  0  0
    0.6372   -9.3308    0.0000 C   0  0  0  0  0  0  0  0  0  0  0  0
    4.1594   -2.8668    0.0000 C   0  0  0  0  0  0  0  0  0  0  0  0
   -0.5689   -3.6946    0.0000 C   0  0  0  0  0  0  0  0  0  0  0  0
   -1.2904   -2.8589    0.0000 C   0  0  0  0  0  0  0  0  0  0  0  0
    4.8808   -3.7025    0.0000 C   0  0  0  0  0  0  0  0  0  0  0  0
   -1.6281    0.7213    0.0000 C   0  0  0  0  0  0  0  0  0  0  0  0
   -0.8723    1.5262    0.0000 C   0  0  0  0  0  0  0  0  0  0  0  0
    7.2587    0.8746    0.0000 C   0  0  0  0  0  0  0  0  0  0  0  0
  2  1  1  0
  3 18  1  0
  4  1  1  0
  5  3  1  0
  6 12  1  0
  7  6  1  0
  8 13  1  0
  9  4  1  0
 10 11  1  0
 11 24  1  0
 12  5  1  0
 13  7  1  0
 14 17  1  0
 15 20  1  0
 16  8  1  0
 17 25  1  0
 18  2  1  0
 19 27  1  0
 20 32  1  0
 21  9  1  0
 22 26  1  0
 23 10  1  0
 24 14  1  0
 25 15  1  0
 26 31  1  0
 27 34  1  0
 28 30  1  0
 29 28  1  0
 30 16  1  0
 31 21  1  0
 32 22  1  0
 33  4  1  0
 34 29  1  0
 35  2  2  0
 36  5  2  0
 37  7  2  0
 38 11  2  0
 39  9  2  0
 40 16  2  0
 12 41  1  0
 13 42  1  0
 43 17  2  0
 44 19  2  0
 45 20  2  0
 46 26  2  0
 23 47  1  0
 25 48  1  0
 49 29  2  0
 18 50  1  0
 24 51  1  0
 52  1  1  0
 53 65  1  0
 54  3  1  0
 55 53  2  3
 56  6  1  0
 57  8  1  0
 58 10  1  0
 59 33  1  0
 60 15  1  0
 33 61  1  0
 62 22  1  0
 30 63  1  0
 31 64  1  0
 65 59  1  0
 66 42  1  0
 67 41  1  0
 68 47  1  0
 69 48  1  0
 34 70  1  0
 71 55  1  0
 72 51  1  0
 73 50  1  0
 74 50  1  0
 75 51  1  0
 59 76  1  0
 77 68  1  0
 78 68  1  0
 79 69  1  0
 80 66  1  0
 81 66  1  0
 82 69  1  0
 83 67  1  0
 84 67  1  0
 85 71  1  0
 19 23  1  0
M  END
>  <Classification>  (698) 
1

>  <pchembl>  (698) 
5.33

>  <InChI_steorem>  (698) 
InChI=1S/C62H111N11O12/c1-25-26-27-28-40(14)52(75)51-56(79)65-42(16)57(80)67(18)33-48(74)68(19)44(29-34(2)3)55(78)66-49(38(10)11)61(84)69(20)45(30-35(4)5)54(77)63-41(15)53(76)64-43(17)58(81)70(21)46(31-36(6)7)59(82)71(22)47(32-37(8)9)60(83)72(23)50(39(12)13)62(85)73(51)24/h26-27,34-47,49-52,75H,25,28-33H2,1-24H3,(H,63,77)(H,64,76)(H,65,79)(H,66,78)

>  <source>  (698) 
ChEMBL25

>  <source_id>  (698) 
25

>  <optional_reference>  (698) 
10.1021/jm0109863

>  <optional_origin>  (698) 
None

>  <target>  (698) 
MDR1

$$$$

     RDKit          2D

 85 85  0  0  0  0  0  0  0  0999 V2000
    2.4417   -2.1292    0.0000 N   0  0  0  0  0  0  0  0  0  0  0  0
    1.6167   -2.1375    0.0000 C   0  0  0  0  0  0  0  0  0  0  0  0
   -0.2750   -1.9500    0.0000 N   0  0  0  0  0  0  0  0  0  0  0  0
   -0.3375   -2.8500    0.0000 C   0  0  0  0  0  0  0  0  0  0  0  0
    5.4042   -1.7042    0.0000 C   0  0  0  0  0  0  0  0  0  0  0  0
   -0.4833   -3.9292    0.0000 N   0  0  0  0  0  0  0  0  0  0  0  0
    4.6917   -2.1250    0.0000 N   0  0  0  0  0  0  0  0  0  0  0  0
    5.3042   -4.3500    0.0000 N   0  0  0  0  0  0  0  0  0  0  0  0
    6.1375   -4.3500    0.0000 C   0  0  0  0  0  0  0  0  0  0  0  0
    6.9500   -2.1125    0.0000 N   0  0  0  0  0  0  0  0  0  0  0  0
    7.6625   -1.7000    0.0000 C   0  0  0  0  0  0  0  0  0  0  0  0
    3.8750   -2.1250    0.0000 C   0  0  0  0  0  0  0  0  0  0  0  0
    8.3792   -2.1042    0.0000 C   0  0  0  0  0  0  0  0  0  0  0  0
    0.9042   -1.7250    0.0000 C   0  0  0  0  0  0  0  0  0  0  0  0
   -0.7708   -3.2917    0.0000 C   0  0  0  0  0  0  0  0  0  0  0  0
    6.1292   -2.1167    0.0000 C   0  0  0  0  0  0  0  0  0  0  0  0
    7.5625   -4.3542    0.0000 N   0  0  0  0  0  0  0  0  0  0  0  0
    9.9042   -4.1667    0.0000 N   0  0  0  0  0  0  0  0  0  0  0  0
   -0.6875   -4.7292    0.0000 C   0  0  0  0  0  0  0  0  0  0  0  0
    8.3875   -4.3625    0.0000 C   0  0  0  0  0  0  0  0  0  0  0  0
    3.7917   -4.5375    0.0000 C   0  0  0  0  0  0  0  0  0  0  0  0
    9.2042   -2.1042    0.0000 N   0  0  0  0  0  0  0  0  0  0  0  0
   10.0625   -3.2750    0.0000 C   0  0  0  0  0  0  0  0  0  0  0  0
    4.5917   -4.7542    0.0000 C   0  0  0  0  0  0  0  0  0  0  0  0
    6.8417   -4.7625    0.0000 C   0  0  0  0  0  0  0  0  0  0  0  0
    9.1917   -4.5792    0.0000 C   0  0  0  0  0  0  0  0  0  0  0  0
    2.9917   -4.7500    0.0000 N   0  0  0  0  0  0  0  0  0  0  0  0
    0.7375   -4.7375    0.0000 N   0  0  0  0  0  0  0  0  0  0  0  0
    3.1542   -1.7125    0.0000 C   0  0  0  0  0  0  0  0  0  0  0  0
    1.5667   -4.7417    0.0000 C   0  0  0  0  0  0  0  0  0  0  0  0
    0.0167   -5.1500    0.0000 C   0  0  0  0  0  0  0  0  0  0  0  0
    9.1917   -2.9292    0.0000 C   0  0  0  0  0  0  0  0  0  0  0  0
    5.4042   -0.8792    0.0000 C   0  0  0  0  0  0  0  0  0  0  0  0
    2.2750   -5.1625    0.0000 C   0  0  0  0  0  0  0  0  0  0  0  0
    1.6167   -2.9625    0.0000 O   0  0  0  0  0  0  0  0  0  0  0  0
    0.4167   -3.1917    0.0000 O   0  0  0  0  0  0  0  0  0  0  0  0
    6.1417   -3.5250    0.0000 O   0  0  0  0  0  0  0  0  0  0  0  0
    3.8792   -2.9500    0.0000 O   0  0  0  0  0  0  0  0  0  0  0  0
    8.3875   -2.9292    0.0000 O   0  0  0  0  0  0  0  0  0  0  0  0
   -1.5833   -3.1417    0.0000 C   0  0  0  0  0  0  0  0  0  0  0  0
   -1.4500   -5.0417    0.0000 O   0  0  0  0  0  0  0  0  0  0  0  0
    0.9042   -0.9000    0.0000 C   0  0  0  0  0  0  0  0  0  0  0  0
    6.1292   -2.9417    0.0000 O   0  0  0  0  0  0  0  0  0  0  0  0
    8.3792   -3.5375    0.0000 O   0  0  0  0  0  0  0  0  0  0  0  0
    3.7875   -3.7125    0.0000 O   0  0  0  0  0  0  0  0  0  0  0  0
   10.8792   -2.8167    0.0000 O   0  0  0  0  0  0  0  0  0  0  0  0
    4.5875   -5.5792    0.0000 C   0  0  0  0  0  0  0  0  0  0  0  0
    9.1875   -5.4042    0.0000 C   0  0  0  0  0  0  0  0  0  0  0  0
    1.5667   -3.9167    0.0000 O   0  0  0  0  0  0  0  0  0  0  0  0
    7.6542   -0.8750    0.0000 C   0  0  0  0  0  0  0  0  0  0  0  0
    6.8417   -5.5875    0.0000 C   0  0  0  0  0  0  0  0  0  0  0  0
    5.3917    0.7708    0.0000 C   0  0  0  0  0  0  0  0  0  0  0  0
    5.3917    1.5958    0.0000 C   0  0  0  0  0  0  0  0  0  0  0  0
    2.6625   -2.9250    0.0000 C   0  0  0  0  0  0  0  0  0  0  0  0
    3.1500   -0.8875    0.0000 C   0  0  0  0  0  0  0  0  0  0  0  0
   -0.8958   -1.4000    0.0000 C   0  0  0  0  0  0  0  0  0  0  0  0
    0.3167   -3.7167    0.0000 C   0  0  0  0  0  0  0  0  0  0  0  0
    5.1000   -3.5500    0.0000 C   0  0  0  0  0  0  0  0  0  0  0  0
    6.1167   -0.4667    0.0000 C   0  0  0  0  0  0  0  0  0  0  0  0
   10.6167   -4.5875    0.0000 C   0  0  0  0  0  0  0  0  0  0  0  0
    4.6875   -0.4667    0.0000 O   0  0  0  0  0  0  0  0  0  0  0  0
    9.6917   -1.4292    0.0000 C   0  0  0  0  0  0  0  0  0  0  0  0
    8.3667   -0.4542    0.0000 O   0  0  0  0  0  0  0  0  0  0  0  0
    0.0167   -5.9750    0.0000 C   0  0  0  0  0  0  0  0  0  0  0  0
    6.1125    0.3583    0.0000 C   0  0  0  0  0  0  0  0  0  0  0  0
    0.1917   -0.4875    0.0000 C   0  0  0  0  0  0  0  0  0  0  0  0
   -1.8625   -2.3667    0.0000 C   0  0  0  0  0  0  0  0  0  0  0  0
    9.9000   -5.8167    0.0000 C   0  0  0  0  0  0  0  0  0  0  0  0
    3.8667   -5.9917    0.0000 C   0  0  0  0  0  0  0  0  0  0  0  0
    2.2667   -5.9875    0.0000 C   0  0  0  0  0  0  0  0  0  0  0  0
    4.6750    2.0083    0.0000 C   0  0  0  0  0  0  0  0  0  0  0  0
    6.9417   -0.4625    0.0000 C   0  0  0  0  0  0  0  0  0  0  0  0
    7.5542   -6.0042    0.0000 C   0  0  0  0  0  0  0  0  0  0  0  0
    6.1250   -6.0000    0.0000 C   0  0  0  0  0  0  0  0  0  0  0  0
    2.4292   -0.4792    0.0000 C   0  0  0  0  0  0  0  0  0  0  0  0
    3.8625   -0.4750    0.0000 C   0  0  0  0  0  0  0  0  0  0  0  0
    6.8292   -0.8750    0.0000 C   0  0  0  0  0  0  0  0  0  0  0  0
   10.6167   -5.4125    0.0000 C   0  0  0  0  0  0  0  0  0  0  0  0
    9.8917   -6.6417    0.0000 C   0  0  0  0  0  0  0  0  0  0  0  0
    3.8667   -6.8167    0.0000 C   0  0  0  0  0  0  0  0  0  0  0  0
    3.1542   -5.5750    0.0000 C   0  0  0  0  0  0  0  0  0  0  0  0
   -1.3333   -1.7417    0.0000 C   0  0  0  0  0  0  0  0  0  0  0  0
    0.1917    0.3375    0.0000 C   0  0  0  0  0  0  0  0  0  0  0  0
   -0.5208   -0.9000    0.0000 C   0  0  0  0  0  0  0  0  0  0  0  0
   -2.6750   -2.2292    0.0000 C   0  0  0  0  0  0  0  0  0  0  0  0
  2  1  1  0
  3 14  1  0
  4  3  1  0
  7  5  1  0
  6 15  1  0
  7 12  1  0
  8 24  1  0
  9  8  1  0
 10 16  1  0
 10 11  1  0
 12 29  1  0
 13 11  1  0
 14  2  1  0
 15  4  1  0
 16  5  1  0
 17 20  1  0
 18 23  1  0
 19  6  1  0
 20 26  1  0
 21 27  1  0
 22 13  1  0
 23 32  1  0
 24 21  1  0
 25 17  1  0
 26 18  1  0
 27 34  1  0
 28 31  1  0
 29  1  1  0
 30 28  1  0
 31 19  1  0
 32 22  1  0
 33  5  1  0
 34 30  1  0
 35  2  2  0
 36  4  2  0
 37  9  2  0
 38 12  2  0
 39 13  2  0
 15 40  1  0
 41 19  2  0
 14 42  1  0
 43 16  2  0
 44 20  2  0
 45 21  2  0
 46 23  2  0
 24 47  1  0
 26 48  1  0
 49 30  2  0
 11 50  1  0
 25 51  1  0
 52 65  1  0
 53 52  2  3
 54  1  1  0
 29 55  1  0
 56  3  1  0
 57  6  1  0
 58  8  1  0
 59 33  1  0
 60 18  1  0
 33 61  1  0
 62 22  1  0
 50 63  1  0
 31 64  1  0
 65 59  1  0
 66 42  1  0
 67 40  1  0
 68 48  1  0
 69 47  1  0
 34 70  1  0
 71 53  1  0
 72 50  1  0
 73 51  1  0
 74 51  1  0
 75 55  1  0
 76 55  1  0
 59 77  1  0
 78 68  1  0
 79 68  1  0
 80 69  1  0
 81 69  1  0
 82 67  1  0
 83 66  1  0
 84 66  1  0
 85 67  1  0
 25  9  1  0
M  END
>  <Classification>  (699) 
0

>  <pchembl>  (699) 
4.77

>  <InChI_steorem>  (699) 
InChI=1S/C61H109N11O13/c1-24-25-26-38(14)51(75)49-55(79)65-48(41(17)73)60(84)67(18)31-46(74)68(19)42(27-32(2)3)54(78)64-47(36(10)11)61(85)69(20)43(28-33(4)5)53(77)62-39(15)52(76)63-40(16)57(81)70(21)44(29-34(6)7)58(82)71(22)45(30-35(8)9)59(83)72(23)50(37(12)13)56(80)66-49/h24-25,32-45,47-51,73,75H,26-31H2,1-23H3,(H,62,77)(H,63,76)(H,64,78)(H,65,79)(H,66,80)

>  <source>  (699) 
ChEMBL25

>  <source_id>  (699) 
25

>  <optional_reference>  (699) 
10.1021/jm0109863

>  <optional_origin>  (699) 
None

>  <target>  (699) 
MDR1

$$$$

     RDKit          2D

 86 86  0  0  0  0  0  0  0  0999 V2000
    2.3401    2.7767    0.0000 N   0  0  0  0  0  0  0  0  0  0  0  0
    1.7156    2.2376    0.0000 C   0  0  0  0  0  0  0  0  0  0  0  0
    0.3856    1.5116    0.0000 N   0  0  0  0  0  0  0  0  0  0  0  0
    3.0457    2.3493    0.0000 C   0  0  0  0  0  0  0  0  0  0  0  0
    0.7831    0.7886    0.0000 C   0  0  0  0  0  0  0  0  0  0  0  0
    0.7532   -0.6400    0.0000 N   0  0  0  0  0  0  0  0  0  0  0  0
    0.3259   -1.3457    0.0000 C   0  0  0  0  0  0  0  0  0  0  0  0
    0.2960   -2.7743    0.0000 N   0  0  0  0  0  0  0  0  0  0  0  0
    2.8574    1.5461    0.0000 C   0  0  0  0  0  0  0  0  0  0  0  0
    1.8560   -7.0947    0.0000 N   0  0  0  0  0  0  0  0  0  0  0  0
    0.3558    0.0829    0.0000 C   0  0  0  0  0  0  0  0  0  0  0  0
    0.7234   -2.0686    0.0000 C   0  0  0  0  0  0  0  0  0  0  0  0
    3.1679   -3.5490    0.0000 N   0  0  0  0  0  0  0  0  0  0  0  0
    0.6935   -3.4973    0.0000 C   0  0  0  0  0  0  0  0  0  0  0  0
    2.6809   -7.1120    0.0000 C   0  0  0  0  0  0  0  0  0  0  0  0
    0.8130    2.2173    0.0000 C   0  0  0  0  0  0  0  0  0  0  0  0
    3.1381   -4.9776    0.0000 C   0  0  0  0  0  0  0  0  0  0  0  0
    0.6039   -7.7831    0.0000 C   0  0  0  0  0  0  0  0  0  0  0  0
    2.7705   -2.8261    0.0000 C   0  0  0  0  0  0  0  0  0  0  0  0
    3.2576    0.7369    0.0000 N   0  0  0  0  0  0  0  0  0  0  0  0
    2.8004   -1.3974    0.0000 N   0  0  0  0  0  0  0  0  0  0  0  0
    1.4287   -7.8004    0.0000 C   0  0  0  0  0  0  0  0  0  0  0  0
    2.7107   -5.6833    0.0000 N   0  0  0  0  0  0  0  0  0  0  0  0
    3.2277   -0.6917    0.0000 C   0  0  0  0  0  0  0  0  0  0  0  0
    2.7406   -4.2547    0.0000 C   0  0  0  0  0  0  0  0  0  0  0  0
    0.2064   -7.0602    0.0000 N   0  0  0  0  0  0  0  0  0  0  0  0
    0.6636   -4.9259    0.0000 N   0  0  0  0  0  0  0  0  0  0  0  0
    0.2363   -5.6316    0.0000 C   0  0  0  0  0  0  0  0  0  0  0  0
    3.1082   -6.4063    0.0000 C   0  0  0  0  0  0  0  0  0  0  0  0
    0.2661   -4.2029    0.0000 C   0  0  0  0  0  0  0  0  0  0  0  0
    2.8302    0.0312    0.0000 C   0  0  0  0  0  0  0  0  0  0  0  0
    3.1978   -2.1204    0.0000 C   0  0  0  0  0  0  0  0  0  0  0  0
    3.8063    2.6691    0.0000 C   0  0  0  0  0  0  0  0  0  0  0  0
    0.6337   -6.3545    0.0000 C   0  0  0  0  0  0  0  0  0  0  0  0
    2.0118    1.4676    0.0000 O   0  0  0  0  0  0  0  0  0  0  0  0
    1.6079    0.7714    0.0000 O   0  0  0  0  0  0  0  0  0  0  0  0
   -0.4989   -1.3284    0.0000 O   0  0  0  0  0  0  0  0  0  0  0  0
    2.1070    1.2033    0.0000 O   0  0  0  0  0  0  0  0  0  0  0  0
    1.5183   -3.5145    0.0000 O   0  0  0  0  0  0  0  0  0  0  0  0
   -0.1015   -2.0514    0.0000 C   0  0  0  0  0  0  0  0  0  0  0  0
   -0.4691    0.1002    0.0000 C   0  0  0  0  0  0  0  0  0  0  0  0
    3.0783   -7.8349    0.0000 O   0  0  0  0  0  0  0  0  0  0  0  0
    3.9629   -4.9949    0.0000 O   0  0  0  0  0  0  0  0  0  0  0  0
    0.1765   -8.4888    0.0000 O   0  0  0  0  0  0  0  0  0  0  0  0
    1.9457   -2.8088    0.0000 O   0  0  0  0  0  0  0  0  0  0  0  0
    4.0525   -0.7090    0.0000 O   0  0  0  0  0  0  0  0  0  0  0  0
    1.8262   -8.5233    0.0000 C   0  0  0  0  0  0  0  0  0  0  0  0
    3.5654   -4.2719    0.0000 C   0  0  0  0  0  0  0  0  0  0  0  0
   -0.5886   -5.6143    0.0000 O   0  0  0  0  0  0  0  0  0  0  0  0
    0.3999    2.9314    0.0000 C   0  0  0  0  0  0  0  0  0  0  0  0
    2.2710    3.5988    0.0000 C   0  0  0  0  0  0  0  0  0  0  0  0
    5.3273    3.3085    0.0000 C   0  0  0  0  0  0  0  0  0  0  0  0
   -0.4392    1.5288    0.0000 C   0  0  0  0  0  0  0  0  0  0  0  0
    6.0879    3.6282    0.0000 C   0  0  0  0  0  0  0  0  0  0  0  0
    1.5781   -0.6572    0.0000 C   0  0  0  0  0  0  0  0  0  0  0  0
   -0.3814   -3.2452    0.0000 C   0  0  0  0  0  0  0  0  0  0  0  0
    1.4586   -6.3718    0.0000 C   0  0  0  0  0  0  0  0  0  0  0  0
    4.4634    2.1703    0.0000 C   0  0  0  0  0  0  0  0  0  0  0  0
    3.8454   -3.0781    0.0000 C   0  0  0  0  0  0  0  0  0  0  0  0
    3.9097    3.4876    0.0000 O   0  0  0  0  0  0  0  0  0  0  0  0
    1.9755   -1.3802    0.0000 C   0  0  0  0  0  0  0  0  0  0  0  0
    3.9330   -6.4235    0.0000 C   0  0  0  0  0  0  0  0  0  0  0  0
    3.6550    0.0139    0.0000 C   0  0  0  0  0  0  0  0  0  0  0  0
   -0.5587   -4.1857    0.0000 C   0  0  0  0  0  0  0  0  0  0  0  0
    5.2240    2.4900    0.0000 C   0  0  0  0  0  0  0  0  0  0  0  0
   -0.5288   -2.7571    0.0000 C   0  0  0  0  0  0  0  0  0  0  0  0
   -0.8665    0.8231    0.0000 C   0  0  0  0  0  0  0  0  0  0  0  0
    1.3988   -9.2290    0.0000 C   0  0  0  0  0  0  0  0  0  0  0  0
    3.9928   -3.5662    0.0000 C   0  0  0  0  0  0  0  0  0  0  0  0
    1.3112   -5.8837    0.0000 C   0  0  0  0  0  0  0  0  0  0  0  0
    6.1912    4.4467    0.0000 C   0  0  0  0  0  0  0  0  0  0  0  0
    0.8118    3.6462    0.0000 C   0  0  0  0  0  0  0  0  0  0  0  0
   -0.4251    2.9307    0.0000 C   0  0  0  0  0  0  0  0  0  0  0  0
    4.3600    1.3518    0.0000 C   0  0  0  0  0  0  0  0  0  0  0  0
    4.0824    0.7196    0.0000 C   0  0  0  0  0  0  0  0  0  0  0  0
    4.3305   -7.1464    0.0000 C   0  0  0  0  0  0  0  0  0  0  0  0
    1.7963   -9.9520    0.0000 C   0  0  0  0  0  0  0  0  0  0  0  0
   -1.6913    0.8404    0.0000 C   0  0  0  0  0  0  0  0  0  0  0  0
   -0.6322   -3.5756    0.0000 C   0  0  0  0  0  0  0  0  0  0  0  0
   -1.3536   -2.7398    0.0000 C   0  0  0  0  0  0  0  0  0  0  0  0
    4.0961   -2.7478    0.0000 C   0  0  0  0  0  0  0  0  0  0  0  0
    4.8176   -3.5835    0.0000 C   0  0  0  0  0  0  0  0  0  0  0  0
   -0.9356    1.6452    0.0000 C   0  0  0  0  0  0  0  0  0  0  0  0
    0.5740   -9.2118    0.0000 C   0  0  0  0  0  0  0  0  0  0  0  0
    4.9072    0.7024    0.0000 C   0  0  0  0  0  0  0  0  0  0  0  0
    5.1553   -7.1637    0.0000 C   0  0  0  0  0  0  0  0  0  0  0  0
  2  1  1  0
  3 16  1  0
  4  1  1  0
  5  3  1  0
  6 11  1  0
  7  6  1  0
  8 12  1  0
  9  4  1  0
 10 15  1  0
 11  5  1  0
 12  7  1  0
 13 19  1  0
 14  8  1  0
 15 29  1  0
 16  2  1  0
 17 25  1  0
 18 26  1  0
 19 32  1  0
 20  9  1  0
 21 24  1  0
 22 10  1  0
 23 17  1  0
 24 31  1  0
 25 13  1  0
 26 34  1  0
 27 30  1  0
 28 27  1  0
 29 23  1  0
 30 14  1  0
 31 20  1  0
 32 21  1  0
 33  4  1  0
 34 28  1  0
 35  2  2  0
 36  5  2  0
 37  7  2  0
 38  9  2  0
 39 14  2  0
 12 40  1  0
 11 41  1  0
 42 15  2  0
 43 17  2  0
 44 18  2  0
 45 19  2  0
 46 24  2  0
 22 47  1  0
 25 48  1  0
 49 28  2  0
 16 50  1  0
 51  1  1  0
 52 65  1  0
 53  3  1  0
 54 52  2  3
 55  6  1  0
 56  8  1  0
 57 10  1  0
 58 33  1  0
 59 13  1  0
 33 60  1  0
 61 21  1  0
 29 62  1  0
 31 63  1  0
 30 64  1  0
 65 58  1  0
 66 40  1  0
 67 41  1  0
 68 47  1  0
 69 48  1  0
 70 34  1  0
 71 54  1  0
 72 50  1  0
 73 50  1  0
 58 74  1  0
 75 63  1  0
 76 62  1  0
 77 68  1  0
 78 67  1  0
 79 66  1  0
 80 66  1  0
 81 69  1  0
 82 69  1  0
 83 67  1  0
 84 68  1  0
 85 75  1  0
 86 76  1  0
 18 22  1  0
M  END
>  <Classification>  (700) 
1

>  <pchembl>  (700) 
5.89

>  <InChI_steorem>  (700) 
InChI=1S/C63H113N11O12/c1-24-27-30-41(14)53(76)52-57(80)67-44(28-25-2)59(82)68(17)35-50(75)69(18)46(31-36(4)5)56(79)66-45(29-26-3)60(83)70(19)47(32-37(6)7)55(78)64-42(15)54(77)65-43(16)58(81)71(20)48(33-38(8)9)61(84)72(21)49(34-39(10)11)62(85)73(22)51(40(12)13)63(86)74(52)23/h24,27,36-49,51-53,76H,25-26,28-35H2,1-23H3,(H,64,78)(H,65,77)(H,66,79)(H,67,80)

>  <source>  (700) 
ChEMBL25

>  <source_id>  (700) 
25

>  <optional_reference>  (700) 
10.1021/jm0109863

>  <optional_origin>  (700) 
None

>  <target>  (700) 
MDR1

$$$$

     RDKit          2D

 86 86  0  0  0  0  0  0  0  0999 V2000
    2.3942    2.6463    0.0000 N   0  0  0  0  0  0  0  0  0  0  0  0
    1.7697    2.1072    0.0000 C   0  0  0  0  0  0  0  0  0  0  0  0
    0.4398    1.3812    0.0000 N   0  0  0  0  0  0  0  0  0  0  0  0
    3.0999    2.2189    0.0000 C   0  0  0  0  0  0  0  0  0  0  0  0
    0.8372    0.6582    0.0000 C   0  0  0  0  0  0  0  0  0  0  0  0
    0.8074   -0.7704    0.0000 N   0  0  0  0  0  0  0  0  0  0  0  0
    0.3800   -1.4761    0.0000 C   0  0  0  0  0  0  0  0  0  0  0  0
    0.3502   -2.9047    0.0000 N   0  0  0  0  0  0  0  0  0  0  0  0
    2.9115    1.4157    0.0000 C   0  0  0  0  0  0  0  0  0  0  0  0
    1.9102   -7.2251    0.0000 N   0  0  0  0  0  0  0  0  0  0  0  0
    2.7350   -7.2423    0.0000 C   0  0  0  0  0  0  0  0  0  0  0  0
    0.4099   -0.0475    0.0000 C   0  0  0  0  0  0  0  0  0  0  0  0
    0.7775   -2.1990    0.0000 C   0  0  0  0  0  0  0  0  0  0  0  0
    2.7649   -5.8137    0.0000 N   0  0  0  0  0  0  0  0  0  0  0  0
    3.2221   -3.6794    0.0000 N   0  0  0  0  0  0  0  0  0  0  0  0
    0.7476   -3.6277    0.0000 C   0  0  0  0  0  0  0  0  0  0  0  0
    3.1922   -5.1080    0.0000 C   0  0  0  0  0  0  0  0  0  0  0  0
    0.8671    2.0869    0.0000 C   0  0  0  0  0  0  0  0  0  0  0  0
    0.6580   -7.9135    0.0000 C   0  0  0  0  0  0  0  0  0  0  0  0
    2.8246   -2.9565    0.0000 C   0  0  0  0  0  0  0  0  0  0  0  0
    3.3117    0.6065    0.0000 N   0  0  0  0  0  0  0  0  0  0  0  0
    2.8545   -1.5278    0.0000 N   0  0  0  0  0  0  0  0  0  0  0  0
    1.4828   -7.9308    0.0000 C   0  0  0  0  0  0  0  0  0  0  0  0
    3.1623   -6.5367    0.0000 C   0  0  0  0  0  0  0  0  0  0  0  0
    2.7947   -4.3851    0.0000 C   0  0  0  0  0  0  0  0  0  0  0  0
    3.2818   -0.8221    0.0000 C   0  0  0  0  0  0  0  0  0  0  0  0
    0.2605   -7.1906    0.0000 N   0  0  0  0  0  0  0  0  0  0  0  0
    0.7178   -5.0563    0.0000 N   0  0  0  0  0  0  0  0  0  0  0  0
    0.2904   -5.7620    0.0000 C   0  0  0  0  0  0  0  0  0  0  0  0
    0.3203   -4.3333    0.0000 C   0  0  0  0  0  0  0  0  0  0  0  0
    2.8844   -0.0992    0.0000 C   0  0  0  0  0  0  0  0  0  0  0  0
    3.2520   -2.2508    0.0000 C   0  0  0  0  0  0  0  0  0  0  0  0
    3.8604    2.5387    0.0000 C   0  0  0  0  0  0  0  0  0  0  0  0
    0.6879   -6.4849    0.0000 C   0  0  0  0  0  0  0  0  0  0  0  0
    2.0660    1.3372    0.0000 O   0  0  0  0  0  0  0  0  0  0  0  0
    1.6621    0.6410    0.0000 O   0  0  0  0  0  0  0  0  0  0  0  0
   -0.4448   -1.4588    0.0000 O   0  0  0  0  0  0  0  0  0  0  0  0
    3.1325   -7.9653    0.0000 O   0  0  0  0  0  0  0  0  0  0  0  0
    2.1611    1.0729    0.0000 O   0  0  0  0  0  0  0  0  0  0  0  0
    1.5724   -3.6449    0.0000 O   0  0  0  0  0  0  0  0  0  0  0  0
   -0.4149   -0.0302    0.0000 C   0  0  0  0  0  0  0  0  0  0  0  0
   -0.0473   -2.1818    0.0000 C   0  0  0  0  0  0  0  0  0  0  0  0
    4.0170   -5.1253    0.0000 O   0  0  0  0  0  0  0  0  0  0  0  0
    0.2307   -8.6192    0.0000 O   0  0  0  0  0  0  0  0  0  0  0  0
    1.9998   -2.9392    0.0000 O   0  0  0  0  0  0  0  0  0  0  0  0
    4.1067   -0.8394    0.0000 O   0  0  0  0  0  0  0  0  0  0  0  0
    1.8803   -8.6537    0.0000 C   0  0  0  0  0  0  0  0  0  0  0  0
    3.6196   -4.4023    0.0000 C   0  0  0  0  0  0  0  0  0  0  0  0
   -0.5344   -5.7447    0.0000 O   0  0  0  0  0  0  0  0  0  0  0  0
    0.4540    2.8010    0.0000 C   0  0  0  0  0  0  0  0  0  0  0  0
    3.9872   -6.5539    0.0000 C   0  0  0  0  0  0  0  0  0  0  0  0
    2.3251    3.4684    0.0000 C   0  0  0  0  0  0  0  0  0  0  0  0
    5.9352    1.8608    0.0000 C   0  0  0  0  0  0  0  0  0  0  0  0
    5.8319    1.0423    0.0000 C   0  0  0  0  0  0  0  0  0  0  0  0
   -0.3850    1.3984    0.0000 C   0  0  0  0  0  0  0  0  0  0  0  0
    1.6322   -0.7876    0.0000 C   0  0  0  0  0  0  0  0  0  0  0  0
   -0.3273   -3.3756    0.0000 C   0  0  0  0  0  0  0  0  0  0  0  0
    1.5127   -6.5022    0.0000 C   0  0  0  0  0  0  0  0  0  0  0  0
    4.5176    2.0399    0.0000 C   0  0  0  0  0  0  0  0  0  0  0  0
    3.8995   -3.2085    0.0000 C   0  0  0  0  0  0  0  0  0  0  0  0
    3.9638    3.3572    0.0000 O   0  0  0  0  0  0  0  0  0  0  0  0
    2.0297   -1.5106    0.0000 C   0  0  0  0  0  0  0  0  0  0  0  0
    3.7092   -0.1164    0.0000 C   0  0  0  0  0  0  0  0  0  0  0  0
   -0.5045   -4.3161    0.0000 C   0  0  0  0  0  0  0  0  0  0  0  0
    6.3856   -0.2749    0.0000 O   0  0  0  0  0  0  0  0  0  0  0  0
    5.2781    2.3596    0.0000 C   0  0  0  0  0  0  0  0  0  0  0  0
   -0.8124    0.6927    0.0000 C   0  0  0  0  0  0  0  0  0  0  0  0
   -0.4747   -2.8875    0.0000 C   0  0  0  0  0  0  0  0  0  0  0  0
    4.0469   -3.6966    0.0000 C   0  0  0  0  0  0  0  0  0  0  0  0
    1.4529   -9.3594    0.0000 C   0  0  0  0  0  0  0  0  0  0  0  0
    6.4890    0.5436    0.0000 C   0  0  0  0  0  0  0  0  0  0  0  0
    1.3653   -6.0141    0.0000 C   0  0  0  0  0  0  0  0  0  0  0  0
    0.8660    3.5158    0.0000 C   0  0  0  0  0  0  0  0  0  0  0  0
   -0.3710    2.8003    0.0000 C   0  0  0  0  0  0  0  0  0  0  0  0
    4.4145   -5.8482    0.0000 C   0  0  0  0  0  0  0  0  0  0  0  0
    4.3846   -7.2768    0.0000 C   0  0  0  0  0  0  0  0  0  0  0  0
    4.4142    1.2214    0.0000 C   0  0  0  0  0  0  0  0  0  0  0  0
    1.8504  -10.0824    0.0000 C   0  0  0  0  0  0  0  0  0  0  0  0
    4.1503   -2.8781    0.0000 C   0  0  0  0  0  0  0  0  0  0  0  0
   -0.5780   -3.7060    0.0000 C   0  0  0  0  0  0  0  0  0  0  0  0
   -1.2995   -2.8702    0.0000 C   0  0  0  0  0  0  0  0  0  0  0  0
    4.8717   -3.7139    0.0000 C   0  0  0  0  0  0  0  0  0  0  0  0
   -1.6372    0.7100    0.0000 C   0  0  0  0  0  0  0  0  0  0  0  0
   -0.8815    1.5148    0.0000 C   0  0  0  0  0  0  0  0  0  0  0  0
    0.6281   -9.3422    0.0000 C   0  0  0  0  0  0  0  0  0  0  0  0
    4.1365    0.5892    0.0000 C   0  0  0  0  0  0  0  0  0  0  0  0
  2  1  1  0
  3 18  1  0
  4  1  1  0
  5  3  1  0
  6 12  1  0
  7  6  1  0
  8 13  1  0
  9  4  1  0
 10 11  1  0
 11 24  1  0
 12  5  1  0
 13  7  1  0
 14 17  1  0
 15 20  1  0
 16  8  1  0
 17 25  1  0
 18  2  1  0
 19 27  1  0
 20 32  1  0
 21  9  1  0
 22 26  1  0
 23 10  1  0
 24 14  1  0
 25 15  1  0
 26 31  1  0
 27 34  1  0
 28 30  1  0
 29 28  1  0
 30 16  1  0
 31 21  1  0
 32 22  1  0
 33  4  1  0
 34 29  1  0
 35  2  2  0
 36  5  2  0
 37  7  2  0
 38 11  2  0
 39  9  2  0
 40 16  2  0
 12 41  1  0
 13 42  1  0
 43 17  2  0
 44 19  2  0
 45 20  2  0
 46 26  2  0
 23 47  1  0
 25 48  1  0
 49 29  2  0
 18 50  1  0
 24 51  1  0
 52  1  1  0
 53 66  1  0
 54 53  2  3
 55  3  1  0
 56  6  1  0
 57  8  1  0
 58 10  1  0
 59 33  1  0
 60 15  1  0
 33 61  1  0
 62 22  1  0
 31 63  1  0
 30 64  1  0
 65 71  1  0
 66 59  1  0
 67 41  1  0
 68 42  1  0
 69 48  1  0
 70 47  1  0
 71 54  1  0
 34 72  1  0
 73 50  1  0
 74 50  1  0
 75 51  1  0
 76 51  1  0
 59 77  1  0
 78 70  1  0
 79 69  1  0
 80 68  1  0
 81 68  1  0
 82 69  1  0
 83 67  1  0
 84 67  1  0
 85 70  1  0
 86 63  1  0
 19 23  1  0
M  END
>  <Classification>  (701) 
0

>  <pchembl>  (701) 
4.3

>  <InChI_steorem>  (701) 
InChI=1S/C62H111N11O13/c1-24-43-58(82)67(17)33-48(75)68(18)44(29-34(2)3)55(79)66-49(38(10)11)61(85)69(19)45(30-35(4)5)54(78)63-41(15)53(77)64-42(16)57(81)70(20)46(31-36(6)7)59(83)71(21)47(32-37(8)9)60(84)72(22)50(39(12)13)62(86)73(23)51(56(80)65-43)52(76)40(14)27-25-26-28-74/h25-26,34-47,49-52,74,76H,24,27-33H2,1-23H3,(H,63,78)(H,64,77)(H,65,80)(H,66,79)

>  <source>  (701) 
ChEMBL25

>  <source_id>  (701) 
25

>  <optional_reference>  (701) 
10.1021/jm0109863

>  <optional_origin>  (701) 
None

>  <target>  (701) 
MDR1

$$$$

     RDKit          2D

 85 85  0  0  0  0  0  0  0  0999 V2000
    2.4066    2.6842    0.0000 N   0  0  0  0  0  0  0  0  0  0  0  0
    1.7821    2.1451    0.0000 C   0  0  0  0  0  0  0  0  0  0  0  0
    0.4522    1.4191    0.0000 N   0  0  0  0  0  0  0  0  0  0  0  0
    3.1123    2.2569    0.0000 C   0  0  0  0  0  0  0  0  0  0  0  0
    2.9239    1.4537    0.0000 C   0  0  0  0  0  0  0  0  0  0  0  0
    3.3241    0.6444    0.0000 N   0  0  0  0  0  0  0  0  0  0  0  0
    1.9226   -7.1872    0.0000 N   0  0  0  0  0  0  0  0  0  0  0  0
    2.7474   -7.2044    0.0000 C   0  0  0  0  0  0  0  0  0  0  0  0
    0.3626   -2.8668    0.0000 N   0  0  0  0  0  0  0  0  0  0  0  0
    2.8968   -0.0613    0.0000 C   0  0  0  0  0  0  0  0  0  0  0  0
    0.8497    0.6962    0.0000 C   0  0  0  0  0  0  0  0  0  0  0  0
    3.2942   -0.7842    0.0000 C   0  0  0  0  0  0  0  0  0  0  0  0
    2.7773   -5.7758    0.0000 N   0  0  0  0  0  0  0  0  0  0  0  0
    3.2345   -3.6415    0.0000 N   0  0  0  0  0  0  0  0  0  0  0  0
    0.7600   -3.5897    0.0000 C   0  0  0  0  0  0  0  0  0  0  0  0
    3.2046   -5.0701    0.0000 C   0  0  0  0  0  0  0  0  0  0  0  0
    0.8795    2.1248    0.0000 C   0  0  0  0  0  0  0  0  0  0  0  0
    0.3924   -1.4382    0.0000 C   0  0  0  0  0  0  0  0  0  0  0  0
    0.6704   -7.8756    0.0000 C   0  0  0  0  0  0  0  0  0  0  0  0
    2.8669   -1.4899    0.0000 N   0  0  0  0  0  0  0  0  0  0  0  0
    2.8370   -2.9185    0.0000 C   0  0  0  0  0  0  0  0  0  0  0  0
    0.8198   -0.7325    0.0000 N   0  0  0  0  0  0  0  0  0  0  0  0
    1.4952   -7.8929    0.0000 C   0  0  0  0  0  0  0  0  0  0  0  0
    0.7899   -2.1611    0.0000 C   0  0  0  0  0  0  0  0  0  0  0  0
    3.1747   -6.4987    0.0000 C   0  0  0  0  0  0  0  0  0  0  0  0
    2.8072   -4.3472    0.0000 C   0  0  0  0  0  0  0  0  0  0  0  0
    0.2729   -7.1527    0.0000 N   0  0  0  0  0  0  0  0  0  0  0  0
    0.7302   -5.0184    0.0000 N   0  0  0  0  0  0  0  0  0  0  0  0
    0.4223   -0.0095    0.0000 C   0  0  0  0  0  0  0  0  0  0  0  0
    0.3028   -5.7241    0.0000 C   0  0  0  0  0  0  0  0  0  0  0  0
    0.3327   -4.2954    0.0000 C   0  0  0  0  0  0  0  0  0  0  0  0
    3.2644   -2.2129    0.0000 C   0  0  0  0  0  0  0  0  0  0  0  0
    3.8728    2.5766    0.0000 C   0  0  0  0  0  0  0  0  0  0  0  0
    0.7003   -6.4470    0.0000 C   0  0  0  0  0  0  0  0  0  0  0  0
    2.0784    1.3751    0.0000 O   0  0  0  0  0  0  0  0  0  0  0  0
    2.1735    1.1108    0.0000 O   0  0  0  0  0  0  0  0  0  0  0  0
    3.1449   -7.9274    0.0000 O   0  0  0  0  0  0  0  0  0  0  0  0
    1.6745    0.6789    0.0000 O   0  0  0  0  0  0  0  0  0  0  0  0
    4.1191   -0.8015    0.0000 O   0  0  0  0  0  0  0  0  0  0  0  0
    1.5849   -3.6070    0.0000 O   0  0  0  0  0  0  0  0  0  0  0  0
    4.0294   -5.0874    0.0000 O   0  0  0  0  0  0  0  0  0  0  0  0
    0.2431   -8.5813    0.0000 O   0  0  0  0  0  0  0  0  0  0  0  0
   -0.4324   -1.4209    0.0000 O   0  0  0  0  0  0  0  0  0  0  0  0
    2.0122   -2.9013    0.0000 O   0  0  0  0  0  0  0  0  0  0  0  0
   -0.0349   -2.1439    0.0000 C   0  0  0  0  0  0  0  0  0  0  0  0
    1.8927   -8.6158    0.0000 C   0  0  0  0  0  0  0  0  0  0  0  0
    3.6320   -4.3644    0.0000 C   0  0  0  0  0  0  0  0  0  0  0  0
   -0.4025    0.0077    0.0000 C   0  0  0  0  0  0  0  0  0  0  0  0
   -0.5220   -5.7068    0.0000 O   0  0  0  0  0  0  0  0  0  0  0  0
    3.7216   -0.0785    0.0000 C   0  0  0  0  0  0  0  0  0  0  0  0
    0.4665    2.8389    0.0000 C   0  0  0  0  0  0  0  0  0  0  0  0
    3.9996   -6.5160    0.0000 C   0  0  0  0  0  0  0  0  0  0  0  0
    2.3375    3.5063    0.0000 C   0  0  0  0  0  0  0  0  0  0  0  0
    4.8401    4.5333    0.0000 C   0  0  0  0  0  0  0  0  0  0  0  0
    5.6006    4.8530    0.0000 C   0  0  0  0  0  0  0  0  0  0  0  0
   -0.3726    1.4363    0.0000 C   0  0  0  0  0  0  0  0  0  0  0  0
    1.5251   -6.4642    0.0000 C   0  0  0  0  0  0  0  0  0  0  0  0
   -0.3149   -3.3377    0.0000 C   0  0  0  0  0  0  0  0  0  0  0  0
    3.9762    3.3951    0.0000 C   0  0  0  0  0  0  0  0  0  0  0  0
    3.9119   -3.1706    0.0000 C   0  0  0  0  0  0  0  0  0  0  0  0
    4.5300    2.0778    0.0000 O   0  0  0  0  0  0  0  0  0  0  0  0
    2.0421   -1.4727    0.0000 C   0  0  0  0  0  0  0  0  0  0  0  0
    4.1489    0.6272    0.0000 O   0  0  0  0  0  0  0  0  0  0  0  0
   -0.4921   -4.2782    0.0000 C   0  0  0  0  0  0  0  0  0  0  0  0
    4.7367    3.7148    0.0000 C   0  0  0  0  0  0  0  0  0  0  0  0
    1.4654   -9.3215    0.0000 C   0  0  0  0  0  0  0  0  0  0  0  0
    4.0593   -3.6587    0.0000 C   0  0  0  0  0  0  0  0  0  0  0  0
   -0.4623   -2.8496    0.0000 C   0  0  0  0  0  0  0  0  0  0  0  0
   -0.8000    0.7306    0.0000 C   0  0  0  0  0  0  0  0  0  0  0  0
    1.3777   -5.9761    0.0000 C   0  0  0  0  0  0  0  0  0  0  0  0
    5.7040    5.6715    0.0000 C   0  0  0  0  0  0  0  0  0  0  0  0
    4.4681   -0.4298    0.0000 C   0  0  0  0  0  0  0  0  0  0  0  0
    0.8784    3.5537    0.0000 C   0  0  0  0  0  0  0  0  0  0  0  0
   -0.3585    2.8383    0.0000 C   0  0  0  0  0  0  0  0  0  0  0  0
    4.4269   -5.8103    0.0000 C   0  0  0  0  0  0  0  0  0  0  0  0
    4.3970   -7.2389    0.0000 C   0  0  0  0  0  0  0  0  0  0  0  0
    3.3190    3.8939    0.0000 C   0  0  0  0  0  0  0  0  0  0  0  0
    1.8628  -10.0444    0.0000 C   0  0  0  0  0  0  0  0  0  0  0  0
   -0.5656   -3.6680    0.0000 C   0  0  0  0  0  0  0  0  0  0  0  0
   -1.6248    0.7479    0.0000 C   0  0  0  0  0  0  0  0  0  0  0  0
   -0.8690    1.5528    0.0000 C   0  0  0  0  0  0  0  0  0  0  0  0
   -1.2871   -2.8323    0.0000 C   0  0  0  0  0  0  0  0  0  0  0  0
    0.6405   -9.3043    0.0000 C   0  0  0  0  0  0  0  0  0  0  0  0
    4.1627   -2.8402    0.0000 C   0  0  0  0  0  0  0  0  0  0  0  0
    4.8841   -3.6760    0.0000 C   0  0  0  0  0  0  0  0  0  0  0  0
  2  1  1  0
  3 17  1  0
  4  1  1  0
  5  4  1  0
  6  5  1  0
  7  8  1  0
  8 25  1  0
  9 24  1  0
 10  6  1  0
 11  3  1  0
 12 10  1  0
 13 16  1  0
 14 21  1  0
 15  9  1  0
 16 26  1  0
 17  2  1  0
 18 22  1  0
 19 27  1  0
 20 12  1  0
 21 32  1  0
 22 29  1  0
 23  7  1  0
 24 18  1  0
 25 13  1  0
 26 14  1  0
 27 34  1  0
 28 31  1  0
 29 11  1  0
 30 28  1  0
 31 15  1  0
 32 20  1  0
 33  4  1  0
 34 30  1  0
 35  2  2  0
 36  5  2  0
 37  8  2  0
 38 11  2  0
 39 12  2  0
 40 15  2  0
 41 16  2  0
 42 19  2  0
 43 18  2  0
 44 21  2  0
 24 45  1  0
 23 46  1  0
 26 47  1  0
 29 48  1  0
 49 30  2  0
 10 50  1  0
 17 51  1  0
 25 52  1  0
 53  1  1  0
 54 65  1  0
 55 54  2  3
 56  3  1  0
 57  7  1  0
 58  9  1  0
 59 33  1  0
 60 14  1  0
 33 61  1  0
 62 20  1  0
 50 63  1  0
 31 64  1  0
 65 59  1  0
 66 46  1  0
 67 47  1  0
 68 45  1  0
 69 48  1  0
 34 70  1  0
 71 55  1  0
 72 50  1  0
 73 51  1  0
 74 51  1  0
 75 52  1  0
 76 52  1  0
 59 77  1  0
 78 66  1  0
 79 68  1  0
 80 69  1  0
 81 69  1  0
 82 68  1  0
 83 66  1  0
 84 67  1  0
 85 67  1  0
 19 23  1  0
M  END
>  <Classification>  (702) 
0

>  <pchembl>  (702) 
4.85

>  <InChI_steorem>  (702) 
InChI=1S/C61H109N11O13/c1-24-25-26-38(14)51(75)50-56(80)66-48(41(17)73)59(83)67(18)31-46(74)68(19)43(28-33(4)5)55(79)65-47(36(10)11)60(84)70(21)44(29-34(6)7)53(77)62-39(15)52(76)63-40(16)57(81)69(20)45(30-35(8)9)54(78)64-42(27-32(2)3)58(82)71(22)49(37(12)13)61(85)72(50)23/h24-25,32-45,47-51,73,75H,26-31H2,1-23H3,(H,62,77)(H,63,76)(H,64,78)(H,65,79)(H,66,80)

>  <source>  (702) 
ChEMBL25

>  <source_id>  (702) 
25

>  <optional_reference>  (702) 
10.1021/jm0109863

>  <optional_origin>  (702) 
None

>  <target>  (702) 
MDR1

$$$$

     RDKit          2D

 85 85  0  0  0  0  0  0  0  0999 V2000
    2.5136    2.7202    0.0000 N   0  0  0  0  0  0  0  0  0  0  0  0
    1.8892    2.1811    0.0000 C   0  0  0  0  0  0  0  0  0  0  0  0
    0.9866    2.1608    0.0000 C   0  0  0  0  0  0  0  0  0  0  0  0
    3.2193    2.2928    0.0000 C   0  0  0  0  0  0  0  0  0  0  0  0
    3.3714   -2.1769    0.0000 C   0  0  0  0  0  0  0  0  0  0  0  0
    3.3415   -3.6055    0.0000 N   0  0  0  0  0  0  0  0  0  0  0  0
    0.5592    1.4551    0.0000 N   0  0  0  0  0  0  0  0  0  0  0  0
    2.9739   -1.4539    0.0000 N   0  0  0  0  0  0  0  0  0  0  0  0
    0.3800   -7.1167    0.0000 N   0  0  0  0  0  0  0  0  0  0  0  0
    0.8073   -6.4110    0.0000 C   0  0  0  0  0  0  0  0  0  0  0  0
    0.9567    0.7321    0.0000 C   0  0  0  0  0  0  0  0  0  0  0  0
    0.5294    0.0264    0.0000 C   0  0  0  0  0  0  0  0  0  0  0  0
    2.9441   -2.8826    0.0000 C   0  0  0  0  0  0  0  0  0  0  0  0
    0.8372   -4.9824    0.0000 N   0  0  0  0  0  0  0  0  0  0  0  0
    3.4312    0.6804    0.0000 N   0  0  0  0  0  0  0  0  0  0  0  0
    0.4696   -2.8308    0.0000 N   0  0  0  0  0  0  0  0  0  0  0  0
    2.9142   -4.3112    0.0000 C   0  0  0  0  0  0  0  0  0  0  0  0
    3.0038   -0.0253    0.0000 C   0  0  0  0  0  0  0  0  0  0  0  0
    0.4397   -4.2595    0.0000 C   0  0  0  0  0  0  0  0  0  0  0  0
    1.6023   -7.8569    0.0000 C   0  0  0  0  0  0  0  0  0  0  0  0
    0.9268   -0.6965    0.0000 N   0  0  0  0  0  0  0  0  0  0  0  0
    0.8970   -2.1251    0.0000 C   0  0  0  0  0  0  0  0  0  0  0  0
    3.4013   -0.7482    0.0000 C   0  0  0  0  0  0  0  0  0  0  0  0
    0.7775   -7.8396    0.0000 C   0  0  0  0  0  0  0  0  0  0  0  0
    3.0310    1.4896    0.0000 C   0  0  0  0  0  0  0  0  0  0  0  0
    0.4099   -5.6881    0.0000 C   0  0  0  0  0  0  0  0  0  0  0  0
    0.8671   -3.5538    0.0000 C   0  0  0  0  0  0  0  0  0  0  0  0
    2.0296   -7.1512    0.0000 N   0  0  0  0  0  0  0  0  0  0  0  0
    2.8843   -5.7398    0.0000 N   0  0  0  0  0  0  0  0  0  0  0  0
    3.2818   -6.4628    0.0000 C   0  0  0  0  0  0  0  0  0  0  0  0
    3.3117   -5.0341    0.0000 C   0  0  0  0  0  0  0  0  0  0  0  0
    0.4995   -1.4022    0.0000 C   0  0  0  0  0  0  0  0  0  0  0  0
    1.5929    2.9510    0.0000 C   0  0  0  0  0  0  0  0  0  0  0  0
    2.8545   -7.1685    0.0000 C   0  0  0  0  0  0  0  0  0  0  0  0
    3.9799    2.6126    0.0000 O   0  0  0  0  0  0  0  0  0  0  0  0
    4.1962   -2.1941    0.0000 O   0  0  0  0  0  0  0  0  0  0  0  0
    0.5735    2.8749    0.0000 O   0  0  0  0  0  0  0  0  0  0  0  0
    1.6322   -6.4283    0.0000 O   0  0  0  0  0  0  0  0  0  0  0  0
   -0.2955    0.0437    0.0000 O   0  0  0  0  0  0  0  0  0  0  0  0
    2.0894   -4.2939    0.0000 O   0  0  0  0  0  0  0  0  0  0  0  0
    3.7689   -2.8998    0.0000 C   0  0  0  0  0  0  0  0  0  0  0  0
   -0.3851   -4.2422    0.0000 O   0  0  0  0  0  0  0  0  0  0  0  0
    2.1790   -0.0081    0.0000 O   0  0  0  0  0  0  0  0  0  0  0  0
    1.9998   -8.5798    0.0000 O   0  0  0  0  0  0  0  0  0  0  0  0
    1.7218   -2.1424    0.0000 O   0  0  0  0  0  0  0  0  0  0  0  0
    0.3501   -8.5453    0.0000 C   0  0  0  0  0  0  0  0  0  0  0  0
    4.2261   -0.7655    0.0000 C   0  0  0  0  0  0  0  0  0  0  0  0
    0.0423   -3.5365    0.0000 C   0  0  0  0  0  0  0  0  0  0  0  0
    4.1066   -6.4800    0.0000 O   0  0  0  0  0  0  0  0  0  0  0  0
    0.1319    0.7494    0.0000 C   0  0  0  0  0  0  0  0  0  0  0  0
    3.8506    1.5839    0.0000 C   0  0  0  0  0  0  0  0  0  0  0  0
   -0.4150   -5.6708    0.0000 C   0  0  0  0  0  0  0  0  0  0  0  0
    2.4446    3.5423    0.0000 C   0  0  0  0  0  0  0  0  0  0  0  0
    2.3339    5.0041    0.0000 C   0  0  0  0  0  0  0  0  0  0  0  0
    3.1489    4.8758    0.0000 C   0  0  0  0  0  0  0  0  0  0  0  0
    3.9987   -4.1043    0.0000 C   0  0  0  0  0  0  0  0  0  0  0  0
   -0.4448   -7.0995    0.0000 C   0  0  0  0  0  0  0  0  0  0  0  0
    2.1491   -1.4367    0.0000 C   0  0  0  0  0  0  0  0  0  0  0  0
    2.1115    3.5926    0.0000 C   0  0  0  0  0  0  0  0  0  0  0  0
   -0.1875   -2.3321    0.0000 C   0  0  0  0  0  0  0  0  0  0  0  0
    0.7779    3.0794    0.0000 O   0  0  0  0  0  0  0  0  0  0  0  0
    1.7517   -0.7137    0.0000 C   0  0  0  0  0  0  0  0  0  0  0  0
   -0.2656    1.4723    0.0000 O   0  0  0  0  0  0  0  0  0  0  0  0
    4.1365   -5.0514    0.0000 C   0  0  0  0  0  0  0  0  0  0  0  0
    1.8153    4.3626    0.0000 C   0  0  0  0  0  0  0  0  0  0  0  0
    4.1664   -3.6228    0.0000 C   0  0  0  0  0  0  0  0  0  0  0  0
    4.6535   -0.0598    0.0000 C   0  0  0  0  0  0  0  0  0  0  0  0
   -0.3552   -2.8136    0.0000 C   0  0  0  0  0  0  0  0  0  0  0  0
    0.7476   -9.2683    0.0000 C   0  0  0  0  0  0  0  0  0  0  0  0
    3.2519   -7.8914    0.0000 C   0  0  0  0  0  0  0  0  0  0  0  0
    3.6675    5.5173    0.0000 C   0  0  0  0  0  0  0  0  0  0  0  0
   -0.6286    0.4296    0.0000 C   0  0  0  0  0  0  0  0  0  0  0  0
   -0.8124   -4.9479    0.0000 C   0  0  0  0  0  0  0  0  0  0  0  0
   -0.8423   -6.3765    0.0000 C   0  0  0  0  0  0  0  0  0  0  0  0
    4.1788    2.3408    0.0000 C   0  0  0  0  0  0  0  0  0  0  0  0
    4.3420    0.9212    0.0000 C   0  0  0  0  0  0  0  0  0  0  0  0
    2.8463    3.9678    0.0000 C   0  0  0  0  0  0  0  0  0  0  0  0
    4.9912   -3.6400    0.0000 C   0  0  0  0  0  0  0  0  0  0  0  0
   -1.1800   -2.7963    0.0000 C   0  0  0  0  0  0  0  0  0  0  0  0
   -0.4243   -1.9915    0.0000 C   0  0  0  0  0  0  0  0  0  0  0  0
    1.5724   -9.2855    0.0000 C   0  0  0  0  0  0  0  0  0  0  0  0
    0.3202   -9.9740    0.0000 C   0  0  0  0  0  0  0  0  0  0  0  0
    4.2354   -4.4449    0.0000 C   0  0  0  0  0  0  0  0  0  0  0  0
    4.7568    0.7587    0.0000 C   0  0  0  0  0  0  0  0  0  0  0  0
    5.4783   -0.0770    0.0000 C   0  0  0  0  0  0  0  0  0  0  0  0
  2  1  1  0
  3  2  1  0
  4  1  1  0
  5  8  1  0
  6 13  1  0
  7  3  1  0
  8 23  1  0
  9 10  1  0
 10 26  1  0
 11  7  1  0
 12 11  1  0
 13  5  1  0
 14 19  1  0
 15 25  1  0
 16 22  1  0
 17  6  1  0
 18 15  1  0
 19 27  1  0
 20 28  1  0
 21 12  1  0
 22 32  1  0
 23 18  1  0
 24  9  1  0
 25  4  1  0
 26 14  1  0
 27 16  1  0
 28 34  1  0
 31 29  1  0
 30 29  1  0
 31 17  1  0
 32 21  1  0
 33  2  1  0
 34 30  1  0
 35  4  2  0
 36  5  2  0
 37  3  2  0
 38 10  2  0
 39 12  2  0
 40 17  2  0
 13 41  1  0
 42 19  2  0
 43 18  2  0
 44 20  2  0
 45 22  2  0
 24 46  1  0
 23 47  1  0
 27 48  1  0
 49 30  2  0
 11 50  1  0
 25 51  1  0
 26 52  1  0
 53  1  1  0
 54 65  1  0
 55 54  2  3
 56  6  1  0
 57  9  1  0
 58  8  1  0
 59 33  1  0
 60 16  1  0
 33 61  1  0
 62 21  1  0
 50 63  1  0
 31 64  1  0
 65 59  1  0
 66 41  1  0
 67 47  1  0
 68 48  1  0
 69 46  1  0
 34 70  1  0
 71 55  1  0
 50 72  1  0
 73 52  1  0
 74 52  1  0
 75 51  1  0
 76 51  1  0
 59 77  1  0
 78 66  1  0
 79 68  1  0
 80 68  1  0
 81 69  1  0
 82 69  1  0
 83 66  1  0
 84 67  1  0
 85 67  1  0
 20 24  1  0
M  END
>  <Classification>  (703) 
0

>  <pchembl>  (703) 
4.72

>  <InChI_steorem>  (703) 
InChI=1S/C61H109N11O13/c1-24-25-26-38(14)51(75)50-56(80)66-49(41(17)73)59(83)67(18)31-46(74)68(19)42(27-32(2)3)54(78)64-47(36(10)11)60(84)70(21)43(28-33(4)5)53(77)62-39(15)52(76)63-40(16)57(81)71(22)45(30-35(8)9)58(82)69(20)44(29-34(6)7)55(79)65-48(37(12)13)61(85)72(50)23/h24-25,32-45,47-51,73,75H,26-31H2,1-23H3,(H,62,77)(H,63,76)(H,64,78)(H,65,79)(H,66,80)

>  <source>  (703) 
ChEMBL25

>  <source_id>  (703) 
25

>  <optional_reference>  (703) 
10.1021/jm0109863

>  <optional_origin>  (703) 
None

>  <target>  (703) 
MDR1

$$$$

     RDKit          2D

 86 86  0  0  0  0  0  0  0  0999 V2000
    2.3049    2.6600    0.0000 N   0  0  0  0  0  0  0  0  0  0  0  0
    1.6804    2.1209    0.0000 C   0  0  0  0  0  0  0  0  0  0  0  0
    0.3504    1.3949    0.0000 N   0  0  0  0  0  0  0  0  0  0  0  0
    3.0106    2.2326    0.0000 C   0  0  0  0  0  0  0  0  0  0  0  0
    0.7479    0.6719    0.0000 C   0  0  0  0  0  0  0  0  0  0  0  0
    0.7180   -0.7567    0.0000 N   0  0  0  0  0  0  0  0  0  0  0  0
    0.2907   -1.4624    0.0000 C   0  0  0  0  0  0  0  0  0  0  0  0
    0.2608   -2.8910    0.0000 N   0  0  0  0  0  0  0  0  0  0  0  0
    2.8222    1.4294    0.0000 C   0  0  0  0  0  0  0  0  0  0  0  0
    1.8208   -7.2114    0.0000 N   0  0  0  0  0  0  0  0  0  0  0  0
    2.6457   -7.2287    0.0000 C   0  0  0  0  0  0  0  0  0  0  0  0
    3.1029   -5.0943    0.0000 C   0  0  0  0  0  0  0  0  0  0  0  0
    2.6755   -5.8000    0.0000 N   0  0  0  0  0  0  0  0  0  0  0  0
    0.3206   -0.0338    0.0000 C   0  0  0  0  0  0  0  0  0  0  0  0
    0.6882   -2.1853    0.0000 C   0  0  0  0  0  0  0  0  0  0  0  0
    0.6583   -3.6140    0.0000 C   0  0  0  0  0  0  0  0  0  0  0  0
    3.1328   -3.6657    0.0000 N   0  0  0  0  0  0  0  0  0  0  0  0
    0.7778    2.1005    0.0000 C   0  0  0  0  0  0  0  0  0  0  0  0
    0.5687   -7.8999    0.0000 C   0  0  0  0  0  0  0  0  0  0  0  0
    2.7353   -2.9428    0.0000 C   0  0  0  0  0  0  0  0  0  0  0  0
    3.2224    0.6202    0.0000 N   0  0  0  0  0  0  0  0  0  0  0  0
    2.7652   -1.5141    0.0000 N   0  0  0  0  0  0  0  0  0  0  0  0
    1.3935   -7.9171    0.0000 C   0  0  0  0  0  0  0  0  0  0  0  0
    3.0730   -6.5230    0.0000 C   0  0  0  0  0  0  0  0  0  0  0  0
    3.1925   -0.8085    0.0000 C   0  0  0  0  0  0  0  0  0  0  0  0
    0.1712   -7.1769    0.0000 N   0  0  0  0  0  0  0  0  0  0  0  0
    0.6284   -5.0426    0.0000 N   0  0  0  0  0  0  0  0  0  0  0  0
    0.2011   -5.7483    0.0000 C   0  0  0  0  0  0  0  0  0  0  0  0
    2.7054   -4.3714    0.0000 C   0  0  0  0  0  0  0  0  0  0  0  0
    0.2309   -4.3197    0.0000 C   0  0  0  0  0  0  0  0  0  0  0  0
    2.7950   -0.0855    0.0000 C   0  0  0  0  0  0  0  0  0  0  0  0
    3.1626   -2.2371    0.0000 C   0  0  0  0  0  0  0  0  0  0  0  0
    3.7711    2.5524    0.0000 C   0  0  0  0  0  0  0  0  0  0  0  0
    0.5985   -6.4712    0.0000 C   0  0  0  0  0  0  0  0  0  0  0  0
    1.9766    1.3509    0.0000 O   0  0  0  0  0  0  0  0  0  0  0  0
    1.5727    0.6547    0.0000 O   0  0  0  0  0  0  0  0  0  0  0  0
   -0.5341   -1.4452    0.0000 O   0  0  0  0  0  0  0  0  0  0  0  0
    3.0431   -7.9516    0.0000 O   0  0  0  0  0  0  0  0  0  0  0  0
    2.0718    1.0866    0.0000 O   0  0  0  0  0  0  0  0  0  0  0  0
    3.9277   -5.1116    0.0000 O   0  0  0  0  0  0  0  0  0  0  0  0
   -0.1366   -2.1681    0.0000 C   0  0  0  0  0  0  0  0  0  0  0  0
    1.4831   -3.6312    0.0000 O   0  0  0  0  0  0  0  0  0  0  0  0
   -0.5042   -0.0165    0.0000 C   0  0  0  0  0  0  0  0  0  0  0  0
    0.1413   -8.6055    0.0000 O   0  0  0  0  0  0  0  0  0  0  0  0
    1.9105   -2.9255    0.0000 O   0  0  0  0  0  0  0  0  0  0  0  0
    4.0173   -0.8257    0.0000 O   0  0  0  0  0  0  0  0  0  0  0  0
    1.7910   -8.6400    0.0000 C   0  0  0  0  0  0  0  0  0  0  0  0
   -0.6237   -5.7310    0.0000 O   0  0  0  0  0  0  0  0  0  0  0  0
    0.3647    2.8147    0.0000 C   0  0  0  0  0  0  0  0  0  0  0  0
    3.8978   -6.5402    0.0000 C   0  0  0  0  0  0  0  0  0  0  0  0
    2.2358    3.4821    0.0000 C   0  0  0  0  0  0  0  0  0  0  0  0
   -0.4744    1.4121    0.0000 C   0  0  0  0  0  0  0  0  0  0  0  0
    5.8459    1.8745    0.0000 C   0  0  0  0  0  0  0  0  0  0  0  0
    5.7425    1.0560    0.0000 C   0  0  0  0  0  0  0  0  0  0  0  0
    3.5302   -4.3887    0.0000 C   0  0  0  0  0  0  0  0  0  0  0  0
    1.5429   -0.7740    0.0000 C   0  0  0  0  0  0  0  0  0  0  0  0
   -0.4166   -3.3619    0.0000 C   0  0  0  0  0  0  0  0  0  0  0  0
    1.4234   -6.4885    0.0000 C   0  0  0  0  0  0  0  0  0  0  0  0
    4.4282    2.0536    0.0000 C   0  0  0  0  0  0  0  0  0  0  0  0
    3.8102   -3.1948    0.0000 C   0  0  0  0  0  0  0  0  0  0  0  0
    3.8745    3.3709    0.0000 O   0  0  0  0  0  0  0  0  0  0  0  0
    1.9403   -1.4969    0.0000 C   0  0  0  0  0  0  0  0  0  0  0  0
    3.6199   -0.1028    0.0000 C   0  0  0  0  0  0  0  0  0  0  0  0
   -0.5939   -4.3024    0.0000 C   0  0  0  0  0  0  0  0  0  0  0  0
    5.1888    2.3733    0.0000 C   0  0  0  0  0  0  0  0  0  0  0  0
   -0.5640   -2.8738    0.0000 C   0  0  0  0  0  0  0  0  0  0  0  0
   -0.9017    0.7064    0.0000 C   0  0  0  0  0  0  0  0  0  0  0  0
    1.3636   -9.3457    0.0000 C   0  0  0  0  0  0  0  0  0  0  0  0
    1.2760   -6.0004    0.0000 C   0  0  0  0  0  0  0  0  0  0  0  0
    6.3997    0.5573    0.0000 C   0  0  0  0  0  0  0  0  0  0  0  0
    3.9576   -3.6830    0.0000 C   0  0  0  0  0  0  0  0  0  0  0  0
    4.3252   -5.8345    0.0000 C   0  0  0  0  0  0  0  0  0  0  0  0
    0.7766    3.5295    0.0000 C   0  0  0  0  0  0  0  0  0  0  0  0
   -0.4603    2.8140    0.0000 C   0  0  0  0  0  0  0  0  0  0  0  0
    4.2953   -7.2632    0.0000 C   0  0  0  0  0  0  0  0  0  0  0  0
    4.2767   -4.7399    0.0000 C   0  0  0  0  0  0  0  0  0  0  0  0
    4.3249    1.2351    0.0000 C   0  0  0  0  0  0  0  0  0  0  0  0
   -1.7265    0.7237    0.0000 C   0  0  0  0  0  0  0  0  0  0  0  0
    1.7611  -10.0687    0.0000 C   0  0  0  0  0  0  0  0  0  0  0  0
   -0.6674   -3.6923    0.0000 C   0  0  0  0  0  0  0  0  0  0  0  0
   -1.3888   -2.8565    0.0000 C   0  0  0  0  0  0  0  0  0  0  0  0
    0.5388   -9.3285    0.0000 C   0  0  0  0  0  0  0  0  0  0  0  0
   -0.9708    1.5285    0.0000 C   0  0  0  0  0  0  0  0  0  0  0  0
    4.0472    0.6029    0.0000 C   0  0  0  0  0  0  0  0  0  0  0  0
    7.1602    0.8770    0.0000 C   0  0  0  0  0  0  0  0  0  0  0  0
    4.7824   -3.7002    0.0000 C   0  0  0  0  0  0  0  0  0  0  0  0
  2  1  1  0
  3 18  1  0
  4  1  1  0
  5  3  1  0
  6 14  1  0
  7  6  1  0
  8 15  1  0
  9  4  1  0
 10 11  1  0
 11 24  1  0
 12 29  1  0
 13 12  1  0
 14  5  1  0
 15  7  1  0
 16  8  1  0
 17 20  1  0
 18  2  1  0
 19 26  1  0
 20 32  1  0
 21  9  1  0
 22 25  1  0
 23 10  1  0
 24 13  1  0
 25 31  1  0
 26 34  1  0
 27 30  1  0
 28 27  1  0
 29 17  1  0
 30 16  1  0
 31 21  1  0
 32 22  1  0
 33  4  1  0
 34 28  1  0
 35  2  2  0
 36  5  2  0
 37  7  2  0
 38 11  2  0
 39  9  2  0
 40 12  2  0
 15 41  1  0
 42 16  2  0
 14 43  1  0
 44 19  2  0
 45 20  2  0
 46 25  2  0
 23 47  1  0
 48 28  2  0
 18 49  1  0
 24 50  1  0
 51  1  1  0
 52  3  1  0
 53 65  1  0
 54 53  2  3
 29 55  1  0
 56  6  1  0
 57  8  1  0
 58 10  1  0
 59 33  1  0
 60 17  1  0
 33 61  1  0
 62 22  1  0
 31 63  1  0
 30 64  1  0
 65 59  1  0
 66 41  1  0
 67 43  1  0
 68 47  1  0
 34 69  1  0
 70 54  1  0
 71 55  1  0
 72 50  1  0
 73 49  1  0
 74 49  1  0
 75 50  1  0
 55 76  1  0
 59 77  1  0
 78 67  1  0
 79 68  1  0
 80 66  1  0
 81 66  1  0
 82 68  1  0
 83 67  1  0
 84 63  1  0
 85 70  1  0
 86 71  1  0
 19 23  1  0
M  END
>  <Classification>  (704) 
1

>  <pchembl>  (704) 
5.19

>  <InChI_steorem>  (704) 
InChI=1S/C63H113N11O12/c1-25-28-29-30-41(15)53(76)52-57(80)66-44(27-3)59(82)68(18)34-48(75)72(22)51(40(14)26-2)56(79)67-49(38(10)11)62(85)69(19)45(31-35(4)5)55(78)64-42(16)54(77)65-43(17)58(81)70(20)46(32-36(6)7)60(83)71(21)47(33-37(8)9)61(84)73(23)50(39(12)13)63(86)74(52)24/h28-29,35-47,49-53,76H,25-27,30-34H2,1-24H3,(H,64,78)(H,65,77)(H,66,80)(H,67,79)

>  <source>  (704) 
ChEMBL25

>  <source_id>  (704) 
25

>  <optional_reference>  (704) 
10.1021/jm0109863

>  <optional_origin>  (704) 
None

>  <target>  (704) 
MDR1

$$$$

     RDKit          2D

 87 87  0  0  0  0  0  0  0  0999 V2000
    2.3157    2.6816    0.0000 N   0  0  0  0  0  0  0  0  0  0  0  0
    1.6912    2.1425    0.0000 C   0  0  0  0  0  0  0  0  0  0  0  0
    0.3613    1.4165    0.0000 N   0  0  0  0  0  0  0  0  0  0  0  0
    3.0214    2.2542    0.0000 C   0  0  0  0  0  0  0  0  0  0  0  0
    0.7588    0.6935    0.0000 C   0  0  0  0  0  0  0  0  0  0  0  0
    0.7289   -0.7351    0.0000 N   0  0  0  0  0  0  0  0  0  0  0  0
    0.3015   -1.4408    0.0000 C   0  0  0  0  0  0  0  0  0  0  0  0
    0.2717   -2.8694    0.0000 N   0  0  0  0  0  0  0  0  0  0  0  0
    2.8330    1.4510    0.0000 C   0  0  0  0  0  0  0  0  0  0  0  0
    1.8317   -7.1898    0.0000 N   0  0  0  0  0  0  0  0  0  0  0  0
    2.6565   -7.2071    0.0000 C   0  0  0  0  0  0  0  0  0  0  0  0
    0.3314   -0.0122    0.0000 C   0  0  0  0  0  0  0  0  0  0  0  0
    0.6990   -2.1637    0.0000 C   0  0  0  0  0  0  0  0  0  0  0  0
    2.6864   -5.7784    0.0000 N   0  0  0  0  0  0  0  0  0  0  0  0
    3.1436   -3.6441    0.0000 N   0  0  0  0  0  0  0  0  0  0  0  0
    0.6691   -3.5924    0.0000 C   0  0  0  0  0  0  0  0  0  0  0  0
    3.1137   -5.0727    0.0000 C   0  0  0  0  0  0  0  0  0  0  0  0
    0.7886    2.1222    0.0000 C   0  0  0  0  0  0  0  0  0  0  0  0
    0.5795   -7.8783    0.0000 C   0  0  0  0  0  0  0  0  0  0  0  0
    2.7461   -2.9212    0.0000 C   0  0  0  0  0  0  0  0  0  0  0  0
    3.2332    0.6418    0.0000 N   0  0  0  0  0  0  0  0  0  0  0  0
    2.7760   -1.4925    0.0000 N   0  0  0  0  0  0  0  0  0  0  0  0
    1.4043   -7.8955    0.0000 C   0  0  0  0  0  0  0  0  0  0  0  0
    3.0838   -6.5014    0.0000 C   0  0  0  0  0  0  0  0  0  0  0  0
    2.7162   -4.3498    0.0000 C   0  0  0  0  0  0  0  0  0  0  0  0
    3.2033   -0.7868    0.0000 C   0  0  0  0  0  0  0  0  0  0  0  0
    0.1820   -7.1553    0.0000 N   0  0  0  0  0  0  0  0  0  0  0  0
    0.6393   -5.0210    0.0000 N   0  0  0  0  0  0  0  0  0  0  0  0
    0.2119   -5.7267    0.0000 C   0  0  0  0  0  0  0  0  0  0  0  0
    0.2418   -4.2981    0.0000 C   0  0  0  0  0  0  0  0  0  0  0  0
    2.8059   -0.0639    0.0000 C   0  0  0  0  0  0  0  0  0  0  0  0
    3.1735   -2.2155    0.0000 C   0  0  0  0  0  0  0  0  0  0  0  0
    3.7819    2.5740    0.0000 C   0  0  0  0  0  0  0  0  0  0  0  0
    0.6094   -6.4496    0.0000 C   0  0  0  0  0  0  0  0  0  0  0  0
    1.9875    1.3725    0.0000 O   0  0  0  0  0  0  0  0  0  0  0  0
    1.5836    0.6763    0.0000 O   0  0  0  0  0  0  0  0  0  0  0  0
   -0.5233   -1.4235    0.0000 O   0  0  0  0  0  0  0  0  0  0  0  0
    3.0540   -7.9300    0.0000 O   0  0  0  0  0  0  0  0  0  0  0  0
    2.0826    1.1082    0.0000 O   0  0  0  0  0  0  0  0  0  0  0  0
   -0.1258   -2.1465    0.0000 C   0  0  0  0  0  0  0  0  0  0  0  0
    1.4940   -3.6096    0.0000 O   0  0  0  0  0  0  0  0  0  0  0  0
   -0.4934    0.0051    0.0000 C   0  0  0  0  0  0  0  0  0  0  0  0
    3.9385   -5.0900    0.0000 O   0  0  0  0  0  0  0  0  0  0  0  0
    0.1522   -8.5839    0.0000 O   0  0  0  0  0  0  0  0  0  0  0  0
    1.9213   -2.9039    0.0000 O   0  0  0  0  0  0  0  0  0  0  0  0
    4.0282   -0.8041    0.0000 O   0  0  0  0  0  0  0  0  0  0  0  0
    1.8018   -8.6184    0.0000 C   0  0  0  0  0  0  0  0  0  0  0  0
    3.5411   -4.3670    0.0000 C   0  0  0  0  0  0  0  0  0  0  0  0
   -0.6129   -5.7094    0.0000 O   0  0  0  0  0  0  0  0  0  0  0  0
    0.3756    2.8363    0.0000 C   0  0  0  0  0  0  0  0  0  0  0  0
    3.9087   -6.5186    0.0000 C   0  0  0  0  0  0  0  0  0  0  0  0
    2.2466    3.5037    0.0000 C   0  0  0  0  0  0  0  0  0  0  0  0
    5.8567    1.8961    0.0000 C   0  0  0  0  0  0  0  0  0  0  0  0
   -0.4635    1.4337    0.0000 C   0  0  0  0  0  0  0  0  0  0  0  0
    5.7534    1.0776    0.0000 C   0  0  0  0  0  0  0  0  0  0  0  0
    1.5537   -0.7524    0.0000 C   0  0  0  0  0  0  0  0  0  0  0  0
   -0.4058   -3.3403    0.0000 C   0  0  0  0  0  0  0  0  0  0  0  0
    1.4342   -6.4669    0.0000 C   0  0  0  0  0  0  0  0  0  0  0  0
    4.4391    2.0752    0.0000 C   0  0  0  0  0  0  0  0  0  0  0  0
    3.8210   -3.1732    0.0000 C   0  0  0  0  0  0  0  0  0  0  0  0
    3.8853    3.3925    0.0000 O   0  0  0  0  0  0  0  0  0  0  0  0
    1.9512   -1.4753    0.0000 C   0  0  0  0  0  0  0  0  0  0  0  0
    3.6307   -0.0812    0.0000 C   0  0  0  0  0  0  0  0  0  0  0  0
   -0.5830   -4.2808    0.0000 C   0  0  0  0  0  0  0  0  0  0  0  0
    5.1996    2.3949    0.0000 C   0  0  0  0  0  0  0  0  0  0  0  0
   -0.5532   -2.8522    0.0000 C   0  0  0  0  0  0  0  0  0  0  0  0
   -0.8909    0.7280    0.0000 C   0  0  0  0  0  0  0  0  0  0  0  0
    3.9684   -3.6614    0.0000 C   0  0  0  0  0  0  0  0  0  0  0  0
    1.3745   -9.3241    0.0000 C   0  0  0  0  0  0  0  0  0  0  0  0
   -0.2154   -6.4324    0.0000 C   0  0  0  0  0  0  0  0  0  0  0  0
    6.4105    0.5789    0.0000 C   0  0  0  0  0  0  0  0  0  0  0  0
    0.7875    3.5511    0.0000 C   0  0  0  0  0  0  0  0  0  0  0  0
    4.3360   -5.8129    0.0000 C   0  0  0  0  0  0  0  0  0  0  0  0
    4.3061   -7.2416    0.0000 C   0  0  0  0  0  0  0  0  0  0  0  0
   -0.4494    2.8356    0.0000 C   0  0  0  0  0  0  0  0  0  0  0  0
    4.3357    1.2567    0.0000 C   0  0  0  0  0  0  0  0  0  0  0  0
   -1.7157    0.7453    0.0000 C   0  0  0  0  0  0  0  0  0  0  0  0
   -0.6565   -3.6707    0.0000 C   0  0  0  0  0  0  0  0  0  0  0  0
   -1.3780   -2.8349    0.0000 C   0  0  0  0  0  0  0  0  0  0  0  0
    4.0718   -2.8429    0.0000 C   0  0  0  0  0  0  0  0  0  0  0  0
    4.7932   -3.6786    0.0000 C   0  0  0  0  0  0  0  0  0  0  0  0
   -0.9599    1.5501    0.0000 C   0  0  0  0  0  0  0  0  0  0  0  0
    1.7719  -10.0471    0.0000 C   0  0  0  0  0  0  0  0  0  0  0  0
    0.5496   -9.3069    0.0000 C   0  0  0  0  0  0  0  0  0  0  0  0
    4.0580    0.6245    0.0000 C   0  0  0  0  0  0  0  0  0  0  0  0
   -0.6428   -7.1381    0.0000 C   0  0  0  0  0  0  0  0  0  0  0  0
    7.1710    0.8986    0.0000 C   0  0  0  0  0  0  0  0  0  0  0  0
  2  1  1  0
  3 18  1  0
  4  1  1  0
  5  3  1  0
  6 12  1  0
  7  6  1  0
  8 13  1  0
  9  4  1  0
 10 11  1  0
 11 24  1  0
 12  5  1  0
 13  7  1  0
 14 17  1  0
 15 20  1  0
 16  8  1  0
 17 25  1  0
 18  2  1  0
 19 27  1  0
 20 32  1  0
 21  9  1  0
 22 26  1  0
 23 10  1  0
 24 14  1  0
 25 15  1  0
 26 31  1  0
 27 34  1  0
 28 30  1  0
 29 28  1  0
 30 16  1  0
 31 21  1  0
 32 22  1  0
 33  4  1  0
 34 29  1  0
 35  2  2  0
 36  5  2  0
 37  7  2  0
 38 11  2  0
 39  9  2  0
 13 40  1  0
 41 16  2  0
 12 42  1  0
 43 17  2  0
 44 19  2  0
 45 20  2  0
 46 26  2  0
 23 47  1  0
 25 48  1  0
 49 29  2  0
 18 50  1  0
 24 51  1  0
 52  1  1  0
 53 65  1  0
 54  3  1  0
 55 53  2  3
 56  6  1  0
 57  8  1  0
 58 10  1  0
 59 33  1  0
 60 15  1  0
 33 61  1  0
 62 22  1  0
 31 63  1  0
 30 64  1  0
 65 59  1  0
 66 40  1  0
 67 42  1  0
 68 48  1  0
 69 47  1  0
 34 70  1  0
 71 55  1  0
 72 50  1  0
 73 51  1  0
 74 51  1  0
 75 50  1  0
 59 76  1  0
 77 67  1  0
 78 66  1  0
 79 66  1  0
 80 68  1  0
 81 68  1  0
 82 67  1  0
 83 69  1  0
 84 69  1  0
 85 63  1  0
 86 70  1  0
 87 71  1  0
 19 23  1  0
M  END
>  <Classification>  (705) 
0

>  <pchembl>  (705) 
4.3

>  <InChI_steorem>  (705) 
InChI=1S/C64H115N11O12/c1-25-28-29-30-42(16)54(77)53-58(81)67-45(27-3)60(83)69(18)35-50(76)70(19)46(31-36(4)5)57(80)68-51(40(12)13)63(86)71(20)47(32-37(6)7)56(79)66-44(26-2)55(78)65-43(17)59(82)72(21)48(33-38(8)9)61(84)73(22)49(34-39(10)11)62(85)74(23)52(41(14)15)64(87)75(53)24/h28-29,36-49,51-54,77H,25-27,30-35H2,1-24H3,(H,65,78)(H,66,79)(H,67,81)(H,68,80)

>  <source>  (705) 
ChEMBL25

>  <source_id>  (705) 
25

>  <optional_reference>  (705) 
10.1021/jm0109863

>  <optional_origin>  (705) 
None

>  <target>  (705) 
MDR1

$$$$

     RDKit          2D

 87 87  0  0  0  0  0  0  0  0999 V2000
    2.3408    2.8261    0.0000 N   0  0  0  0  0  0  0  0  0  0  0  0
    1.7163    2.2870    0.0000 C   0  0  0  0  0  0  0  0  0  0  0  0
    0.3864    1.5610    0.0000 N   0  0  0  0  0  0  0  0  0  0  0  0
    3.0465    2.3988    0.0000 C   0  0  0  0  0  0  0  0  0  0  0  0
    0.7838    0.8380    0.0000 C   0  0  0  0  0  0  0  0  0  0  0  0
    0.7540   -0.5906    0.0000 N   0  0  0  0  0  0  0  0  0  0  0  0
    0.3266   -1.2963    0.0000 C   0  0  0  0  0  0  0  0  0  0  0  0
    0.2967   -2.7249    0.0000 N   0  0  0  0  0  0  0  0  0  0  0  0
    2.8581    1.5956    0.0000 C   0  0  0  0  0  0  0  0  0  0  0  0
    1.8568   -7.0453    0.0000 N   0  0  0  0  0  0  0  0  0  0  0  0
    0.3565    0.1324    0.0000 C   0  0  0  0  0  0  0  0  0  0  0  0
    0.7241   -2.0192    0.0000 C   0  0  0  0  0  0  0  0  0  0  0  0
    2.6816   -7.0625    0.0000 C   0  0  0  0  0  0  0  0  0  0  0  0
    3.1687   -3.4996    0.0000 N   0  0  0  0  0  0  0  0  0  0  0  0
    0.6942   -3.4478    0.0000 C   0  0  0  0  0  0  0  0  0  0  0  0
    0.8137    2.2667    0.0000 C   0  0  0  0  0  0  0  0  0  0  0  0
    3.1388   -4.9282    0.0000 C   0  0  0  0  0  0  0  0  0  0  0  0
    0.6046   -7.7337    0.0000 C   0  0  0  0  0  0  0  0  0  0  0  0
    2.7712   -2.7767    0.0000 C   0  0  0  0  0  0  0  0  0  0  0  0
    2.7115   -5.6339    0.0000 N   0  0  0  0  0  0  0  0  0  0  0  0
    3.2583    0.7863    0.0000 N   0  0  0  0  0  0  0  0  0  0  0  0
    2.8011   -1.3480    0.0000 N   0  0  0  0  0  0  0  0  0  0  0  0
    1.4294   -7.7510    0.0000 C   0  0  0  0  0  0  0  0  0  0  0  0
    3.2284   -0.6423    0.0000 C   0  0  0  0  0  0  0  0  0  0  0  0
    2.7413   -4.2053    0.0000 C   0  0  0  0  0  0  0  0  0  0  0  0
    0.2071   -7.0108    0.0000 N   0  0  0  0  0  0  0  0  0  0  0  0
    0.6643   -4.8765    0.0000 N   0  0  0  0  0  0  0  0  0  0  0  0
    3.1089   -6.3568    0.0000 C   0  0  0  0  0  0  0  0  0  0  0  0
    0.2370   -5.5822    0.0000 C   0  0  0  0  0  0  0  0  0  0  0  0
    0.2669   -4.1535    0.0000 C   0  0  0  0  0  0  0  0  0  0  0  0
    2.8310    0.0806    0.0000 C   0  0  0  0  0  0  0  0  0  0  0  0
    3.1986   -2.0710    0.0000 C   0  0  0  0  0  0  0  0  0  0  0  0
    3.8070    2.7185    0.0000 C   0  0  0  0  0  0  0  0  0  0  0  0
    0.6345   -6.3051    0.0000 C   0  0  0  0  0  0  0  0  0  0  0  0
    2.0126    1.5170    0.0000 O   0  0  0  0  0  0  0  0  0  0  0  0
    1.6087    0.8208    0.0000 O   0  0  0  0  0  0  0  0  0  0  0  0
   -0.4982   -1.2790    0.0000 O   0  0  0  0  0  0  0  0  0  0  0  0
    2.1077    1.2527    0.0000 O   0  0  0  0  0  0  0  0  0  0  0  0
    3.0791   -7.7855    0.0000 O   0  0  0  0  0  0  0  0  0  0  0  0
   -0.1007   -2.0020    0.0000 C   0  0  0  0  0  0  0  0  0  0  0  0
    1.5190   -3.4651    0.0000 O   0  0  0  0  0  0  0  0  0  0  0  0
   -0.4683    0.1496    0.0000 C   0  0  0  0  0  0  0  0  0  0  0  0
    3.9636   -4.9455    0.0000 O   0  0  0  0  0  0  0  0  0  0  0  0
    0.1772   -8.4394    0.0000 O   0  0  0  0  0  0  0  0  0  0  0  0
    1.9464   -2.7594    0.0000 O   0  0  0  0  0  0  0  0  0  0  0  0
    4.0532   -0.6596    0.0000 O   0  0  0  0  0  0  0  0  0  0  0  0
    1.8269   -8.4739    0.0000 C   0  0  0  0  0  0  0  0  0  0  0  0
    3.5662   -4.2225    0.0000 C   0  0  0  0  0  0  0  0  0  0  0  0
    3.9337   -6.3741    0.0000 C   0  0  0  0  0  0  0  0  0  0  0  0
   -0.5878   -5.5649    0.0000 O   0  0  0  0  0  0  0  0  0  0  0  0
    0.4006    2.9808    0.0000 C   0  0  0  0  0  0  0  0  0  0  0  0
    2.2717    3.6482    0.0000 C   0  0  0  0  0  0  0  0  0  0  0  0
    5.3281    3.3579    0.0000 C   0  0  0  0  0  0  0  0  0  0  0  0
   -0.4385    1.5782    0.0000 C   0  0  0  0  0  0  0  0  0  0  0  0
    6.0886    3.6776    0.0000 C   0  0  0  0  0  0  0  0  0  0  0  0
    1.5788   -0.6078    0.0000 C   0  0  0  0  0  0  0  0  0  0  0  0
   -0.3807   -3.1958    0.0000 C   0  0  0  0  0  0  0  0  0  0  0  0
    1.4593   -6.3224    0.0000 C   0  0  0  0  0  0  0  0  0  0  0  0
    4.4642    2.2197    0.0000 C   0  0  0  0  0  0  0  0  0  0  0  0
    3.8461   -3.0287    0.0000 C   0  0  0  0  0  0  0  0  0  0  0  0
    3.9104    3.5370    0.0000 O   0  0  0  0  0  0  0  0  0  0  0  0
    1.9763   -1.3308    0.0000 C   0  0  0  0  0  0  0  0  0  0  0  0
    3.6558    0.0634    0.0000 C   0  0  0  0  0  0  0  0  0  0  0  0
   -0.5579   -4.1363    0.0000 C   0  0  0  0  0  0  0  0  0  0  0  0
    5.2247    2.5394    0.0000 C   0  0  0  0  0  0  0  0  0  0  0  0
   -0.5281   -2.7077    0.0000 C   0  0  0  0  0  0  0  0  0  0  0  0
   -0.8658    0.8725    0.0000 C   0  0  0  0  0  0  0  0  0  0  0  0
    1.3995   -9.1796    0.0000 C   0  0  0  0  0  0  0  0  0  0  0  0
    3.9935   -3.5168    0.0000 C   0  0  0  0  0  0  0  0  0  0  0  0
    4.3312   -7.0970    0.0000 C   0  0  0  0  0  0  0  0  0  0  0  0
    1.3119   -5.8342    0.0000 C   0  0  0  0  0  0  0  0  0  0  0  0
    6.1920    4.4961    0.0000 C   0  0  0  0  0  0  0  0  0  0  0  0
    0.8126    3.6956    0.0000 C   0  0  0  0  0  0  0  0  0  0  0  0
   -0.4244    2.9801    0.0000 C   0  0  0  0  0  0  0  0  0  0  0  0
    4.3608    1.4012    0.0000 C   0  0  0  0  0  0  0  0  0  0  0  0
    4.0831    0.7691    0.0000 C   0  0  0  0  0  0  0  0  0  0  0  0
    1.7970   -9.9026    0.0000 C   0  0  0  0  0  0  0  0  0  0  0  0
   -1.6906    0.8898    0.0000 C   0  0  0  0  0  0  0  0  0  0  0  0
   -0.6314   -3.5262    0.0000 C   0  0  0  0  0  0  0  0  0  0  0  0
   -1.3529   -2.6904    0.0000 C   0  0  0  0  0  0  0  0  0  0  0  0
    4.0969   -2.6983    0.0000 C   0  0  0  0  0  0  0  0  0  0  0  0
    4.8183   -3.5341    0.0000 C   0  0  0  0  0  0  0  0  0  0  0  0
   -0.9349    1.6946    0.0000 C   0  0  0  0  0  0  0  0  0  0  0  0
    0.5747   -9.1624    0.0000 C   0  0  0  0  0  0  0  0  0  0  0  0
    5.1560   -7.1143    0.0000 C   0  0  0  0  0  0  0  0  0  0  0  0
    3.9039   -7.8027    0.0000 C   0  0  0  0  0  0  0  0  0  0  0  0
    4.9079    0.7518    0.0000 C   0  0  0  0  0  0  0  0  0  0  0  0
  2  1  1  0
  3 16  1  0
  4  1  1  0
  5  3  1  0
  6 11  1  0
  7  6  1  0
  8 12  1  0
  9  4  1  0
 10 13  1  0
 11  5  1  0
 12  7  1  0
 13 28  1  0
 14 19  1  0
 15  8  1  0
 16  2  1  0
 17 25  1  0
 18 26  1  0
 19 32  1  0
 20 17  1  0
 21  9  1  0
 22 24  1  0
 23 10  1  0
 24 31  1  0
 25 14  1  0
 26 34  1  0
 27 30  1  0
 28 20  1  0
 29 27  1  0
 30 15  1  0
 31 21  1  0
 32 22  1  0
 33  4  1  0
 34 29  1  0
 35  2  2  0
 36  5  2  0
 37  7  2  0
 38  9  2  0
 39 13  2  0
 12 40  1  0
 41 15  2  0
 11 42  1  0
 43 17  2  0
 44 18  2  0
 45 19  2  0
 46 24  2  0
 23 47  1  0
 25 48  1  0
 28 49  1  0
 50 29  2  0
 16 51  1  0
 52  1  1  0
 53 65  1  0
 54  3  1  0
 55 53  2  3
 56  6  1  0
 57  8  1  0
 58 10  1  0
 59 33  1  0
 60 14  1  0
 33 61  1  0
 62 22  1  0
 31 63  1  0
 30 64  1  0
 65 59  1  0
 66 40  1  0
 67 42  1  0
 68 47  1  0
 69 48  1  0
 70 49  1  0
 34 71  1  0
 72 55  1  0
 73 51  1  0
 74 51  1  0
 59 75  1  0
 76 63  1  0
 77 68  1  0
 78 67  1  0
 79 66  1  0
 80 66  1  0
 81 69  1  0
 82 69  1  0
 83 67  1  0
 84 68  1  0
 85 70  1  0
 86 70  1  0
 87 76  1  0
 18 23  1  0
M  END
>  <Classification>  (706) 
1

>  <pchembl>  (706) 
5.7

>  <InChI_steorem>  (706) 
InChI=1S/C64H115N11O12/c1-25-27-29-42(15)54(77)53-58(81)67-45(28-26-2)60(83)69(18)35-51(76)70(19)47(31-37(5)6)57(80)68-46(30-36(3)4)61(84)71(20)48(32-38(7)8)56(79)65-43(16)55(78)66-44(17)59(82)72(21)49(33-39(9)10)62(85)73(22)50(34-40(11)12)63(86)74(23)52(41(13)14)64(87)75(53)24/h25,27,36-50,52-54,77H,26,28-35H2,1-24H3,(H,65,79)(H,66,78)(H,67,81)(H,68,80)

>  <source>  (706) 
ChEMBL25

>  <source_id>  (706) 
25

>  <optional_reference>  (706) 
10.1021/jm0109863

>  <optional_origin>  (706) 
None

>  <target>  (706) 
MDR1

$$$$

     RDKit          2D

 87 87  0  0  0  0  0  0  0  0999 V2000
    2.3662    2.4096    0.0000 N   0  0  0  0  0  0  0  0  0  0  0  0
    1.7417    1.8705    0.0000 C   0  0  0  0  0  0  0  0  0  0  0  0
    0.4118    1.1445    0.0000 N   0  0  0  0  0  0  0  0  0  0  0  0
    3.0719    1.9823    0.0000 C   0  0  0  0  0  0  0  0  0  0  0  0
    0.8092    0.4216    0.0000 C   0  0  0  0  0  0  0  0  0  0  0  0
    0.7794   -1.0071    0.0000 N   0  0  0  0  0  0  0  0  0  0  0  0
    0.3520   -1.7127    0.0000 C   0  0  0  0  0  0  0  0  0  0  0  0
    0.3222   -3.1414    0.0000 N   0  0  0  0  0  0  0  0  0  0  0  0
    2.8835    1.1791    0.0000 C   0  0  0  0  0  0  0  0  0  0  0  0
    1.8822   -7.4618    0.0000 N   0  0  0  0  0  0  0  0  0  0  0  0
    2.7070   -7.4790    0.0000 C   0  0  0  0  0  0  0  0  0  0  0  0
    0.7196   -3.8643    0.0000 C   0  0  0  0  0  0  0  0  0  0  0  0
    0.3819   -0.2841    0.0000 C   0  0  0  0  0  0  0  0  0  0  0  0
    0.7495   -2.4357    0.0000 C   0  0  0  0  0  0  0  0  0  0  0  0
    2.7369   -6.0504    0.0000 N   0  0  0  0  0  0  0  0  0  0  0  0
    3.1941   -3.9161    0.0000 N   0  0  0  0  0  0  0  0  0  0  0  0
    3.1642   -5.3447    0.0000 C   0  0  0  0  0  0  0  0  0  0  0  0
    0.8391    1.8502    0.0000 C   0  0  0  0  0  0  0  0  0  0  0  0
    0.6300   -8.1502    0.0000 C   0  0  0  0  0  0  0  0  0  0  0  0
    2.7966   -3.1931    0.0000 C   0  0  0  0  0  0  0  0  0  0  0  0
    0.6898   -5.2929    0.0000 N   0  0  0  0  0  0  0  0  0  0  0  0
    3.2837    0.3698    0.0000 N   0  0  0  0  0  0  0  0  0  0  0  0
    2.8265   -1.7645    0.0000 N   0  0  0  0  0  0  0  0  0  0  0  0
    0.2923   -4.5700    0.0000 C   0  0  0  0  0  0  0  0  0  0  0  0
    1.4548   -8.1675    0.0000 C   0  0  0  0  0  0  0  0  0  0  0  0
    3.1343   -6.7733    0.0000 C   0  0  0  0  0  0  0  0  0  0  0  0
    2.7667   -4.6217    0.0000 C   0  0  0  0  0  0  0  0  0  0  0  0
    3.2538   -1.0588    0.0000 C   0  0  0  0  0  0  0  0  0  0  0  0
    0.2325   -7.4273    0.0000 N   0  0  0  0  0  0  0  0  0  0  0  0
    0.2624   -5.9986    0.0000 C   0  0  0  0  0  0  0  0  0  0  0  0
    2.8564   -0.3359    0.0000 C   0  0  0  0  0  0  0  0  0  0  0  0
    3.2240   -2.4874    0.0000 C   0  0  0  0  0  0  0  0  0  0  0  0
    3.8324    2.3020    0.0000 C   0  0  0  0  0  0  0  0  0  0  0  0
    0.6599   -6.7216    0.0000 C   0  0  0  0  0  0  0  0  0  0  0  0
    2.0380    1.1006    0.0000 O   0  0  0  0  0  0  0  0  0  0  0  0
    1.6341    0.4043    0.0000 O   0  0  0  0  0  0  0  0  0  0  0  0
   -0.4728   -1.6955    0.0000 O   0  0  0  0  0  0  0  0  0  0  0  0
    3.1045   -8.2019    0.0000 O   0  0  0  0  0  0  0  0  0  0  0  0
    2.1331    0.8362    0.0000 O   0  0  0  0  0  0  0  0  0  0  0  0
    1.5444   -3.8816    0.0000 O   0  0  0  0  0  0  0  0  0  0  0  0
   -0.4429   -0.2669    0.0000 C   0  0  0  0  0  0  0  0  0  0  0  0
   -0.0753   -2.4184    0.0000 C   0  0  0  0  0  0  0  0  0  0  0  0
    3.9890   -5.3619    0.0000 O   0  0  0  0  0  0  0  0  0  0  0  0
    0.2027   -8.8559    0.0000 O   0  0  0  0  0  0  0  0  0  0  0  0
    1.9718   -3.1759    0.0000 O   0  0  0  0  0  0  0  0  0  0  0  0
    4.0787   -1.0760    0.0000 O   0  0  0  0  0  0  0  0  0  0  0  0
    1.8523   -8.8904    0.0000 C   0  0  0  0  0  0  0  0  0  0  0  0
    3.5916   -4.6390    0.0000 C   0  0  0  0  0  0  0  0  0  0  0  0
   -0.5624   -5.9814    0.0000 O   0  0  0  0  0  0  0  0  0  0  0  0
    0.4260    2.5643    0.0000 C   0  0  0  0  0  0  0  0  0  0  0  0
    3.9592   -6.7906    0.0000 C   0  0  0  0  0  0  0  0  0  0  0  0
    2.2971    3.2317    0.0000 C   0  0  0  0  0  0  0  0  0  0  0  0
    4.7997    4.2587    0.0000 C   0  0  0  0  0  0  0  0  0  0  0  0
   -0.4130    1.1618    0.0000 C   0  0  0  0  0  0  0  0  0  0  0  0
    5.5602    4.5784    0.0000 C   0  0  0  0  0  0  0  0  0  0  0  0
    1.6042   -1.0243    0.0000 C   0  0  0  0  0  0  0  0  0  0  0  0
   -0.3553   -3.6122    0.0000 C   0  0  0  0  0  0  0  0  0  0  0  0
    1.4847   -6.7388    0.0000 C   0  0  0  0  0  0  0  0  0  0  0  0
    3.9358    3.1205    0.0000 C   0  0  0  0  0  0  0  0  0  0  0  0
    3.8715   -3.4452    0.0000 C   0  0  0  0  0  0  0  0  0  0  0  0
    4.4896    1.8032    0.0000 O   0  0  0  0  0  0  0  0  0  0  0  0
   -0.5325   -4.5528    0.0000 C   0  0  0  0  0  0  0  0  0  0  0  0
    2.0017   -1.7472    0.0000 C   0  0  0  0  0  0  0  0  0  0  0  0
    3.6812   -0.3531    0.0000 C   0  0  0  0  0  0  0  0  0  0  0  0
   -0.9599   -5.2584    0.0000 O   0  0  0  0  0  0  0  0  0  0  0  0
    4.6963    3.4402    0.0000 C   0  0  0  0  0  0  0  0  0  0  0  0
   -0.8404    0.4561    0.0000 C   0  0  0  0  0  0  0  0  0  0  0  0
   -0.5027   -3.1241    0.0000 C   0  0  0  0  0  0  0  0  0  0  0  0
    1.4249   -9.5961    0.0000 C   0  0  0  0  0  0  0  0  0  0  0  0
    4.0189   -3.9333    0.0000 C   0  0  0  0  0  0  0  0  0  0  0  0
    1.3373   -6.2507    0.0000 C   0  0  0  0  0  0  0  0  0  0  0  0
    5.6636    5.3969    0.0000 C   0  0  0  0  0  0  0  0  0  0  0  0
    4.3865   -6.0849    0.0000 C   0  0  0  0  0  0  0  0  0  0  0  0
    4.3566   -7.5135    0.0000 C   0  0  0  0  0  0  0  0  0  0  0  0
    0.8380    3.2791    0.0000 C   0  0  0  0  0  0  0  0  0  0  0  0
   -0.3990    2.5637    0.0000 C   0  0  0  0  0  0  0  0  0  0  0  0
    3.2786    3.6193    0.0000 C   0  0  0  0  0  0  0  0  0  0  0  0
   -0.6060   -3.9426    0.0000 C   0  0  0  0  0  0  0  0  0  0  0  0
   -1.3275   -3.1069    0.0000 C   0  0  0  0  0  0  0  0  0  0  0  0
    4.1223   -3.1148    0.0000 C   0  0  0  0  0  0  0  0  0  0  0  0
    4.8437   -3.9506    0.0000 C   0  0  0  0  0  0  0  0  0  0  0  0
   -1.6652    0.4733    0.0000 C   0  0  0  0  0  0  0  0  0  0  0  0
    1.8224  -10.3190    0.0000 C   0  0  0  0  0  0  0  0  0  0  0  0
    0.6001   -9.5788    0.0000 C   0  0  0  0  0  0  0  0  0  0  0  0
   -0.9095    1.2782    0.0000 C   0  0  0  0  0  0  0  0  0  0  0  0
    4.1085    0.3526    0.0000 C   0  0  0  0  0  0  0  0  0  0  0  0
    5.0064    5.8957    0.0000 C   0  0  0  0  0  0  0  0  0  0  0  0
  2  1  1  0
  3 18  1  0
  4  1  1  0
  5  3  1  0
  6 13  1  0
  7  6  1  0
  8 14  1  0
  9  4  1  0
 10 11  1  0
 11 26  1  0
 12  8  1  0
 13  5  1  0
 14  7  1  0
 15 17  1  0
 16 20  1  0
 17 27  1  0
 18  2  1  0
 19 29  1  0
 20 32  1  0
 21 24  1  0
 22  9  1  0
 23 28  1  0
 24 12  1  0
 25 10  1  0
 26 15  1  0
 27 16  1  0
 28 31  1  0
 29 34  1  0
 30 21  1  0
 31 22  1  0
 32 23  1  0
 33  4  1  0
 34 30  1  0
 35  2  2  0
 36  5  2  0
 37  7  2  0
 38 11  2  0
 39  9  2  0
 40 12  2  0
 13 41  1  0
 14 42  1  0
 43 17  2  0
 44 19  2  0
 45 20  2  0
 46 28  2  0
 25 47  1  0
 27 48  1  0
 49 30  2  0
 18 50  1  0
 26 51  1  0
 52  1  1  0
 53 66  1  0
 54  3  1  0
 55 53  2  3
 56  6  1  0
 57  8  1  0
 58 10  1  0
 59 33  1  0
 60 16  1  0
 33 61  1  0
 24 62  1  0
 63 23  1  0
 31 64  1  0
 65 62  1  0
 66 59  1  0
 67 41  1  0
 68 42  1  0
 69 47  1  0
 70 48  1  0
 34 71  1  0
 72 55  1  0
 73 51  1  0
 74 51  1  0
 75 50  1  0
 76 50  1  0
 59 77  1  0
 78 68  1  0
 79 68  1  0
 80 70  1  0
 81 70  1  0
 82 67  1  0
 83 69  1  0
 84 69  1  0
 85 67  1  0
 86 64  1  0
 87 72  1  0
 19 25  1  0
M  END
>  <Classification>  (707) 
0

>  <pchembl>  (707) 
4.38

>  <InChI_steorem>  (707) 
InChI=1S/C63H113N11O13/c1-24-26-27-28-41(15)53(77)52-57(81)65-43(25-2)58(82)68(17)33-49(76)69(18)45(29-35(3)4)56(80)67-50(39(11)12)62(86)70(19)46(30-36(5)6)55(79)64-42(16)54(78)66-44(34-75)59(83)71(20)47(31-37(7)8)60(84)72(21)48(32-38(9)10)61(85)73(22)51(40(13)14)63(87)74(52)23/h26-27,35-48,50-53,75,77H,24-25,28-34H2,1-23H3,(H,64,79)(H,65,81)(H,66,78)(H,67,80)

>  <source>  (707) 
ChEMBL25

>  <source_id>  (707) 
25

>  <optional_reference>  (707) 
10.1021/jm0109863

>  <optional_origin>  (707) 
None

>  <target>  (707) 
MDR1

$$$$

     RDKit          2D

 87 87  0  0  0  0  0  0  0  0999 V2000
    2.3719    2.6340    0.0000 N   0  0  0  0  0  0  0  0  0  0  0  0
    1.7474    2.0949    0.0000 C   0  0  0  0  0  0  0  0  0  0  0  0
    0.4175    1.3688    0.0000 N   0  0  0  0  0  0  0  0  0  0  0  0
    3.0776    2.2066    0.0000 C   0  0  0  0  0  0  0  0  0  0  0  0
    0.8150    0.6459    0.0000 C   0  0  0  0  0  0  0  0  0  0  0  0
    2.8893    1.4034    0.0000 C   0  0  0  0  0  0  0  0  0  0  0  0
    0.7851   -0.7827    0.0000 N   0  0  0  0  0  0  0  0  0  0  0  0
    0.3578   -1.4884    0.0000 C   0  0  0  0  0  0  0  0  0  0  0  0
    0.3279   -2.9170    0.0000 N   0  0  0  0  0  0  0  0  0  0  0  0
    1.8879   -7.2374    0.0000 N   0  0  0  0  0  0  0  0  0  0  0  0
    2.7127   -7.2547    0.0000 C   0  0  0  0  0  0  0  0  0  0  0  0
    3.2895    0.5942    0.0000 N   0  0  0  0  0  0  0  0  0  0  0  0
    0.3877   -0.0598    0.0000 C   0  0  0  0  0  0  0  0  0  0  0  0
    0.7553   -2.2113    0.0000 C   0  0  0  0  0  0  0  0  0  0  0  0
    2.7426   -5.8260    0.0000 N   0  0  0  0  0  0  0  0  0  0  0  0
    3.1998   -3.6917    0.0000 N   0  0  0  0  0  0  0  0  0  0  0  0
    0.7254   -3.6400    0.0000 C   0  0  0  0  0  0  0  0  0  0  0  0
    3.2596   -0.8345    0.0000 C   0  0  0  0  0  0  0  0  0  0  0  0
    3.1700   -5.1204    0.0000 C   0  0  0  0  0  0  0  0  0  0  0  0
    0.8449    2.0745    0.0000 C   0  0  0  0  0  0  0  0  0  0  0  0
    0.6358   -7.9259    0.0000 C   0  0  0  0  0  0  0  0  0  0  0  0
    2.8322   -1.5402    0.0000 N   0  0  0  0  0  0  0  0  0  0  0  0
    2.8024   -2.9688    0.0000 C   0  0  0  0  0  0  0  0  0  0  0  0
    1.4606   -7.9431    0.0000 C   0  0  0  0  0  0  0  0  0  0  0  0
    3.1401   -6.5490    0.0000 C   0  0  0  0  0  0  0  0  0  0  0  0
    2.7725   -4.3974    0.0000 C   0  0  0  0  0  0  0  0  0  0  0  0
    2.8621   -0.1115    0.0000 C   0  0  0  0  0  0  0  0  0  0  0  0
    0.2383   -7.2029    0.0000 N   0  0  0  0  0  0  0  0  0  0  0  0
    0.6955   -5.0686    0.0000 N   0  0  0  0  0  0  0  0  0  0  0  0
    0.2682   -5.7743    0.0000 C   0  0  0  0  0  0  0  0  0  0  0  0
    0.2980   -4.3457    0.0000 C   0  0  0  0  0  0  0  0  0  0  0  0
    3.2297   -2.2631    0.0000 C   0  0  0  0  0  0  0  0  0  0  0  0
    3.8382    2.5263    0.0000 C   0  0  0  0  0  0  0  0  0  0  0  0
    0.6656   -6.4972    0.0000 C   0  0  0  0  0  0  0  0  0  0  0  0
    2.0437    1.3249    0.0000 O   0  0  0  0  0  0  0  0  0  0  0  0
    1.6398    0.6287    0.0000 O   0  0  0  0  0  0  0  0  0  0  0  0
   -0.4670   -1.4712    0.0000 O   0  0  0  0  0  0  0  0  0  0  0  0
    2.1389    1.0605    0.0000 O   0  0  0  0  0  0  0  0  0  0  0  0
    3.1102   -7.9776    0.0000 O   0  0  0  0  0  0  0  0  0  0  0  0
   -0.4372   -0.0425    0.0000 C   0  0  0  0  0  0  0  0  0  0  0  0
    4.0844   -0.8517    0.0000 O   0  0  0  0  0  0  0  0  0  0  0  0
    1.5502   -3.6572    0.0000 O   0  0  0  0  0  0  0  0  0  0  0  0
   -0.0696   -2.1941    0.0000 C   0  0  0  0  0  0  0  0  0  0  0  0
    3.9948   -5.1376    0.0000 O   0  0  0  0  0  0  0  0  0  0  0  0
    0.2084   -8.6316    0.0000 O   0  0  0  0  0  0  0  0  0  0  0  0
    1.9775   -2.9515    0.0000 O   0  0  0  0  0  0  0  0  0  0  0  0
    1.8580   -8.6661    0.0000 C   0  0  0  0  0  0  0  0  0  0  0  0
    3.5973   -4.4147    0.0000 C   0  0  0  0  0  0  0  0  0  0  0  0
   -0.5567   -5.7571    0.0000 O   0  0  0  0  0  0  0  0  0  0  0  0
    0.4318    2.7887    0.0000 C   0  0  0  0  0  0  0  0  0  0  0  0
    3.9649   -6.5662    0.0000 C   0  0  0  0  0  0  0  0  0  0  0  0
    3.6869   -0.1288    0.0000 C   0  0  0  0  0  0  0  0  0  0  0  0
    2.3029    3.4561    0.0000 C   0  0  0  0  0  0  0  0  0  0  0  0
   -0.4073    1.3861    0.0000 C   0  0  0  0  0  0  0  0  0  0  0  0
    5.9130    1.8485    0.0000 C   0  0  0  0  0  0  0  0  0  0  0  0
    5.8096    1.0300    0.0000 C   0  0  0  0  0  0  0  0  0  0  0  0
    1.6099   -0.8000    0.0000 C   0  0  0  0  0  0  0  0  0  0  0  0
   -0.3495   -3.3879    0.0000 C   0  0  0  0  0  0  0  0  0  0  0  0
    1.4904   -6.5145    0.0000 C   0  0  0  0  0  0  0  0  0  0  0  0
    4.4953    2.0276    0.0000 C   0  0  0  0  0  0  0  0  0  0  0  0
    3.8773   -3.2209    0.0000 C   0  0  0  0  0  0  0  0  0  0  0  0
    3.9415    3.3448    0.0000 O   0  0  0  0  0  0  0  0  0  0  0  0
    2.0074   -1.5229    0.0000 C   0  0  0  0  0  0  0  0  0  0  0  0
   -0.5268   -4.3284    0.0000 C   0  0  0  0  0  0  0  0  0  0  0  0
    5.2558    2.3473    0.0000 C   0  0  0  0  0  0  0  0  0  0  0  0
   -0.4969   -2.8998    0.0000 C   0  0  0  0  0  0  0  0  0  0  0  0
   -0.8346    0.6804    0.0000 C   0  0  0  0  0  0  0  0  0  0  0  0
    1.4307   -9.3717    0.0000 C   0  0  0  0  0  0  0  0  0  0  0  0
    4.0247   -3.7090    0.0000 C   0  0  0  0  0  0  0  0  0  0  0  0
    1.3431   -6.0264    0.0000 C   0  0  0  0  0  0  0  0  0  0  0  0
    6.4668    0.5312    0.0000 C   0  0  0  0  0  0  0  0  0  0  0  0
    4.3923   -5.8605    0.0000 C   0  0  0  0  0  0  0  0  0  0  0  0
    0.8437    3.5035    0.0000 C   0  0  0  0  0  0  0  0  0  0  0  0
   -0.3932    2.7880    0.0000 C   0  0  0  0  0  0  0  0  0  0  0  0
    4.3624   -7.2892    0.0000 C   0  0  0  0  0  0  0  0  0  0  0  0
    4.1143    0.5769    0.0000 C   0  0  0  0  0  0  0  0  0  0  0  0
    4.4334   -0.4800    0.0000 C   0  0  0  0  0  0  0  0  0  0  0  0
    4.3919    1.2091    0.0000 C   0  0  0  0  0  0  0  0  0  0  0  0
    4.1280   -2.8905    0.0000 C   0  0  0  0  0  0  0  0  0  0  0  0
   -0.6003   -3.7183    0.0000 C   0  0  0  0  0  0  0  0  0  0  0  0
   -1.3217   -2.8825    0.0000 C   0  0  0  0  0  0  0  0  0  0  0  0
    4.8495   -3.7262    0.0000 C   0  0  0  0  0  0  0  0  0  0  0  0
   -1.6595    0.6977    0.0000 C   0  0  0  0  0  0  0  0  0  0  0  0
   -0.9037    1.5025    0.0000 C   0  0  0  0  0  0  0  0  0  0  0  0
    1.8282  -10.0947    0.0000 C   0  0  0  0  0  0  0  0  0  0  0  0
    0.6059   -9.3545    0.0000 C   0  0  0  0  0  0  0  0  0  0  0  0
    7.2273    0.8510    0.0000 C   0  0  0  0  0  0  0  0  0  0  0  0
  2  1  1  0
  3 20  1  0
  4  1  1  0
  5  3  1  0
  6  4  1  0
  7 13  1  0
  8  7  1  0
  9 14  1  0
 10 11  1  0
 11 25  1  0
 12  6  1  0
 13  5  1  0
 14  8  1  0
 15 19  1  0
 16 23  1  0
 17  9  1  0
 18 27  1  0
 19 26  1  0
 20  2  1  0
 21 28  1  0
 22 18  1  0
 23 32  1  0
 24 10  1  0
 25 15  1  0
 26 16  1  0
 27 12  1  0
 28 34  1  0
 29 31  1  0
 30 29  1  0
 31 17  1  0
 32 22  1  0
 33  4  1  0
 34 30  1  0
 35  2  2  0
 36  5  2  0
 37  8  2  0
 38  6  2  0
 39 11  2  0
 13 40  1  0
 41 18  2  0
 42 17  2  0
 14 43  1  0
 44 19  2  0
 45 21  2  0
 46 23  2  0
 24 47  1  0
 26 48  1  0
 49 30  2  0
 20 50  1  0
 25 51  1  0
 27 52  1  0
 53  1  1  0
 54  3  1  0
 55 65  1  0
 56 55  2  3
 57  7  1  0
 58  9  1  0
 59 10  1  0
 60 33  1  0
 61 16  1  0
 33 62  1  0
 63 22  1  0
 31 64  1  0
 65 60  1  0
 66 43  1  0
 67 40  1  0
 68 47  1  0
 69 48  1  0
 34 70  1  0
 71 56  1  0
 72 51  1  0
 73 50  1  0
 74 50  1  0
 75 51  1  0
 76 52  1  0
 77 52  1  0
 60 78  1  0
 79 69  1  0
 80 66  1  0
 81 66  1  0
 82 69  1  0
 83 67  1  0
 84 67  1  0
 85 68  1  0
 86 68  1  0
 87 71  1  0
 21 24  1  0
M  END
>  <Classification>  (708) 
1

>  <pchembl>  (708) 
5.7

>  <InChI_steorem>  (708) 
InChI=1S/C64H115N11O12/c1-26-27-28-29-42(16)54(77)53-58(81)68-50(39(10)11)62(85)69(19)34-49(76)70(20)45(30-35(2)3)57(80)67-51(40(12)13)63(86)71(21)46(31-36(4)5)56(79)65-43(17)55(78)66-44(18)59(82)72(22)47(32-37(6)7)60(83)73(23)48(33-38(8)9)61(84)74(24)52(41(14)15)64(87)75(53)25/h27-28,35-48,50-54,77H,26,29-34H2,1-25H3,(H,65,79)(H,66,78)(H,67,80)(H,68,81)

>  <source>  (708) 
ChEMBL25

>  <source_id>  (708) 
25

>  <optional_reference>  (708) 
10.1021/jm0109863

>  <optional_origin>  (708) 
None

>  <target>  (708) 
MDR1

$$$$

     RDKit          2D

 87 87  0  0  0  0  0  0  0  0999 V2000
    2.4001    2.4950    0.0000 N   0  0  0  0  0  0  0  0  0  0  0  0
    1.7756    1.9559    0.0000 C   0  0  0  0  0  0  0  0  0  0  0  0
    0.4457    1.2299    0.0000 N   0  0  0  0  0  0  0  0  0  0  0  0
    3.1058    2.0677    0.0000 C   0  0  0  0  0  0  0  0  0  0  0  0
    0.8432    0.5069    0.0000 C   0  0  0  0  0  0  0  0  0  0  0  0
    0.8133   -0.9217    0.0000 N   0  0  0  0  0  0  0  0  0  0  0  0
    0.3860   -1.6274    0.0000 C   0  0  0  0  0  0  0  0  0  0  0  0
    0.3561   -3.0560    0.0000 N   0  0  0  0  0  0  0  0  0  0  0  0
    2.9175    1.2644    0.0000 C   0  0  0  0  0  0  0  0  0  0  0  0
    1.9161   -7.3764    0.0000 N   0  0  0  0  0  0  0  0  0  0  0  0
    2.7409   -7.3936    0.0000 C   0  0  0  0  0  0  0  0  0  0  0  0
    0.4159   -0.1988    0.0000 C   0  0  0  0  0  0  0  0  0  0  0  0
    0.7834   -2.3503    0.0000 C   0  0  0  0  0  0  0  0  0  0  0  0
    2.7708   -5.9650    0.0000 N   0  0  0  0  0  0  0  0  0  0  0  0
    3.2280   -3.8307    0.0000 N   0  0  0  0  0  0  0  0  0  0  0  0
    0.7536   -3.7790    0.0000 C   0  0  0  0  0  0  0  0  0  0  0  0
    3.1982   -5.2593    0.0000 C   0  0  0  0  0  0  0  0  0  0  0  0
    0.8731    1.9356    0.0000 C   0  0  0  0  0  0  0  0  0  0  0  0
    0.6640   -8.0648    0.0000 C   0  0  0  0  0  0  0  0  0  0  0  0
    2.8306   -3.1078    0.0000 C   0  0  0  0  0  0  0  0  0  0  0  0
    3.3177    0.4552    0.0000 N   0  0  0  0  0  0  0  0  0  0  0  0
    2.8604   -1.6791    0.0000 N   0  0  0  0  0  0  0  0  0  0  0  0
    1.4888   -8.0821    0.0000 C   0  0  0  0  0  0  0  0  0  0  0  0
    3.1683   -6.6880    0.0000 C   0  0  0  0  0  0  0  0  0  0  0  0
    2.8007   -4.5364    0.0000 C   0  0  0  0  0  0  0  0  0  0  0  0
    3.2878   -0.9734    0.0000 C   0  0  0  0  0  0  0  0  0  0  0  0
    0.2665   -7.3419    0.0000 N   0  0  0  0  0  0  0  0  0  0  0  0
    0.7237   -5.2076    0.0000 N   0  0  0  0  0  0  0  0  0  0  0  0
    0.2964   -5.9133    0.0000 C   0  0  0  0  0  0  0  0  0  0  0  0
    0.3262   -4.4846    0.0000 C   0  0  0  0  0  0  0  0  0  0  0  0
    2.8903   -0.2505    0.0000 C   0  0  0  0  0  0  0  0  0  0  0  0
    3.2579   -2.4021    0.0000 C   0  0  0  0  0  0  0  0  0  0  0  0
    3.8664    2.3874    0.0000 C   0  0  0  0  0  0  0  0  0  0  0  0
    0.6938   -6.6362    0.0000 C   0  0  0  0  0  0  0  0  0  0  0  0
    2.0719    1.1859    0.0000 O   0  0  0  0  0  0  0  0  0  0  0  0
    1.6680    0.4897    0.0000 O   0  0  0  0  0  0  0  0  0  0  0  0
   -0.4388   -1.6101    0.0000 O   0  0  0  0  0  0  0  0  0  0  0  0
    3.1384   -8.1166    0.0000 O   0  0  0  0  0  0  0  0  0  0  0  0
    2.1671    0.9216    0.0000 O   0  0  0  0  0  0  0  0  0  0  0  0
    1.5784   -3.7962    0.0000 O   0  0  0  0  0  0  0  0  0  0  0  0
   -0.4090   -0.1815    0.0000 C   0  0  0  0  0  0  0  0  0  0  0  0
   -0.0414   -2.3331    0.0000 C   0  0  0  0  0  0  0  0  0  0  0  0
    4.0230   -5.2766    0.0000 O   0  0  0  0  0  0  0  0  0  0  0  0
    0.2366   -8.7705    0.0000 O   0  0  0  0  0  0  0  0  0  0  0  0
    2.0057   -3.0905    0.0000 O   0  0  0  0  0  0  0  0  0  0  0  0
    4.1126   -0.9907    0.0000 O   0  0  0  0  0  0  0  0  0  0  0  0
    1.8862   -8.8050    0.0000 C   0  0  0  0  0  0  0  0  0  0  0  0
    3.6255   -4.5536    0.0000 C   0  0  0  0  0  0  0  0  0  0  0  0
   -0.5285   -5.8960    0.0000 O   0  0  0  0  0  0  0  0  0  0  0  0
    0.4600    2.6497    0.0000 C   0  0  0  0  0  0  0  0  0  0  0  0
    3.9931   -6.7052    0.0000 C   0  0  0  0  0  0  0  0  0  0  0  0
    2.3311    3.3171    0.0000 C   0  0  0  0  0  0  0  0  0  0  0  0
    5.3874    3.0268    0.0000 C   0  0  0  0  0  0  0  0  0  0  0  0
   -0.3791    1.2471    0.0000 C   0  0  0  0  0  0  0  0  0  0  0  0
    6.1479    3.3465    0.0000 C   0  0  0  0  0  0  0  0  0  0  0  0
    1.6381   -0.9389    0.0000 C   0  0  0  0  0  0  0  0  0  0  0  0
   -0.3213   -3.5269    0.0000 C   0  0  0  0  0  0  0  0  0  0  0  0
    1.5186   -6.6535    0.0000 C   0  0  0  0  0  0  0  0  0  0  0  0
    4.5235    1.8886    0.0000 C   0  0  0  0  0  0  0  0  0  0  0  0
    3.9055   -3.3598    0.0000 C   0  0  0  0  0  0  0  0  0  0  0  0
    3.9697    3.2059    0.0000 O   0  0  0  0  0  0  0  0  0  0  0  0
    2.0356   -1.6619    0.0000 C   0  0  0  0  0  0  0  0  0  0  0  0
    3.7151   -0.2677    0.0000 C   0  0  0  0  0  0  0  0  0  0  0  0
   -0.4986   -4.4674    0.0000 C   0  0  0  0  0  0  0  0  0  0  0  0
    5.2840    2.2083    0.0000 C   0  0  0  0  0  0  0  0  0  0  0  0
   -0.4687   -3.0388    0.0000 C   0  0  0  0  0  0  0  0  0  0  0  0
   -0.8064    0.5414    0.0000 C   0  0  0  0  0  0  0  0  0  0  0  0
    1.4589   -9.5107    0.0000 C   0  0  0  0  0  0  0  0  0  0  0  0
    4.0529   -3.8479    0.0000 C   0  0  0  0  0  0  0  0  0  0  0  0
    1.3713   -6.1653    0.0000 C   0  0  0  0  0  0  0  0  0  0  0  0
    6.2513    4.1650    0.0000 C   0  0  0  0  0  0  0  0  0  0  0  0
    4.4205   -5.9995    0.0000 C   0  0  0  0  0  0  0  0  0  0  0  0
    0.8719    3.3645    0.0000 C   0  0  0  0  0  0  0  0  0  0  0  0
   -0.3650    2.6490    0.0000 C   0  0  0  0  0  0  0  0  0  0  0  0
    4.3906   -7.4281    0.0000 C   0  0  0  0  0  0  0  0  0  0  0  0
    4.4201    1.0701    0.0000 C   0  0  0  0  0  0  0  0  0  0  0  0
    4.1425    0.4379    0.0000 C   0  0  0  0  0  0  0  0  0  0  0  0
    1.8564  -10.2337    0.0000 C   0  0  0  0  0  0  0  0  0  0  0  0
    4.1562   -3.0294    0.0000 C   0  0  0  0  0  0  0  0  0  0  0  0
   -0.5721   -3.8573    0.0000 C   0  0  0  0  0  0  0  0  0  0  0  0
   -1.2935   -3.0215    0.0000 C   0  0  0  0  0  0  0  0  0  0  0  0
    4.8777   -3.8652    0.0000 C   0  0  0  0  0  0  0  0  0  0  0  0
   -1.6313    0.5587    0.0000 C   0  0  0  0  0  0  0  0  0  0  0  0
   -0.8755    1.3635    0.0000 C   0  0  0  0  0  0  0  0  0  0  0  0
    0.6341   -9.4935    0.0000 C   0  0  0  0  0  0  0  0  0  0  0  0
    5.5942    4.6638    0.0000 C   0  0  0  0  0  0  0  0  0  0  0  0
    4.9673    0.4207    0.0000 C   0  0  0  0  0  0  0  0  0  0  0  0
  2  1  1  0
  3 18  1  0
  4  1  1  0
  5  3  1  0
  6 12  1  0
  7  6  1  0
  8 13  1  0
  9  4  1  0
 10 11  1  0
 11 24  1  0
 12  5  1  0
 13  7  1  0
 14 17  1  0
 15 20  1  0
 16  8  1  0
 17 25  1  0
 18  2  1  0
 19 27  1  0
 20 32  1  0
 21  9  1  0
 22 26  1  0
 23 10  1  0
 24 14  1  0
 25 15  1  0
 26 31  1  0
 27 34  1  0
 28 30  1  0
 29 28  1  0
 30 16  1  0
 31 21  1  0
 32 22  1  0
 33  4  1  0
 34 29  1  0
 35  2  2  0
 36  5  2  0
 37  7  2  0
 38 11  2  0
 39  9  2  0
 40 16  2  0
 12 41  1  0
 13 42  1  0
 43 17  2  0
 44 19  2  0
 45 20  2  0
 46 26  2  0
 23 47  1  0
 25 48  1  0
 49 29  2  0
 18 50  1  0
 24 51  1  0
 52  1  1  0
 53 65  1  0
 54  3  1  0
 55 53  2  3
 56  6  1  0
 57  8  1  0
 58 10  1  0
 59 33  1  0
 60 15  1  0
 33 61  1  0
 62 22  1  0
 31 63  1  0
 30 64  1  0
 65 59  1  0
 66 42  1  0
 67 41  1  0
 68 47  1  0
 69 48  1  0
 34 70  1  0
 71 55  1  0
 72 51  1  0
 73 50  1  0
 74 50  1  0
 75 51  1  0
 59 76  1  0
 77 63  1  0
 78 68  1  0
 79 69  1  0
 80 66  1  0
 81 66  1  0
 82 69  1  0
 83 67  1  0
 84 67  1  0
 85 68  1  0
 86 71  1  0
 87 77  1  0
 19 23  1  0
M  END
>  <Classification>  (709) 
1

>  <pchembl>  (709) 
5.72

>  <InChI_steorem>  (709) 
InChI=1S/C64H115N11O12/c1-25-27-28-30-42(15)54(77)53-58(81)67-45(29-26-2)60(83)69(18)35-50(76)70(19)46(31-36(3)4)57(80)68-51(40(11)12)63(86)71(20)47(32-37(5)6)56(79)65-43(16)55(78)66-44(17)59(82)72(21)48(33-38(7)8)61(84)73(22)49(34-39(9)10)62(85)74(23)52(41(13)14)64(87)75(53)24/h27-28,36-49,51-54,77H,25-26,29-35H2,1-24H3,(H,65,79)(H,66,78)(H,67,81)(H,68,80)

>  <source>  (709) 
ChEMBL25

>  <source_id>  (709) 
25

>  <optional_reference>  (709) 
10.1021/jm0109863

>  <optional_origin>  (709) 
None

>  <target>  (709) 
MDR1

$$$$

     RDKit          2D

 86 86  0  0  0  0  0  0  0  0999 V2000
    2.4069    2.7490    0.0000 N   0  0  0  0  0  0  0  0  0  0  0  0
    1.7824    2.2099    0.0000 C   0  0  0  0  0  0  0  0  0  0  0  0
    0.4525    1.4839    0.0000 N   0  0  0  0  0  0  0  0  0  0  0  0
    3.1126    2.3216    0.0000 C   0  0  0  0  0  0  0  0  0  0  0  0
    2.9242    1.5184    0.0000 C   0  0  0  0  0  0  0  0  0  0  0  0
    3.3244    0.7092    0.0000 N   0  0  0  0  0  0  0  0  0  0  0  0
    1.9229   -7.1224    0.0000 N   0  0  0  0  0  0  0  0  0  0  0  0
    0.3629   -2.8020    0.0000 N   0  0  0  0  0  0  0  0  0  0  0  0
    2.8971    0.0035    0.0000 C   0  0  0  0  0  0  0  0  0  0  0  0
    0.8500    0.7609    0.0000 C   0  0  0  0  0  0  0  0  0  0  0  0
    3.2945   -0.7195    0.0000 C   0  0  0  0  0  0  0  0  0  0  0  0
    2.7477   -7.1397    0.0000 C   0  0  0  0  0  0  0  0  0  0  0  0
    3.2348   -3.5767    0.0000 N   0  0  0  0  0  0  0  0  0  0  0  0
    0.7603   -3.5250    0.0000 C   0  0  0  0  0  0  0  0  0  0  0  0
    0.8798    2.1895    0.0000 C   0  0  0  0  0  0  0  0  0  0  0  0
    0.3927   -1.3734    0.0000 C   0  0  0  0  0  0  0  0  0  0  0  0
    3.2049   -5.0053    0.0000 C   0  0  0  0  0  0  0  0  0  0  0  0
    0.6707   -7.8109    0.0000 C   0  0  0  0  0  0  0  0  0  0  0  0
    2.8672   -1.4251    0.0000 N   0  0  0  0  0  0  0  0  0  0  0  0
    2.8373   -2.8538    0.0000 C   0  0  0  0  0  0  0  0  0  0  0  0
    2.7776   -5.7110    0.0000 N   0  0  0  0  0  0  0  0  0  0  0  0
    0.8201   -0.6677    0.0000 N   0  0  0  0  0  0  0  0  0  0  0  0
    1.4955   -7.8281    0.0000 C   0  0  0  0  0  0  0  0  0  0  0  0
    0.7902   -2.0963    0.0000 C   0  0  0  0  0  0  0  0  0  0  0  0
    2.8074   -4.2824    0.0000 C   0  0  0  0  0  0  0  0  0  0  0  0
    0.2732   -7.0879    0.0000 N   0  0  0  0  0  0  0  0  0  0  0  0
    0.7305   -4.9536    0.0000 N   0  0  0  0  0  0  0  0  0  0  0  0
    0.4226    0.0552    0.0000 C   0  0  0  0  0  0  0  0  0  0  0  0
    3.1750   -6.4340    0.0000 C   0  0  0  0  0  0  0  0  0  0  0  0
    0.3031   -5.6593    0.0000 C   0  0  0  0  0  0  0  0  0  0  0  0
    0.3330   -4.2307    0.0000 C   0  0  0  0  0  0  0  0  0  0  0  0
    3.2647   -2.1481    0.0000 C   0  0  0  0  0  0  0  0  0  0  0  0
    3.8731    2.6414    0.0000 C   0  0  0  0  0  0  0  0  0  0  0  0
    0.7006   -6.3822    0.0000 C   0  0  0  0  0  0  0  0  0  0  0  0
    2.0787    1.4399    0.0000 O   0  0  0  0  0  0  0  0  0  0  0  0
    2.1738    1.1756    0.0000 O   0  0  0  0  0  0  0  0  0  0  0  0
    1.6748    0.7437    0.0000 O   0  0  0  0  0  0  0  0  0  0  0  0
    4.1194   -0.7367    0.0000 O   0  0  0  0  0  0  0  0  0  0  0  0
    3.1452   -7.8626    0.0000 O   0  0  0  0  0  0  0  0  0  0  0  0
    1.5852   -3.5422    0.0000 O   0  0  0  0  0  0  0  0  0  0  0  0
   -0.4321   -1.3562    0.0000 O   0  0  0  0  0  0  0  0  0  0  0  0
    4.0297   -5.0226    0.0000 O   0  0  0  0  0  0  0  0  0  0  0  0
    0.2434   -8.5165    0.0000 O   0  0  0  0  0  0  0  0  0  0  0  0
    2.0125   -2.8365    0.0000 O   0  0  0  0  0  0  0  0  0  0  0  0
   -0.0346   -2.0791    0.0000 C   0  0  0  0  0  0  0  0  0  0  0  0
    1.8930   -8.5510    0.0000 C   0  0  0  0  0  0  0  0  0  0  0  0
    3.6323   -4.2997    0.0000 C   0  0  0  0  0  0  0  0  0  0  0  0
    3.9999   -6.4512    0.0000 C   0  0  0  0  0  0  0  0  0  0  0  0
   -0.4022    0.0725    0.0000 C   0  0  0  0  0  0  0  0  0  0  0  0
   -0.5217   -5.6420    0.0000 O   0  0  0  0  0  0  0  0  0  0  0  0
    3.7219   -0.0138    0.0000 C   0  0  0  0  0  0  0  0  0  0  0  0
    0.4668    2.9037    0.0000 C   0  0  0  0  0  0  0  0  0  0  0  0
    2.3378    3.5711    0.0000 C   0  0  0  0  0  0  0  0  0  0  0  0
    4.8404    4.5981    0.0000 C   0  0  0  0  0  0  0  0  0  0  0  0
    5.6009    4.9178    0.0000 C   0  0  0  0  0  0  0  0  0  0  0  0
   -0.3723    1.5011    0.0000 C   0  0  0  0  0  0  0  0  0  0  0  0
    1.5254   -6.3995    0.0000 C   0  0  0  0  0  0  0  0  0  0  0  0
   -0.3146   -3.2729    0.0000 C   0  0  0  0  0  0  0  0  0  0  0  0
    3.9765    3.4599    0.0000 C   0  0  0  0  0  0  0  0  0  0  0  0
    3.9122   -3.1059    0.0000 C   0  0  0  0  0  0  0  0  0  0  0  0
    4.5303    2.1426    0.0000 O   0  0  0  0  0  0  0  0  0  0  0  0
    2.0424   -1.4079    0.0000 C   0  0  0  0  0  0  0  0  0  0  0  0
    4.4684   -0.3650    0.0000 O   0  0  0  0  0  0  0  0  0  0  0  0
   -0.4918   -4.2134    0.0000 C   0  0  0  0  0  0  0  0  0  0  0  0
    4.7370    3.7796    0.0000 C   0  0  0  0  0  0  0  0  0  0  0  0
    1.4657   -9.2567    0.0000 C   0  0  0  0  0  0  0  0  0  0  0  0
    4.0596   -3.5940    0.0000 C   0  0  0  0  0  0  0  0  0  0  0  0
   -0.4620   -2.7848    0.0000 C   0  0  0  0  0  0  0  0  0  0  0  0
    4.3973   -7.1742    0.0000 C   0  0  0  0  0  0  0  0  0  0  0  0
   -0.7997    0.7954    0.0000 C   0  0  0  0  0  0  0  0  0  0  0  0
    1.3780   -5.9114    0.0000 C   0  0  0  0  0  0  0  0  0  0  0  0
    5.7043    5.7363    0.0000 C   0  0  0  0  0  0  0  0  0  0  0  0
    4.1492    0.6919    0.0000 C   0  0  0  0  0  0  0  0  0  0  0  0
    0.8787    3.6185    0.0000 C   0  0  0  0  0  0  0  0  0  0  0  0
   -0.3582    2.9030    0.0000 C   0  0  0  0  0  0  0  0  0  0  0  0
    3.3193    3.9586    0.0000 C   0  0  0  0  0  0  0  0  0  0  0  0
    1.8631   -9.9797    0.0000 C   0  0  0  0  0  0  0  0  0  0  0  0
    0.6408   -9.2395    0.0000 C   0  0  0  0  0  0  0  0  0  0  0  0
   -0.5653   -3.6033    0.0000 C   0  0  0  0  0  0  0  0  0  0  0  0
   -1.6245    0.8127    0.0000 C   0  0  0  0  0  0  0  0  0  0  0  0
   -0.8687    1.6175    0.0000 C   0  0  0  0  0  0  0  0  0  0  0  0
   -1.2868   -2.7675    0.0000 C   0  0  0  0  0  0  0  0  0  0  0  0
    4.1630   -2.7755    0.0000 C   0  0  0  0  0  0  0  0  0  0  0  0
    4.8844   -3.6112    0.0000 C   0  0  0  0  0  0  0  0  0  0  0  0
    5.2222   -7.1914    0.0000 C   0  0  0  0  0  0  0  0  0  0  0  0
    3.9700   -7.8799    0.0000 C   0  0  0  0  0  0  0  0  0  0  0  0
  2  1  1  0
  3 15  1  0
  4  1  1  0
  5  4  1  0
  6  5  1  0
  7 12  1  0
  8 24  1  0
  9  6  1  0
 10  3  1  0
 11  9  1  0
 12 29  1  0
 13 20  1  0
 14  8  1  0
 15  2  1  0
 16 22  1  0
 17 25  1  0
 18 26  1  0
 19 11  1  0
 20 32  1  0
 21 17  1  0
 22 28  1  0
 23  7  1  0
 24 16  1  0
 25 13  1  0
 26 34  1  0
 27 31  1  0
 28 10  1  0
 29 21  1  0
 30 27  1  0
 31 14  1  0
 32 19  1  0
 33  4  1  0
 34 30  1  0
 35  2  2  0
 36  5  2  0
 37 10  2  0
 38 11  2  0
 39 12  2  0
 40 14  2  0
 41 16  2  0
 42 17  2  0
 43 18  2  0
 44 20  2  0
 24 45  1  0
 23 46  1  0
 25 47  1  0
 29 48  1  0
 28 49  1  0
 50 30  2  0
  9 51  1  0
 15 52  1  0
 53  1  1  0
 54 65  1  0
 55 54  2  3
 56  3  1  0
 57  7  1  0
 58  8  1  0
 59 33  1  0
 60 13  1  0
 33 61  1  0
 62 19  1  0
 51 63  1  0
 31 64  1  0
 65 59  1  0
 66 46  1  0
 67 47  1  0
 68 45  1  0
 69 48  1  0
 70 49  1  0
 34 71  1  0
 72 55  1  0
 73 51  1  0
 74 52  1  0
 75 52  1  0
 59 76  1  0
 77 66  1  0
 78 66  1  0
 79 68  1  0
 80 70  1  0
 81 70  1  0
 82 68  1  0
 83 67  1  0
 84 67  1  0
 85 69  1  0
 86 69  1  0
 18 23  1  0
M  END
>  <Classification>  (710) 
1

>  <pchembl>  (710) 
5.22

>  <InChI_steorem>  (710) 
InChI=1S/C62H111N11O13/c1-24-25-26-39(14)52(76)51-57(81)67-49(42(17)74)61(85)68(18)32-48(75)69(19)45(29-35(6)7)55(79)65-43(27-33(2)3)59(83)71(21)46(30-36(8)9)54(78)63-40(15)53(77)64-41(16)58(82)70(20)47(31-37(10)11)56(80)66-44(28-34(4)5)60(84)72(22)50(38(12)13)62(86)73(51)23/h24-25,33-47,49-52,74,76H,26-32H2,1-23H3,(H,63,78)(H,64,77)(H,65,79)(H,66,80)(H,67,81)

>  <source>  (710) 
ChEMBL25

>  <source_id>  (710) 
25

>  <optional_reference>  (710) 
10.1021/jm0109863

>  <optional_origin>  (710) 
None

>  <target>  (710) 
MDR1

$$$$

     RDKit          2D

 86 86  0  0  0  0  0  0  0  0999 V2000
    2.4642    2.8153    0.0000 N   0  0  0  0  0  0  0  0  0  0  0  0
    1.8397    2.2762    0.0000 C   0  0  0  0  0  0  0  0  0  0  0  0
    0.5098    1.5502    0.0000 N   0  0  0  0  0  0  0  0  0  0  0  0
    3.1699    2.3880    0.0000 C   0  0  0  0  0  0  0  0  0  0  0  0
    0.9072    0.8273    0.0000 C   0  0  0  0  0  0  0  0  0  0  0  0
    0.8774   -0.6014    0.0000 N   0  0  0  0  0  0  0  0  0  0  0  0
    0.4500   -1.3070    0.0000 C   0  0  0  0  0  0  0  0  0  0  0  0
    0.4201   -2.7357    0.0000 N   0  0  0  0  0  0  0  0  0  0  0  0
    2.9815    1.5848    0.0000 C   0  0  0  0  0  0  0  0  0  0  0  0
    1.9801   -7.0561    0.0000 N   0  0  0  0  0  0  0  0  0  0  0  0
    2.8050   -7.0733    0.0000 C   0  0  0  0  0  0  0  0  0  0  0  0
    0.4799    0.1216    0.0000 C   0  0  0  0  0  0  0  0  0  0  0  0
    0.8475   -2.0300    0.0000 C   0  0  0  0  0  0  0  0  0  0  0  0
    2.8348   -5.6447    0.0000 N   0  0  0  0  0  0  0  0  0  0  0  0
    3.2921   -3.5104    0.0000 N   0  0  0  0  0  0  0  0  0  0  0  0
    0.8176   -3.4586    0.0000 C   0  0  0  0  0  0  0  0  0  0  0  0
    3.2622   -4.9390    0.0000 C   0  0  0  0  0  0  0  0  0  0  0  0
    0.9371    2.2559    0.0000 C   0  0  0  0  0  0  0  0  0  0  0  0
    0.7280   -7.7445    0.0000 C   0  0  0  0  0  0  0  0  0  0  0  0
    2.8946   -2.7874    0.0000 C   0  0  0  0  0  0  0  0  0  0  0  0
    3.3817    0.7755    0.0000 N   0  0  0  0  0  0  0  0  0  0  0  0
    2.9245   -1.3588    0.0000 N   0  0  0  0  0  0  0  0  0  0  0  0
    1.5528   -7.7617    0.0000 C   0  0  0  0  0  0  0  0  0  0  0  0
    3.2323   -6.3676    0.0000 C   0  0  0  0  0  0  0  0  0  0  0  0
    2.8647   -4.2160    0.0000 C   0  0  0  0  0  0  0  0  0  0  0  0
    3.3518   -0.6531    0.0000 C   0  0  0  0  0  0  0  0  0  0  0  0
    0.3305   -7.0216    0.0000 N   0  0  0  0  0  0  0  0  0  0  0  0
    0.7877   -4.8872    0.0000 N   0  0  0  0  0  0  0  0  0  0  0  0
    0.3604   -5.5929    0.0000 C   0  0  0  0  0  0  0  0  0  0  0  0
    0.3903   -4.1643    0.0000 C   0  0  0  0  0  0  0  0  0  0  0  0
    2.9543    0.0698    0.0000 C   0  0  0  0  0  0  0  0  0  0  0  0
    3.3219   -2.0817    0.0000 C   0  0  0  0  0  0  0  0  0  0  0  0
    3.9304    2.7077    0.0000 C   0  0  0  0  0  0  0  0  0  0  0  0
    0.7579   -6.3159    0.0000 C   0  0  0  0  0  0  0  0  0  0  0  0
    2.1360    1.5063    0.0000 O   0  0  0  0  0  0  0  0  0  0  0  0
    1.7320    0.8100    0.0000 O   0  0  0  0  0  0  0  0  0  0  0  0
   -0.3748   -1.2898    0.0000 O   0  0  0  0  0  0  0  0  0  0  0  0
    3.2024   -7.7962    0.0000 O   0  0  0  0  0  0  0  0  0  0  0  0
    2.2311    1.2419    0.0000 O   0  0  0  0  0  0  0  0  0  0  0  0
    1.6424   -3.4759    0.0000 O   0  0  0  0  0  0  0  0  0  0  0  0
   -0.3449    0.1388    0.0000 C   0  0  0  0  0  0  0  0  0  0  0  0
    0.0227   -2.0127    0.0000 C   0  0  0  0  0  0  0  0  0  0  0  0
    4.0870   -4.9562    0.0000 O   0  0  0  0  0  0  0  0  0  0  0  0
    0.3006   -8.4502    0.0000 O   0  0  0  0  0  0  0  0  0  0  0  0
    2.0698   -2.7702    0.0000 O   0  0  0  0  0  0  0  0  0  0  0  0
    4.1766   -0.6703    0.0000 O   0  0  0  0  0  0  0  0  0  0  0  0
    1.9503   -8.4847    0.0000 C   0  0  0  0  0  0  0  0  0  0  0  0
    3.6895   -4.2333    0.0000 C   0  0  0  0  0  0  0  0  0  0  0  0
   -0.4644   -5.5757    0.0000 O   0  0  0  0  0  0  0  0  0  0  0  0
    0.5240    2.9700    0.0000 C   0  0  0  0  0  0  0  0  0  0  0  0
    4.0571   -6.3849    0.0000 C   0  0  0  0  0  0  0  0  0  0  0  0
    2.3951    3.6374    0.0000 C   0  0  0  0  0  0  0  0  0  0  0  0
    6.0052    2.0299    0.0000 C   0  0  0  0  0  0  0  0  0  0  0  0
   -0.3151    1.5675    0.0000 C   0  0  0  0  0  0  0  0  0  0  0  0
    5.9018    1.2114    0.0000 C   0  0  0  0  0  0  0  0  0  0  0  0
    1.7022   -0.6186    0.0000 C   0  0  0  0  0  0  0  0  0  0  0  0
   -0.2573   -3.2065    0.0000 C   0  0  0  0  0  0  0  0  0  0  0  0
    1.5827   -6.3331    0.0000 C   0  0  0  0  0  0  0  0  0  0  0  0
    4.5875    2.2089    0.0000 C   0  0  0  0  0  0  0  0  0  0  0  0
    3.9695   -3.0395    0.0000 C   0  0  0  0  0  0  0  0  0  0  0  0
    4.0338    3.5262    0.0000 O   0  0  0  0  0  0  0  0  0  0  0  0
    2.0996   -1.3415    0.0000 C   0  0  0  0  0  0  0  0  0  0  0  0
    3.7792    0.0526    0.0000 C   0  0  0  0  0  0  0  0  0  0  0  0
   -0.4346   -4.1471    0.0000 C   0  0  0  0  0  0  0  0  0  0  0  0
    5.3481    2.5287    0.0000 C   0  0  0  0  0  0  0  0  0  0  0  0
   -0.7424    0.8618    0.0000 C   0  0  0  0  0  0  0  0  0  0  0  0
   -0.4047   -2.7184    0.0000 C   0  0  0  0  0  0  0  0  0  0  0  0
    4.1169   -3.5276    0.0000 C   0  0  0  0  0  0  0  0  0  0  0  0
    1.5229   -9.1904    0.0000 C   0  0  0  0  0  0  0  0  0  0  0  0
    1.4353   -5.8450    0.0000 C   0  0  0  0  0  0  0  0  0  0  0  0
    6.5590    0.7126    0.0000 C   0  0  0  0  0  0  0  0  0  0  0  0
   -0.3010    2.9694    0.0000 C   0  0  0  0  0  0  0  0  0  0  0  0
    4.4845   -5.6792    0.0000 C   0  0  0  0  0  0  0  0  0  0  0  0
    4.4546   -7.1078    0.0000 C   0  0  0  0  0  0  0  0  0  0  0  0
    0.9359    3.6848    0.0000 C   0  0  0  0  0  0  0  0  0  0  0  0
    4.4842    1.3904    0.0000 C   0  0  0  0  0  0  0  0  0  0  0  0
    4.2203   -2.7091    0.0000 C   0  0  0  0  0  0  0  0  0  0  0  0
   -1.5672    0.8790    0.0000 C   0  0  0  0  0  0  0  0  0  0  0  0
   -0.8115    1.6839    0.0000 C   0  0  0  0  0  0  0  0  0  0  0  0
    1.9204   -9.9133    0.0000 C   0  0  0  0  0  0  0  0  0  0  0  0
    0.6981   -9.1731    0.0000 C   0  0  0  0  0  0  0  0  0  0  0  0
    4.9417   -3.5449    0.0000 C   0  0  0  0  0  0  0  0  0  0  0  0
   -0.5081   -3.5369    0.0000 C   0  0  0  0  0  0  0  0  0  0  0  0
   -1.2295   -2.7012    0.0000 C   0  0  0  0  0  0  0  0  0  0  0  0
    4.2065    0.7583    0.0000 C   0  0  0  0  0  0  0  0  0  0  0  0
   -0.7141    3.6835    0.0000 C   0  0  0  0  0  0  0  0  0  0  0  0
  2  1  1  0
  3 18  1  0
  4  1  1  0
  5  3  1  0
  6 12  1  0
  7  6  1  0
  8 13  1  0
  9  4  1  0
 10 11  1  0
 11 24  1  0
 12  5  1  0
 13  7  1  0
 14 17  1  0
 15 20  1  0
 16  8  1  0
 17 25  1  0
 18  2  1  0
 19 27  1  0
 20 32  1  0
 21  9  1  0
 22 26  1  0
 23 10  1  0
 24 14  1  0
 25 15  1  0
 26 31  1  0
 27 34  1  0
 28 30  1  0
 29 28  1  0
 30 16  1  0
 31 21  1  0
 32 22  1  0
 33  4  1  0
 34 29  1  0
 35  2  2  0
 36  5  2  0
 37  7  2  0
 38 11  2  0
 39  9  2  0
 40 16  2  0
 12 41  1  0
 13 42  1  0
 43 17  2  0
 44 19  2  0
 45 20  2  0
 46 26  2  0
 23 47  1  0
 25 48  1  0
 49 29  2  0
 18 50  1  0
 24 51  1  0
 52  1  1  0
 53 65  1  0
 54  3  1  0
 55 53  2  3
 56  6  1  0
 57  8  1  0
 58 10  1  0
 59 33  1  0
 60 15  1  0
 33 61  1  0
 62 22  1  0
 31 63  1  0
 30 64  1  0
 65 59  1  0
 66 41  1  0
 67 42  1  0
 68 48  1  0
 69 47  1  0
 34 70  1  0
 71 55  1  0
 72 50  1  0
 73 51  1  0
 74 51  1  0
 50 75  1  0
 59 76  1  0
 77 68  1  0
 78 66  1  0
 79 66  1  0
 80 69  1  0
 81 69  1  0
 82 68  1  0
 83 67  1  0
 84 67  1  0
 85 63  1  0
 86 72  1  0
 19 23  1  0
M  END
>  <Classification>  (711) 
1

>  <pchembl>  (711) 
5.82

>  <InChI_steorem>  (711) 
InChI=1S/C63H113N11O12/c1-25-28-29-41(15)53(76)52-57(80)66-44(27-3)59(82)68(18)34-49(75)69(19)45(30-35(4)5)56(79)67-50(39(12)13)62(85)70(20)46(31-36(6)7)55(78)64-42(16)54(77)65-43(17)58(81)71(21)47(32-37(8)9)60(83)72(22)48(33-38(10)11)61(84)73(23)51(40(14)26-2)63(86)74(52)24/h25,28,35-48,50-53,76H,26-27,29-34H2,1-24H3,(H,64,78)(H,65,77)(H,66,80)(H,67,79)

>  <source>  (711) 
ChEMBL25

>  <source_id>  (711) 
25

>  <optional_reference>  (711) 
10.1021/jm0109863

>  <optional_origin>  (711) 
None

>  <target>  (711) 
MDR1

$$$$

     RDKit          2D

 86 86  0  0  0  0  0  0  0  0999 V2000
    2.4941    2.6281    0.0000 N   0  0  0  0  0  0  0  0  0  0  0  0
    1.8696    2.0890    0.0000 C   0  0  0  0  0  0  0  0  0  0  0  0
    0.5397    1.3630    0.0000 N   0  0  0  0  0  0  0  0  0  0  0  0
    3.1998    2.2008    0.0000 C   0  0  0  0  0  0  0  0  0  0  0  0
    0.9371    0.6400    0.0000 C   0  0  0  0  0  0  0  0  0  0  0  0
    0.9073   -0.7886    0.0000 N   0  0  0  0  0  0  0  0  0  0  0  0
    0.4799   -1.4943    0.0000 C   0  0  0  0  0  0  0  0  0  0  0  0
    0.4500   -2.9229    0.0000 N   0  0  0  0  0  0  0  0  0  0  0  0
    3.0114    1.3976    0.0000 C   0  0  0  0  0  0  0  0  0  0  0  0
    2.0101   -7.2433    0.0000 N   0  0  0  0  0  0  0  0  0  0  0  0
    2.8349   -7.2605    0.0000 C   0  0  0  0  0  0  0  0  0  0  0  0
    0.5098   -0.0656    0.0000 C   0  0  0  0  0  0  0  0  0  0  0  0
    0.8774   -2.2172    0.0000 C   0  0  0  0  0  0  0  0  0  0  0  0
    2.8648   -5.8319    0.0000 N   0  0  0  0  0  0  0  0  0  0  0  0
    3.3220   -3.6976    0.0000 N   0  0  0  0  0  0  0  0  0  0  0  0
    0.8475   -3.6458    0.0000 C   0  0  0  0  0  0  0  0  0  0  0  0
    3.2921   -5.1262    0.0000 C   0  0  0  0  0  0  0  0  0  0  0  0
    0.9670    2.0687    0.0000 C   0  0  0  0  0  0  0  0  0  0  0  0
    0.7579   -7.9317    0.0000 C   0  0  0  0  0  0  0  0  0  0  0  0
    2.9245   -2.9746    0.0000 C   0  0  0  0  0  0  0  0  0  0  0  0
    3.4116    0.5883    0.0000 N   0  0  0  0  0  0  0  0  0  0  0  0
    2.9544   -1.5460    0.0000 N   0  0  0  0  0  0  0  0  0  0  0  0
    1.5827   -7.9490    0.0000 C   0  0  0  0  0  0  0  0  0  0  0  0
    3.2622   -6.5548    0.0000 C   0  0  0  0  0  0  0  0  0  0  0  0
    2.8946   -4.4033    0.0000 C   0  0  0  0  0  0  0  0  0  0  0  0
    3.3817   -0.8403    0.0000 C   0  0  0  0  0  0  0  0  0  0  0  0
    0.3604   -7.2088    0.0000 N   0  0  0  0  0  0  0  0  0  0  0  0
    0.8176   -5.0745    0.0000 N   0  0  0  0  0  0  0  0  0  0  0  0
    0.3903   -5.7802    0.0000 C   0  0  0  0  0  0  0  0  0  0  0  0
    0.4202   -4.3515    0.0000 C   0  0  0  0  0  0  0  0  0  0  0  0
    2.9843   -0.1174    0.0000 C   0  0  0  0  0  0  0  0  0  0  0  0
    3.3519   -2.2690    0.0000 C   0  0  0  0  0  0  0  0  0  0  0  0
    3.9603    2.5205    0.0000 C   0  0  0  0  0  0  0  0  0  0  0  0
    0.7878   -6.5031    0.0000 C   0  0  0  0  0  0  0  0  0  0  0  0
    2.1659    1.3190    0.0000 O   0  0  0  0  0  0  0  0  0  0  0  0
    1.7620    0.6228    0.0000 O   0  0  0  0  0  0  0  0  0  0  0  0
   -0.3449   -1.4770    0.0000 O   0  0  0  0  0  0  0  0  0  0  0  0
    3.2324   -7.9835    0.0000 O   0  0  0  0  0  0  0  0  0  0  0  0
    2.2610    1.0547    0.0000 O   0  0  0  0  0  0  0  0  0  0  0  0
    1.6723   -3.6631    0.0000 O   0  0  0  0  0  0  0  0  0  0  0  0
   -0.3150   -0.0484    0.0000 C   0  0  0  0  0  0  0  0  0  0  0  0
    0.0526   -2.2000    0.0000 C   0  0  0  0  0  0  0  0  0  0  0  0
    4.1169   -5.1435    0.0000 O   0  0  0  0  0  0  0  0  0  0  0  0
    0.3306   -8.6374    0.0000 O   0  0  0  0  0  0  0  0  0  0  0  0
    2.0997   -2.9574    0.0000 O   0  0  0  0  0  0  0  0  0  0  0  0
    4.2065   -0.8576    0.0000 O   0  0  0  0  0  0  0  0  0  0  0  0
    1.9802   -8.6719    0.0000 C   0  0  0  0  0  0  0  0  0  0  0  0
    3.7195   -4.4205    0.0000 C   0  0  0  0  0  0  0  0  0  0  0  0
   -0.4345   -5.7629    0.0000 O   0  0  0  0  0  0  0  0  0  0  0  0
    0.5539    2.7828    0.0000 C   0  0  0  0  0  0  0  0  0  0  0  0
    0.9659    3.4976    0.0000 C   0  0  0  0  0  0  0  0  0  0  0  0
    4.0871   -6.5721    0.0000 C   0  0  0  0  0  0  0  0  0  0  0  0
    2.4250    3.4502    0.0000 C   0  0  0  0  0  0  0  0  0  0  0  0
    4.9276    4.4772    0.0000 C   0  0  0  0  0  0  0  0  0  0  0  0
   -0.2851    1.3802    0.0000 C   0  0  0  0  0  0  0  0  0  0  0  0
    5.6881    4.7969    0.0000 C   0  0  0  0  0  0  0  0  0  0  0  0
    0.5528    4.2118    0.0000 C   0  0  0  0  0  0  0  0  0  0  0  0
    1.7321   -0.8058    0.0000 C   0  0  0  0  0  0  0  0  0  0  0  0
   -0.2274   -3.3938    0.0000 C   0  0  0  0  0  0  0  0  0  0  0  0
    1.6126   -6.5203    0.0000 C   0  0  0  0  0  0  0  0  0  0  0  0
    4.0637    3.3390    0.0000 C   0  0  0  0  0  0  0  0  0  0  0  0
    3.9994   -3.2267    0.0000 C   0  0  0  0  0  0  0  0  0  0  0  0
    4.6175    2.0217    0.0000 O   0  0  0  0  0  0  0  0  0  0  0  0
    2.1296   -1.5288    0.0000 C   0  0  0  0  0  0  0  0  0  0  0  0
    3.8091   -0.1346    0.0000 C   0  0  0  0  0  0  0  0  0  0  0  0
   -0.4046   -4.3343    0.0000 C   0  0  0  0  0  0  0  0  0  0  0  0
    4.8242    3.6587    0.0000 C   0  0  0  0  0  0  0  0  0  0  0  0
   -0.7125    0.6745    0.0000 C   0  0  0  0  0  0  0  0  0  0  0  0
   -0.3748   -2.9057    0.0000 C   0  0  0  0  0  0  0  0  0  0  0  0
    4.1468   -3.7148    0.0000 C   0  0  0  0  0  0  0  0  0  0  0  0
    1.5528   -9.3776    0.0000 C   0  0  0  0  0  0  0  0  0  0  0  0
    1.4652   -6.0322    0.0000 C   0  0  0  0  0  0  0  0  0  0  0  0
    5.7915    5.6154    0.0000 C   0  0  0  0  0  0  0  0  0  0  0  0
   -0.2711    2.7822    0.0000 C   0  0  0  0  0  0  0  0  0  0  0  0
    4.5144   -5.8664    0.0000 C   0  0  0  0  0  0  0  0  0  0  0  0
    4.4845   -7.2950    0.0000 C   0  0  0  0  0  0  0  0  0  0  0  0
    3.4065    3.8378    0.0000 C   0  0  0  0  0  0  0  0  0  0  0  0
   -1.5373    0.6918    0.0000 C   0  0  0  0  0  0  0  0  0  0  0  0
   -0.7816    1.4967    0.0000 C   0  0  0  0  0  0  0  0  0  0  0  0
    1.9503  -10.1005    0.0000 C   0  0  0  0  0  0  0  0  0  0  0  0
    0.7280   -9.3604    0.0000 C   0  0  0  0  0  0  0  0  0  0  0  0
    4.2502   -2.8963    0.0000 C   0  0  0  0  0  0  0  0  0  0  0  0
   -0.4781   -3.7242    0.0000 C   0  0  0  0  0  0  0  0  0  0  0  0
   -1.1996   -2.8884    0.0000 C   0  0  0  0  0  0  0  0  0  0  0  0
    4.9716   -3.7321    0.0000 C   0  0  0  0  0  0  0  0  0  0  0  0
    4.2364    0.5711    0.0000 C   0  0  0  0  0  0  0  0  0  0  0  0
  2  1  1  0
  3 18  1  0
  4  1  1  0
  5  3  1  0
  6 12  1  0
  7  6  1  0
  8 13  1  0
  9  4  1  0
 10 11  1  0
 11 24  1  0
 12  5  1  0
 13  7  1  0
 14 17  1  0
 15 20  1  0
 16  8  1  0
 17 25  1  0
 18  2  1  0
 19 27  1  0
 20 32  1  0
 21  9  1  0
 22 26  1  0
 23 10  1  0
 24 14  1  0
 25 15  1  0
 26 31  1  0
 27 34  1  0
 28 30  1  0
 29 28  1  0
 30 16  1  0
 31 21  1  0
 32 22  1  0
 33  4  1  0
 34 29  1  0
 35  2  2  0
 36  5  2  0
 37  7  2  0
 38 11  2  0
 39  9  2  0
 40 16  2  0
 12 41  1  0
 13 42  1  0
 43 17  2  0
 44 19  2  0
 45 20  2  0
 46 26  2  0
 23 47  1  0
 25 48  1  0
 49 29  2  0
 18 50  1  0
 51 50  1  0
 24 52  1  0
 53  1  1  0
 54 67  1  0
 55  3  1  0
 56 54  2  3
 57 51  2  0
 58  6  1  0
 59  8  1  0
 60 10  1  0
 61 33  1  0
 62 15  1  0
 33 63  1  0
 64 22  1  0
 31 65  1  0
 30 66  1  0
 67 61  1  0
 68 41  1  0
 69 42  1  0
 70 48  1  0
 71 47  1  0
 34 72  1  0
 73 56  1  0
 50 74  1  0
 75 52  1  0
 76 52  1  0
 61 77  1  0
 78 68  1  0
 79 68  1  0
 80 71  1  0
 81 71  1  0
 82 70  1  0
 83 69  1  0
 84 69  1  0
 85 70  1  0
 86 65  1  0
 19 23  1  0
M  END
>  <Classification>  (712) 
1

>  <pchembl>  (712) 
5.47

>  <InChI_steorem>  (712) 
InChI=1S/C63H111N11O12/c1-25-28-29-41(15)53(76)52-57(80)66-44(27-3)59(82)68(18)34-49(75)69(19)45(30-35(4)5)56(79)67-50(39(12)13)62(85)70(20)46(31-36(6)7)55(78)64-42(16)54(77)65-43(17)58(81)71(21)47(32-37(8)9)60(83)72(22)48(33-38(10)11)61(84)73(23)51(40(14)26-2)63(86)74(52)24/h25-26,28,35-48,50-53,76H,2,27,29-34H2,1,3-24H3,(H,64,78)(H,65,77)(H,66,80)(H,67,79)

>  <source>  (712) 
ChEMBL25

>  <source_id>  (712) 
25

>  <optional_reference>  (712) 
10.1021/jm0109863

>  <optional_origin>  (712) 
None

>  <target>  (712) 
MDR1

$$$$

     RDKit          2D

 87 87  0  0  0  0  0  0  0  0999 V2000
    2.4430    2.3977    0.0000 N   0  0  0  0  0  0  0  0  0  0  0  0
    1.8185    1.8585    0.0000 C   0  0  0  0  0  0  0  0  0  0  0  0
    0.4886    1.1325    0.0000 N   0  0  0  0  0  0  0  0  0  0  0  0
    3.1487    1.9703    0.0000 C   0  0  0  0  0  0  0  0  0  0  0  0
    0.8861    0.4096    0.0000 C   0  0  0  0  0  0  0  0  0  0  0  0
    2.9604    1.1671    0.0000 C   0  0  0  0  0  0  0  0  0  0  0  0
    0.8562   -1.0190    0.0000 N   0  0  0  0  0  0  0  0  0  0  0  0
    0.4289   -1.7247    0.0000 C   0  0  0  0  0  0  0  0  0  0  0  0
    0.3990   -3.1534    0.0000 N   0  0  0  0  0  0  0  0  0  0  0  0
    3.3606    0.3578    0.0000 N   0  0  0  0  0  0  0  0  0  0  0  0
    1.9590   -7.4737    0.0000 N   0  0  0  0  0  0  0  0  0  0  0  0
    2.7838   -7.4910    0.0000 C   0  0  0  0  0  0  0  0  0  0  0  0
    2.9332   -0.3478    0.0000 C   0  0  0  0  0  0  0  0  0  0  0  0
    3.3307   -1.0708    0.0000 C   0  0  0  0  0  0  0  0  0  0  0  0
    0.4588   -0.2961    0.0000 C   0  0  0  0  0  0  0  0  0  0  0  0
    0.8264   -2.4477    0.0000 C   0  0  0  0  0  0  0  0  0  0  0  0
    2.8137   -6.0624    0.0000 N   0  0  0  0  0  0  0  0  0  0  0  0
    3.2709   -3.9280    0.0000 N   0  0  0  0  0  0  0  0  0  0  0  0
    0.7965   -3.8763    0.0000 C   0  0  0  0  0  0  0  0  0  0  0  0
    3.2411   -5.3567    0.0000 C   0  0  0  0  0  0  0  0  0  0  0  0
    0.9160    1.8382    0.0000 C   0  0  0  0  0  0  0  0  0  0  0  0
    0.7069   -8.1622    0.0000 C   0  0  0  0  0  0  0  0  0  0  0  0
    2.9033   -1.7765    0.0000 N   0  0  0  0  0  0  0  0  0  0  0  0
    2.8735   -3.2051    0.0000 C   0  0  0  0  0  0  0  0  0  0  0  0
    1.5317   -8.1794    0.0000 C   0  0  0  0  0  0  0  0  0  0  0  0
    3.2112   -6.7853    0.0000 C   0  0  0  0  0  0  0  0  0  0  0  0
    2.8436   -4.6337    0.0000 C   0  0  0  0  0  0  0  0  0  0  0  0
    0.3094   -7.4392    0.0000 N   0  0  0  0  0  0  0  0  0  0  0  0
    0.7666   -5.3049    0.0000 N   0  0  0  0  0  0  0  0  0  0  0  0
    0.3393   -6.0106    0.0000 C   0  0  0  0  0  0  0  0  0  0  0  0
    0.3691   -4.5820    0.0000 C   0  0  0  0  0  0  0  0  0  0  0  0
    3.3008   -2.4994    0.0000 C   0  0  0  0  0  0  0  0  0  0  0  0
    3.9093    2.2900    0.0000 C   0  0  0  0  0  0  0  0  0  0  0  0
    0.7367   -6.7336    0.0000 C   0  0  0  0  0  0  0  0  0  0  0  0
    2.1148    1.0886    0.0000 O   0  0  0  0  0  0  0  0  0  0  0  0
    1.7109    0.3923    0.0000 O   0  0  0  0  0  0  0  0  0  0  0  0
   -0.3959   -1.7075    0.0000 O   0  0  0  0  0  0  0  0  0  0  0  0
    2.2100    0.8242    0.0000 O   0  0  0  0  0  0  0  0  0  0  0  0
    3.1813   -8.2139    0.0000 O   0  0  0  0  0  0  0  0  0  0  0  0
    4.1555   -1.0880    0.0000 O   0  0  0  0  0  0  0  0  0  0  0  0
    1.6213   -3.8935    0.0000 O   0  0  0  0  0  0  0  0  0  0  0  0
   -0.3661   -0.2789    0.0000 C   0  0  0  0  0  0  0  0  0  0  0  0
    0.0015   -2.4304    0.0000 C   0  0  0  0  0  0  0  0  0  0  0  0
    4.0659   -5.3739    0.0000 O   0  0  0  0  0  0  0  0  0  0  0  0
    0.2795   -8.8679    0.0000 O   0  0  0  0  0  0  0  0  0  0  0  0
    2.0486   -3.1879    0.0000 O   0  0  0  0  0  0  0  0  0  0  0  0
    1.9291   -8.9024    0.0000 C   0  0  0  0  0  0  0  0  0  0  0  0
    3.6684   -4.6510    0.0000 C   0  0  0  0  0  0  0  0  0  0  0  0
   -0.4856   -5.9934    0.0000 O   0  0  0  0  0  0  0  0  0  0  0  0
    3.7580   -0.3651    0.0000 C   0  0  0  0  0  0  0  0  0  0  0  0
    0.5029    2.5524    0.0000 C   0  0  0  0  0  0  0  0  0  0  0  0
    4.0360   -6.8026    0.0000 C   0  0  0  0  0  0  0  0  0  0  0  0
    2.3740    3.2198    0.0000 C   0  0  0  0  0  0  0  0  0  0  0  0
   -0.3362    1.1498    0.0000 C   0  0  0  0  0  0  0  0  0  0  0  0
    4.8765    4.2467    0.0000 C   0  0  0  0  0  0  0  0  0  0  0  0
    5.6371    4.5665    0.0000 C   0  0  0  0  0  0  0  0  0  0  0  0
    1.6810   -1.0363    0.0000 C   0  0  0  0  0  0  0  0  0  0  0  0
   -0.2784   -3.6242    0.0000 C   0  0  0  0  0  0  0  0  0  0  0  0
    1.5615   -6.7508    0.0000 C   0  0  0  0  0  0  0  0  0  0  0  0
    4.0126    3.1085    0.0000 C   0  0  0  0  0  0  0  0  0  0  0  0
    3.9484   -3.4572    0.0000 C   0  0  0  0  0  0  0  0  0  0  0  0
    4.5664    1.7912    0.0000 O   0  0  0  0  0  0  0  0  0  0  0  0
    2.0785   -1.7592    0.0000 C   0  0  0  0  0  0  0  0  0  0  0  0
    4.1854    0.3406    0.0000 O   0  0  0  0  0  0  0  0  0  0  0  0
   -0.4557   -4.5647    0.0000 C   0  0  0  0  0  0  0  0  0  0  0  0
    4.7732    3.4282    0.0000 C   0  0  0  0  0  0  0  0  0  0  0  0
   -0.7635    0.4441    0.0000 C   0  0  0  0  0  0  0  0  0  0  0  0
   -0.4258   -3.1361    0.0000 C   0  0  0  0  0  0  0  0  0  0  0  0
    4.0958   -3.9453    0.0000 C   0  0  0  0  0  0  0  0  0  0  0  0
    1.5018   -9.6081    0.0000 C   0  0  0  0  0  0  0  0  0  0  0  0
    1.4142   -6.2627    0.0000 C   0  0  0  0  0  0  0  0  0  0  0  0
    5.7404    5.3850    0.0000 C   0  0  0  0  0  0  0  0  0  0  0  0
    4.5045   -0.7163    0.0000 C   0  0  0  0  0  0  0  0  0  0  0  0
    0.9148    3.2672    0.0000 C   0  0  0  0  0  0  0  0  0  0  0  0
    4.4634   -6.0969    0.0000 C   0  0  0  0  0  0  0  0  0  0  0  0
    4.4335   -7.5255    0.0000 C   0  0  0  0  0  0  0  0  0  0  0  0
   -0.3221    2.5517    0.0000 C   0  0  0  0  0  0  0  0  0  0  0  0
    3.3555    3.6073    0.0000 C   0  0  0  0  0  0  0  0  0  0  0  0
    4.1991   -3.1268    0.0000 C   0  0  0  0  0  0  0  0  0  0  0  0
   -0.5292   -3.9546    0.0000 C   0  0  0  0  0  0  0  0  0  0  0  0
   -1.2506   -3.1189    0.0000 C   0  0  0  0  0  0  0  0  0  0  0  0
    4.9206   -3.9625    0.0000 C   0  0  0  0  0  0  0  0  0  0  0  0
   -1.5884    0.4613    0.0000 C   0  0  0  0  0  0  0  0  0  0  0  0
   -0.8326    1.2662    0.0000 C   0  0  0  0  0  0  0  0  0  0  0  0
    1.8993  -10.3310    0.0000 C   0  0  0  0  0  0  0  0  0  0  0  0
    0.6770   -9.5908    0.0000 C   0  0  0  0  0  0  0  0  0  0  0  0
    5.0833    5.8837    0.0000 C   0  0  0  0  0  0  0  0  0  0  0  0
  2  1  1  0
  3 21  1  0
  4  1  1  0
  5  3  1  0
  6  4  1  0
  7 15  1  0
  8  7  1  0
  9 16  1  0
 10  6  1  0
 11 12  1  0
 12 26  1  0
 13 10  1  0
 14 13  1  0
 15  5  1  0
 16  8  1  0
 17 20  1  0
 18 24  1  0
 19  9  1  0
 20 27  1  0
 21  2  1  0
 22 28  1  0
 23 14  1  0
 24 32  1  0
 25 11  1  0
 26 17  1  0
 27 18  1  0
 28 34  1  0
 29 31  1  0
 30 29  1  0
 31 19  1  0
 32 23  1  0
 33  4  1  0
 34 30  1  0
 35  2  2  0
 36  5  2  0
 37  8  2  0
 38  6  2  0
 39 12  2  0
 40 14  2  0
 41 19  2  0
 15 42  1  0
 16 43  1  0
 44 20  2  0
 45 22  2  0
 46 24  2  0
 25 47  1  0
 27 48  1  0
 49 30  2  0
 13 50  1  0
 21 51  1  0
 26 52  1  0
 53  1  1  0
 54  3  1  0
 55 66  1  0
 56 55  2  3
 57  7  1  0
 58  9  1  0
 59 11  1  0
 60 33  1  0
 61 18  1  0
 33 62  1  0
 63 23  1  0
 50 64  1  0
 31 65  1  0
 66 60  1  0
 67 42  1  0
 68 43  1  0
 69 48  1  0
 70 47  1  0
 34 71  1  0
 72 56  1  0
 50 73  1  0
 74 51  1  0
 75 52  1  0
 76 52  1  0
 77 51  1  0
 60 78  1  0
 79 69  1  0
 80 68  1  0
 81 68  1  0
 82 69  1  0
 83 67  1  0
 84 67  1  0
 85 70  1  0
 86 70  1  0
 87 72  1  0
 22 25  1  0
M  END
>  <Classification>  (713) 
1

>  <pchembl>  (713) 
5.29

>  <InChI_steorem>  (713) 
InChI=1S/C63H113N11O13/c1-25-26-27-28-40(14)53(77)52-57(81)67-50(43(17)75)61(85)68(18)33-48(76)69(19)44(29-34(2)3)56(80)66-49(38(10)11)62(86)70(20)45(30-35(4)5)55(79)64-41(15)54(78)65-42(16)58(82)71(21)46(31-36(6)7)59(83)72(22)47(32-37(8)9)60(84)73(23)51(39(12)13)63(87)74(52)24/h26-27,34-47,49-53,75,77H,25,28-33H2,1-24H3,(H,64,79)(H,65,78)(H,66,80)(H,67,81)

>  <source>  (713) 
ChEMBL25

>  <source_id>  (713) 
25

>  <optional_reference>  (713) 
10.1021/jm0109863

>  <optional_origin>  (713) 
None

>  <target>  (713) 
MDR1

$$$$

     RDKit          2D

 87 87  0  0  0  0  0  0  0  0999 V2000
    2.3484    2.6957    0.0000 N   0  0  0  0  0  0  0  0  0  0  0  0
    1.7239    2.1566    0.0000 C   0  0  0  0  0  0  0  0  0  0  0  0
    0.3940    1.4306    0.0000 N   0  0  0  0  0  0  0  0  0  0  0  0
    3.0541    2.2684    0.0000 C   0  0  0  0  0  0  0  0  0  0  0  0
    0.7915    0.7076    0.0000 C   0  0  0  0  0  0  0  0  0  0  0  0
    2.8657    1.4652    0.0000 C   0  0  0  0  0  0  0  0  0  0  0  0
    0.7616   -0.7210    0.0000 N   0  0  0  0  0  0  0  0  0  0  0  0
    0.3342   -1.4267    0.0000 C   0  0  0  0  0  0  0  0  0  0  0  0
    0.3044   -2.8553    0.0000 N   0  0  0  0  0  0  0  0  0  0  0  0
    3.2659    0.6559    0.0000 N   0  0  0  0  0  0  0  0  0  0  0  0
    1.8644   -7.1757    0.0000 N   0  0  0  0  0  0  0  0  0  0  0  0
    2.6892   -7.1929    0.0000 C   0  0  0  0  0  0  0  0  0  0  0  0
    2.8386   -0.0498    0.0000 C   0  0  0  0  0  0  0  0  0  0  0  0
    3.2360   -0.7727    0.0000 C   0  0  0  0  0  0  0  0  0  0  0  0
    0.3641    0.0019    0.0000 C   0  0  0  0  0  0  0  0  0  0  0  0
    0.7317   -2.1496    0.0000 C   0  0  0  0  0  0  0  0  0  0  0  0
    2.7191   -5.7643    0.0000 N   0  0  0  0  0  0  0  0  0  0  0  0
    3.1763   -3.6300    0.0000 N   0  0  0  0  0  0  0  0  0  0  0  0
    0.7018   -3.5782    0.0000 C   0  0  0  0  0  0  0  0  0  0  0  0
    3.1464   -5.0586    0.0000 C   0  0  0  0  0  0  0  0  0  0  0  0
    0.8213    2.1363    0.0000 C   0  0  0  0  0  0  0  0  0  0  0  0
    0.6122   -7.8641    0.0000 C   0  0  0  0  0  0  0  0  0  0  0  0
    2.8087   -1.4784    0.0000 N   0  0  0  0  0  0  0  0  0  0  0  0
    2.7788   -2.9071    0.0000 C   0  0  0  0  0  0  0  0  0  0  0  0
    1.4370   -7.8814    0.0000 C   0  0  0  0  0  0  0  0  0  0  0  0
    3.1165   -6.4873    0.0000 C   0  0  0  0  0  0  0  0  0  0  0  0
    2.7489   -4.3357    0.0000 C   0  0  0  0  0  0  0  0  0  0  0  0
    0.2147   -7.1412    0.0000 N   0  0  0  0  0  0  0  0  0  0  0  0
    0.6720   -5.0069    0.0000 N   0  0  0  0  0  0  0  0  0  0  0  0
    0.2446   -5.7126    0.0000 C   0  0  0  0  0  0  0  0  0  0  0  0
    0.2745   -4.2839    0.0000 C   0  0  0  0  0  0  0  0  0  0  0  0
    3.2062   -2.2014    0.0000 C   0  0  0  0  0  0  0  0  0  0  0  0
    3.8146    2.5881    0.0000 C   0  0  0  0  0  0  0  0  0  0  0  0
    0.6421   -6.4355    0.0000 C   0  0  0  0  0  0  0  0  0  0  0  0
    2.0202    1.3866    0.0000 O   0  0  0  0  0  0  0  0  0  0  0  0
    1.6163    0.6904    0.0000 O   0  0  0  0  0  0  0  0  0  0  0  0
   -0.4906   -1.4094    0.0000 O   0  0  0  0  0  0  0  0  0  0  0  0
    2.1153    1.1223    0.0000 O   0  0  0  0  0  0  0  0  0  0  0  0
    3.0867   -7.9159    0.0000 O   0  0  0  0  0  0  0  0  0  0  0  0
    4.0609   -0.7900    0.0000 O   0  0  0  0  0  0  0  0  0  0  0  0
   -0.0931   -2.1324    0.0000 C   0  0  0  0  0  0  0  0  0  0  0  0
    1.5267   -3.5955    0.0000 O   0  0  0  0  0  0  0  0  0  0  0  0
   -0.4607    0.0192    0.0000 C   0  0  0  0  0  0  0  0  0  0  0  0
    3.9712   -5.0759    0.0000 O   0  0  0  0  0  0  0  0  0  0  0  0
    0.1849   -8.5698    0.0000 O   0  0  0  0  0  0  0  0  0  0  0  0
    1.9540   -2.8898    0.0000 O   0  0  0  0  0  0  0  0  0  0  0  0
    1.8345   -8.6043    0.0000 C   0  0  0  0  0  0  0  0  0  0  0  0
    3.5738   -4.3529    0.0000 C   0  0  0  0  0  0  0  0  0  0  0  0
   -0.5802   -5.6953    0.0000 O   0  0  0  0  0  0  0  0  0  0  0  0
    3.6634   -0.0670    0.0000 C   0  0  0  0  0  0  0  0  0  0  0  0
    0.4083    2.8504    0.0000 C   0  0  0  0  0  0  0  0  0  0  0  0
    3.9414   -6.5045    0.0000 C   0  0  0  0  0  0  0  0  0  0  0  0
    2.2793    3.5178    0.0000 C   0  0  0  0  0  0  0  0  0  0  0  0
    4.7819    4.5448    0.0000 C   0  0  0  0  0  0  0  0  0  0  0  0
   -0.4308    1.4478    0.0000 C   0  0  0  0  0  0  0  0  0  0  0  0
    5.5424    4.8645    0.0000 C   0  0  0  0  0  0  0  0  0  0  0  0
    1.5864   -0.7382    0.0000 C   0  0  0  0  0  0  0  0  0  0  0  0
   -0.3731   -3.3262    0.0000 C   0  0  0  0  0  0  0  0  0  0  0  0
    1.4669   -6.4528    0.0000 C   0  0  0  0  0  0  0  0  0  0  0  0
    3.9180    3.4066    0.0000 C   0  0  0  0  0  0  0  0  0  0  0  0
    3.8537   -3.1591    0.0000 C   0  0  0  0  0  0  0  0  0  0  0  0
    4.4718    2.0893    0.0000 O   0  0  0  0  0  0  0  0  0  0  0  0
    1.9839   -1.4612    0.0000 C   0  0  0  0  0  0  0  0  0  0  0  0
    4.0907    0.6386    0.0000 O   0  0  0  0  0  0  0  0  0  0  0  0
   -0.5503   -4.2667    0.0000 C   0  0  0  0  0  0  0  0  0  0  0  0
    4.6785    3.7263    0.0000 C   0  0  0  0  0  0  0  0  0  0  0  0
   -0.8582    0.7421    0.0000 C   0  0  0  0  0  0  0  0  0  0  0  0
   -0.5205   -2.8381    0.0000 C   0  0  0  0  0  0  0  0  0  0  0  0
    4.0011   -3.6472    0.0000 C   0  0  0  0  0  0  0  0  0  0  0  0
    1.4072   -9.3100    0.0000 C   0  0  0  0  0  0  0  0  0  0  0  0
    1.3195   -5.9646    0.0000 C   0  0  0  0  0  0  0  0  0  0  0  0
    5.6458    5.6830    0.0000 C   0  0  0  0  0  0  0  0  0  0  0  0
    4.3687   -5.7988    0.0000 C   0  0  0  0  0  0  0  0  0  0  0  0
    4.4099   -0.4183    0.0000 C   0  0  0  0  0  0  0  0  0  0  0  0
    0.8202    3.5652    0.0000 C   0  0  0  0  0  0  0  0  0  0  0  0
   -0.4167    2.8497    0.0000 C   0  0  0  0  0  0  0  0  0  0  0  0
    4.3388   -7.2274    0.0000 C   0  0  0  0  0  0  0  0  0  0  0  0
    3.2608    3.9054    0.0000 C   0  0  0  0  0  0  0  0  0  0  0  0
    4.1045   -2.8287    0.0000 C   0  0  0  0  0  0  0  0  0  0  0  0
    4.8259   -3.6645    0.0000 C   0  0  0  0  0  0  0  0  0  0  0  0
   -0.6238   -3.6566    0.0000 C   0  0  0  0  0  0  0  0  0  0  0  0
    1.8046  -10.0330    0.0000 C   0  0  0  0  0  0  0  0  0  0  0  0
    0.5823   -9.2928    0.0000 C   0  0  0  0  0  0  0  0  0  0  0  0
   -1.6830    0.7594    0.0000 C   0  0  0  0  0  0  0  0  0  0  0  0
   -0.9272    1.5642    0.0000 C   0  0  0  0  0  0  0  0  0  0  0  0
   -1.3453   -2.8208    0.0000 C   0  0  0  0  0  0  0  0  0  0  0  0
    5.1935   -5.8161    0.0000 C   0  0  0  0  0  0  0  0  0  0  0  0
  2  1  1  0
  3 21  1  0
  4  1  1  0
  5  3  1  0
  6  4  1  0
  7 15  1  0
  8  7  1  0
  9 16  1  0
 10  6  1  0
 11 12  1  0
 12 26  1  0
 13 10  1  0
 14 13  1  0
 15  5  1  0
 16  8  1  0
 17 20  1  0
 18 24  1  0
 19  9  1  0
 20 27  1  0
 21  2  1  0
 22 28  1  0
 23 14  1  0
 24 32  1  0
 25 11  1  0
 26 17  1  0
 27 18  1  0
 28 34  1  0
 29 31  1  0
 30 29  1  0
 31 19  1  0
 32 23  1  0
 33  4  1  0
 34 30  1  0
 35  2  2  0
 36  5  2  0
 37  8  2  0
 38  6  2  0
 39 12  2  0
 40 14  2  0
 16 41  1  0
 42 19  2  0
 15 43  1  0
 44 20  2  0
 45 22  2  0
 46 24  2  0
 25 47  1  0
 27 48  1  0
 49 30  2  0
 13 50  1  0
 21 51  1  0
 26 52  1  0
 53  1  1  0
 54 66  1  0
 55  3  1  0
 56 54  2  3
 57  7  1  0
 58  9  1  0
 59 11  1  0
 60 33  1  0
 61 18  1  0
 33 62  1  0
 63 23  1  0
 50 64  1  0
 31 65  1  0
 66 60  1  0
 67 43  1  0
 68 41  1  0
 69 48  1  0
 70 47  1  0
 34 71  1  0
 72 56  1  0
 73 52  1  0
 50 74  1  0
 75 51  1  0
 76 51  1  0
 52 77  1  0
 60 78  1  0
 79 69  1  0
 80 69  1  0
 81 68  1  0
 82 70  1  0
 83 70  1  0
 84 67  1  0
 85 67  1  0
 86 68  1  0
 87 73  1  0
 22 25  1  0
M  END
>  <Classification>  (714) 
1

>  <pchembl>  (714) 
5.08

>  <InChI_steorem>  (714) 
InChI=1S/C63H113N11O13/c1-25-27-28-40(14)53(77)52-57(81)67-50(43(17)75)61(85)68(18)33-48(76)69(19)44(29-34(3)4)56(80)66-49(39(13)26-2)62(86)70(20)45(30-35(5)6)55(79)64-41(15)54(78)65-42(16)58(82)71(21)46(31-36(7)8)59(83)72(22)47(32-37(9)10)60(84)73(23)51(38(11)12)63(87)74(52)24/h25,27,34-47,49-53,75,77H,26,28-33H2,1-24H3,(H,64,79)(H,65,78)(H,66,80)(H,67,81)

>  <source>  (714) 
ChEMBL25

>  <source_id>  (714) 
25

>  <optional_reference>  (714) 
10.1021/jm0109863

>  <optional_origin>  (714) 
None

>  <target>  (714) 
MDR1

$$$$

     RDKit          2D

 88 88  0  0  0  0  0  0  0  0999 V2000
    4.7595   -6.1151    0.0000 N   0  0  0  0  0  0  0  0  0  0  0  0
    4.8602   -5.2963    0.0000 C   0  0  0  0  0  0  0  0  0  0  0  0
    1.6092    0.4494    0.0000 C   0  0  0  0  0  0  0  0  0  0  0  0
    5.3581   -3.8652    0.0000 N   0  0  0  0  0  0  0  0  0  0  0  0
    3.9496   -6.2723    0.0000 C   0  0  0  0  0  0  0  0  0  0  0  0
    0.8292    0.7181    0.0000 N   0  0  0  0  0  0  0  0  0  0  0  0
    1.7664   -0.3605    0.0000 C   0  0  0  0  0  0  0  0  0  0  0  0
    3.5498   -5.5507    0.0000 C   0  0  0  0  0  0  0  0  0  0  0  0
    2.5464   -0.6293    0.0000 N   0  0  0  0  0  0  0  0  0  0  0  0
    2.7098   -5.2198    0.0000 N   0  0  0  0  0  0  0  0  0  0  0  0
   -1.5108    1.5244    0.0000 N   0  0  0  0  0  0  0  0  0  0  0  0
   -2.1336    0.9833    0.0000 C   0  0  0  0  0  0  0  0  0  0  0  0
    2.5526   -4.4099    0.0000 C   0  0  0  0  0  0  0  0  0  0  0  0
    4.5781   -3.5965    0.0000 C   0  0  0  0  0  0  0  0  0  0  0  0
    1.7726   -4.1411    0.0000 C   0  0  0  0  0  0  0  0  0  0  0  0
   -1.1963   -0.0953    0.0000 N   0  0  0  0  0  0  0  0  0  0  0  0
   -0.1019   -1.9838    0.0000 N   0  0  0  0  0  0  0  0  0  0  0  0
   -1.0391   -0.9052    0.0000 C   0  0  0  0  0  0  0  0  0  0  0  0
    5.5153   -4.6751    0.0000 C   0  0  0  0  0  0  0  0  0  0  0  0
    3.4836   -1.7079    0.0000 C   0  0  0  0  0  0  0  0  0  0  0  0
   -1.0453    2.8754    0.0000 C   0  0  0  0  0  0  0  0  0  0  0  0
    1.6153   -3.3313    0.0000 N   0  0  0  0  0  0  0  0  0  0  0  0
    0.6781   -2.2526    0.0000 C   0  0  0  0  0  0  0  0  0  0  0  0
    3.6409   -2.5178    0.0000 N   0  0  0  0  0  0  0  0  0  0  0  0
   -1.6680    2.3343    0.0000 C   0  0  0  0  0  0  0  0  0  0  0  0
    2.7036   -1.4392    0.0000 C   0  0  0  0  0  0  0  0  0  0  0  0
   -1.9763    0.1735    0.0000 C   0  0  0  0  0  0  0  0  0  0  0  0
   -0.2591   -1.1740    0.0000 C   0  0  0  0  0  0  0  0  0  0  0  0
    0.6719    1.5280    0.0000 C   0  0  0  0  0  0  0  0  0  0  0  0
   -0.2653    2.6067    0.0000 N   0  0  0  0  0  0  0  0  0  0  0  0
    4.4208   -2.7866    0.0000 C   0  0  0  0  0  0  0  0  0  0  0  0
    0.8354   -3.0625    0.0000 C   0  0  0  0  0  0  0  0  0  0  0  0
    3.6007   -7.0200    0.0000 C   0  0  0  0  0  0  0  0  0  0  0  0
   -0.1081    1.7968    0.0000 C   0  0  0  0  0  0  0  0  0  0  0  0
    4.1236   -4.9247    0.0000 O   0  0  0  0  0  0  0  0  0  0  0  0
    1.1436   -0.9016    0.0000 O   0  0  0  0  0  0  0  0  0  0  0  0
    3.8755   -4.7927    0.0000 O   0  0  0  0  0  0  0  0  0  0  0  0
   -2.9136    1.2521    0.0000 O   0  0  0  0  0  0  0  0  0  0  0  0
    3.9553   -4.1376    0.0000 O   0  0  0  0  0  0  0  0  0  0  0  0
    1.1498   -4.6822    0.0000 O   0  0  0  0  0  0  0  0  0  0  0  0
   -1.6619   -1.4463    0.0000 O   0  0  0  0  0  0  0  0  0  0  0  0
   -1.2025    3.6853    0.0000 O   0  0  0  0  0  0  0  0  0  0  0  0
    4.3055   -1.6362    0.0000 O   0  0  0  0  0  0  0  0  0  0  0  0
    1.3009   -1.7115    0.0000 O   0  0  0  0  0  0  0  0  0  0  0  0
    1.2947    2.0691    0.0000 O   0  0  0  0  0  0  0  0  0  0  0  0
    3.3264   -0.8981    0.0000 C   0  0  0  0  0  0  0  0  0  0  0  0
   -2.4480    2.6031    0.0000 C   0  0  0  0  0  0  0  0  0  0  0  0
   -0.8819   -1.7151    0.0000 C   0  0  0  0  0  0  0  0  0  0  0  0
    5.0436   -2.2455    0.0000 C   0  0  0  0  0  0  0  0  0  0  0  0
    1.9050    1.2195    0.0000 C   0  0  0  0  0  0  0  0  0  0  0  0
    1.9298   -4.9510    0.0000 C   0  0  0  0  0  0  0  0  0  0  0  0
    2.4131    0.6348    0.0000 O   0  0  0  0  0  0  0  0  0  0  0  0
    6.3010   -4.9269    0.0000 C   0  0  0  0  0  0  0  0  0  0  0  0
   -2.5991   -0.3676    0.0000 C   0  0  0  0  0  0  0  0  0  0  0  0
    5.3627   -6.6779    0.0000 C   0  0  0  0  0  0  0  0  0  0  0  0
    4.1980   -9.1194    0.0000 C   0  0  0  0  0  0  0  0  0  0  0  0
    3.8492   -9.8670    0.0000 C   0  0  0  0  0  0  0  0  0  0  0  0
    5.9808   -3.3241    0.0000 C   0  0  0  0  0  0  0  0  0  0  0  0
    3.1692   -0.0882    0.0000 C   0  0  0  0  0  0  0  0  0  0  0  0
   -0.7308    1.2557    0.0000 C   0  0  0  0  0  0  0  0  0  0  0  0
    4.0738   -7.6959    0.0000 C   0  0  0  0  0  0  0  0  0  0  0  0
   -0.2876   -2.7877    0.0000 C   0  0  0  0  0  0  0  0  0  0  0  0
    2.7789   -7.0917    0.0000 O   0  0  0  0  0  0  0  0  0  0  0  0
    2.2381   -2.7901    0.0000 C   0  0  0  0  0  0  0  0  0  0  0  0
    1.1408   -5.1920    0.0000 O   0  0  0  0  0  0  0  0  0  0  0  0
    3.7249   -8.4435    0.0000 C   0  0  0  0  0  0  0  0  0  0  0  0
   -0.7246   -2.5249    0.0000 C   0  0  0  0  0  0  0  0  0  0  0  0
    4.1064   -1.1668    0.0000 C   0  0  0  0  0  0  0  0  0  0  0  0
   -2.6053    3.4130    0.0000 C   0  0  0  0  0  0  0  0  0  0  0  0
    5.8236   -2.5142    0.0000 C   0  0  0  0  0  0  0  0  0  0  0  0
   -0.2938    0.9930    0.0000 C   0  0  0  0  0  0  0  0  0  0  0  0
    4.3222  -10.5429    0.0000 C   0  0  0  0  0  0  0  0  0  0  0  0
    2.0871   -5.7609    0.0000 C   0  0  0  0  0  0  0  0  0  0  0  0
    1.6095    1.9898    0.0000 C   0  0  0  0  0  0  0  0  0  0  0  0
    2.7199    1.3484    0.0000 C   0  0  0  0  0  0  0  0  0  0  0  0
    6.4757   -5.7332    0.0000 C   0  0  0  0  0  0  0  0  0  0  0  0
    6.9118   -4.3724    0.0000 C   0  0  0  0  0  0  0  0  0  0  0  0
   -2.4418   -1.1775    0.0000 C   0  0  0  0  0  0  0  0  0  0  0  0
   -3.3791   -0.0989    0.0000 C   0  0  0  0  0  0  0  0  0  0  0  0
    4.8957   -7.6242    0.0000 C   0  0  0  0  0  0  0  0  0  0  0  0
    6.4464   -1.9731    0.0000 C   0  0  0  0  0  0  0  0  0  0  0  0
   -0.2516   -3.2009    0.0000 C   0  0  0  0  0  0  0  0  0  0  0  0
   -1.3474   -3.0661    0.0000 C   0  0  0  0  0  0  0  0  0  0  0  0
    4.7291   -0.6257    0.0000 C   0  0  0  0  0  0  0  0  0  0  0  0
   -3.3853    3.6817    0.0000 C   0  0  0  0  0  0  0  0  0  0  0  0
   -1.9825    3.9541    0.0000 C   0  0  0  0  0  0  0  0  0  0  0  0
    4.7096   -1.7296    0.0000 C   0  0  0  0  0  0  0  0  0  0  0  0
    6.4268   -3.0770    0.0000 C   0  0  0  0  0  0  0  0  0  0  0  0
  2  1  1  0
  3  7  1  0
  4 19  1  0
  5  1  1  0
  6  3  1  0
  7  9  1  0
  8  5  1  0
  9 26  1  0
 10  8  1  0
 11 12  1  0
 12 27  1  0
 13 10  1  0
 14  4  1  0
 15 13  1  0
 16 18  1  0
 17 23  1  0
 18 28  1  0
 19  2  1  0
 20 24  1  0
 21 30  1  0
 22 15  1  0
 23 32  1  0
 24 31  1  0
 25 11  1  0
 26 20  1  0
 27 16  1  0
 28 17  1  0
 29  6  1  0
 30 34  1  0
 31 14  1  0
 32 22  1  0
 33  5  1  0
 34 29  1  0
 35  2  2  0
 36  7  2  0
 37  8  2  0
 38 12  2  0
 39 14  2  0
 40 15  2  0
 41 18  2  0
 42 21  2  0
 43 20  2  0
 44 23  2  0
 45 29  2  0
 26 46  1  0
 25 47  1  0
 28 48  1  0
 31 49  1  0
  3 50  1  0
 13 51  1  0
  3 52  1  0
 19 53  1  0
 27 54  1  0
 55  1  1  0
 56 66  1  0
 57 56  2  3
 58  4  1  0
 59  9  1  0
 60 11  1  0
 61 33  1  0
 62 17  1  0
 33 63  1  0
 64 22  1  0
 51 65  1  0
 66 61  1  0
 67 48  1  0
 68 46  1  0
 69 47  1  0
 70 49  1  0
 34 71  1  0
 72 57  1  0
 51 73  1  0
 74 50  1  0
 75 50  1  0
 76 53  1  0
 77 53  1  0
 78 54  1  0
 79 54  1  0
 61 80  1  0
 81 70  1  0
 82 67  1  0
 83 67  1  0
 84 68  1  0
 85 69  1  0
 86 69  1  0
 87 68  1  0
 88 70  1  0
 21 25  1  0
M  END
>  <Classification>  (715) 
1

>  <pchembl>  (715) 
5.68

>  <InChI_steorem>  (715) 
InChI=1S/C63H113N11O14/c1-25-26-27-40(16)52(77)51-57(82)67-49(42(18)75)59(84)69(19)32-47(76)70(20)44(29-34(4)5)56(81)66-48(37(10)11)60(85)71(21)45(30-35(6)7)54(79)64-41(17)53(78)68-63(88,39(14)15)62(87)72(22)46(31-36(8)9)55(80)65-43(28-33(2)3)58(83)73(23)50(38(12)13)61(86)74(51)24/h25-26,33-46,48-52,75,77,88H,27-32H2,1-24H3,(H,64,79)(H,65,80)(H,66,81)(H,67,82)(H,68,78)

>  <source>  (715) 
ChEMBL25

>  <source_id>  (715) 
25

>  <optional_reference>  (715) 
10.1021/jm0109863

>  <optional_origin>  (715) 
None

>  <target>  (715) 
MDR1

$$$$

     RDKit          2D

 88 88  0  0  0  0  0  0  0  0999 V2000
    4.8326   -6.1721    0.0000 N   0  0  0  0  0  0  0  0  0  0  0  0
    4.9334   -5.3533    0.0000 C   0  0  0  0  0  0  0  0  0  0  0  0
    1.6824    0.3923    0.0000 C   0  0  0  0  0  0  0  0  0  0  0  0
    5.4313   -3.9223    0.0000 N   0  0  0  0  0  0  0  0  0  0  0  0
    4.0228   -6.3294    0.0000 C   0  0  0  0  0  0  0  0  0  0  0  0
    0.9024    0.6611    0.0000 N   0  0  0  0  0  0  0  0  0  0  0  0
    1.8396   -0.4176    0.0000 C   0  0  0  0  0  0  0  0  0  0  0  0
    3.6230   -5.6077    0.0000 C   0  0  0  0  0  0  0  0  0  0  0  0
    2.6196   -0.6863    0.0000 N   0  0  0  0  0  0  0  0  0  0  0  0
    2.7830   -5.2768    0.0000 N   0  0  0  0  0  0  0  0  0  0  0  0
   -1.4376    1.4674    0.0000 N   0  0  0  0  0  0  0  0  0  0  0  0
    2.6258   -4.4669    0.0000 C   0  0  0  0  0  0  0  0  0  0  0  0
    4.6513   -3.6535    0.0000 C   0  0  0  0  0  0  0  0  0  0  0  0
    1.8458   -4.1982    0.0000 C   0  0  0  0  0  0  0  0  0  0  0  0
   -2.0604    0.9263    0.0000 C   0  0  0  0  0  0  0  0  0  0  0  0
    5.5885   -4.7321    0.0000 C   0  0  0  0  0  0  0  0  0  0  0  0
    3.5568   -1.7650    0.0000 C   0  0  0  0  0  0  0  0  0  0  0  0
   -0.9721    2.8184    0.0000 C   0  0  0  0  0  0  0  0  0  0  0  0
    3.7140   -2.5748    0.0000 N   0  0  0  0  0  0  0  0  0  0  0  0
    1.6885   -3.3883    0.0000 N   0  0  0  0  0  0  0  0  0  0  0  0
   -1.1231   -0.1523    0.0000 N   0  0  0  0  0  0  0  0  0  0  0  0
    2.7768   -1.4962    0.0000 C   0  0  0  0  0  0  0  0  0  0  0  0
   -1.5948    2.2773    0.0000 C   0  0  0  0  0  0  0  0  0  0  0  0
    0.7451    1.4710    0.0000 C   0  0  0  0  0  0  0  0  0  0  0  0
   -0.1921    2.5496    0.0000 N   0  0  0  0  0  0  0  0  0  0  0  0
    4.4940   -2.8436    0.0000 C   0  0  0  0  0  0  0  0  0  0  0  0
   -1.9031    0.1164    0.0000 C   0  0  0  0  0  0  0  0  0  0  0  0
   -0.9659   -0.9622    0.0000 C   0  0  0  0  0  0  0  0  0  0  0  0
   -0.0287   -2.0409    0.0000 N   0  0  0  0  0  0  0  0  0  0  0  0
   -0.1859   -1.2310    0.0000 C   0  0  0  0  0  0  0  0  0  0  0  0
    0.7513   -2.3096    0.0000 C   0  0  0  0  0  0  0  0  0  0  0  0
    3.6739   -7.0770    0.0000 C   0  0  0  0  0  0  0  0  0  0  0  0
   -0.0349    1.7397    0.0000 C   0  0  0  0  0  0  0  0  0  0  0  0
    0.9085   -3.1195    0.0000 C   0  0  0  0  0  0  0  0  0  0  0  0
    4.1968   -4.9817    0.0000 O   0  0  0  0  0  0  0  0  0  0  0  0
    1.2168   -0.9587    0.0000 O   0  0  0  0  0  0  0  0  0  0  0  0
    3.9487   -4.8498    0.0000 O   0  0  0  0  0  0  0  0  0  0  0  0
    4.0285   -4.1946    0.0000 O   0  0  0  0  0  0  0  0  0  0  0  0
    1.2230   -4.7393    0.0000 O   0  0  0  0  0  0  0  0  0  0  0  0
   -2.8404    1.1951    0.0000 O   0  0  0  0  0  0  0  0  0  0  0  0
   -1.1293    3.6283    0.0000 O   0  0  0  0  0  0  0  0  0  0  0  0
    4.3787   -1.6933    0.0000 O   0  0  0  0  0  0  0  0  0  0  0  0
    1.3679    2.0121    0.0000 O   0  0  0  0  0  0  0  0  0  0  0  0
   -2.3748    2.5461    0.0000 C   0  0  0  0  0  0  0  0  0  0  0  0
    3.3996   -0.9551    0.0000 C   0  0  0  0  0  0  0  0  0  0  0  0
   -1.5887   -1.5033    0.0000 O   0  0  0  0  0  0  0  0  0  0  0  0
   -2.5259   -0.4247    0.0000 C   0  0  0  0  0  0  0  0  0  0  0  0
    5.1168   -2.3025    0.0000 C   0  0  0  0  0  0  0  0  0  0  0  0
    1.9782    1.1625    0.0000 C   0  0  0  0  0  0  0  0  0  0  0  0
    2.0030   -5.0080    0.0000 C   0  0  0  0  0  0  0  0  0  0  0  0
    1.3741   -1.7685    0.0000 O   0  0  0  0  0  0  0  0  0  0  0  0
   -0.8087   -1.7721    0.0000 C   0  0  0  0  0  0  0  0  0  0  0  0
    2.4863    0.5777    0.0000 O   0  0  0  0  0  0  0  0  0  0  0  0
    6.3741   -4.9839    0.0000 C   0  0  0  0  0  0  0  0  0  0  0  0
    5.4359   -6.7349    0.0000 C   0  0  0  0  0  0  0  0  0  0  0  0
    4.2712   -9.1764    0.0000 C   0  0  0  0  0  0  0  0  0  0  0  0
    3.9223   -9.9241    0.0000 C   0  0  0  0  0  0  0  0  0  0  0  0
    6.0540   -3.3812    0.0000 C   0  0  0  0  0  0  0  0  0  0  0  0
    3.2423   -0.1452    0.0000 C   0  0  0  0  0  0  0  0  0  0  0  0
   -0.6576    1.1986    0.0000 C   0  0  0  0  0  0  0  0  0  0  0  0
    4.1470   -7.7529    0.0000 C   0  0  0  0  0  0  0  0  0  0  0  0
    2.8521   -7.1487    0.0000 O   0  0  0  0  0  0  0  0  0  0  0  0
    2.3113   -2.8472    0.0000 C   0  0  0  0  0  0  0  0  0  0  0  0
    2.1602   -5.8179    0.0000 O   0  0  0  0  0  0  0  0  0  0  0  0
    3.7981   -8.5005    0.0000 C   0  0  0  0  0  0  0  0  0  0  0  0
   -2.5321    3.3559    0.0000 C   0  0  0  0  0  0  0  0  0  0  0  0
    4.1796   -1.2239    0.0000 C   0  0  0  0  0  0  0  0  0  0  0  0
   -3.3059   -0.1559    0.0000 C   0  0  0  0  0  0  0  0  0  0  0  0
    5.8968   -2.5713    0.0000 C   0  0  0  0  0  0  0  0  0  0  0  0
   -0.6514   -2.5820    0.0000 C   0  0  0  0  0  0  0  0  0  0  0  0
   -0.2206    0.9359    0.0000 C   0  0  0  0  0  0  0  0  0  0  0  0
    4.3954  -10.6000    0.0000 C   0  0  0  0  0  0  0  0  0  0  0  0
    1.2140   -5.2491    0.0000 C   0  0  0  0  0  0  0  0  0  0  0  0
    1.6827    1.9327    0.0000 C   0  0  0  0  0  0  0  0  0  0  0  0
    2.7931    1.2913    0.0000 C   0  0  0  0  0  0  0  0  0  0  0  0
    6.5489   -5.7902    0.0000 C   0  0  0  0  0  0  0  0  0  0  0  0
    6.9850   -4.4294    0.0000 C   0  0  0  0  0  0  0  0  0  0  0  0
    4.9689   -7.6812    0.0000 C   0  0  0  0  0  0  0  0  0  0  0  0
    0.1286   -2.8508    0.0000 C   0  0  0  0  0  0  0  0  0  0  0  0
   -3.3121    3.6247    0.0000 C   0  0  0  0  0  0  0  0  0  0  0  0
   -1.9093    3.8970    0.0000 C   0  0  0  0  0  0  0  0  0  0  0  0
    4.8023   -0.6828    0.0000 C   0  0  0  0  0  0  0  0  0  0  0  0
    4.7828   -1.7866    0.0000 C   0  0  0  0  0  0  0  0  0  0  0  0
   -3.9286   -0.6970    0.0000 C   0  0  0  0  0  0  0  0  0  0  0  0
   -3.4631    0.6540    0.0000 C   0  0  0  0  0  0  0  0  0  0  0  0
   -1.2742   -3.1231    0.0000 C   0  0  0  0  0  0  0  0  0  0  0  0
    6.5195   -2.0302    0.0000 C   0  0  0  0  0  0  0  0  0  0  0  0
    6.5000   -3.1341    0.0000 C   0  0  0  0  0  0  0  0  0  0  0  0
  2  1  1  0
  3  7  1  0
  4 16  1  0
  5  1  1  0
  6  3  1  0
  7  9  1  0
  8  5  1  0
  9 22  1  0
 10  8  1  0
 11 15  1  0
 12 10  1  0
 13  4  1  0
 14 12  1  0
 15 27  1  0
 16  2  1  0
 17 19  1  0
 18 25  1  0
 19 26  1  0
 20 14  1  0
 21 28  1  0
 22 17  1  0
 23 11  1  0
 24  6  1  0
 25 33  1  0
 26 13  1  0
 27 21  1  0
 28 30  1  0
 29 31  1  0
 30 29  1  0
 31 34  1  0
 32  5  1  0
 33 24  1  0
 34 20  1  0
 35  2  2  0
 36  7  2  0
 37  8  2  0
 38 13  2  0
 39 14  2  0
 40 15  2  0
 41 18  2  0
 42 17  2  0
 43 24  2  0
 23 44  1  0
 22 45  1  0
 46 28  2  0
 27 47  1  0
 26 48  1  0
  3 49  1  0
 12 50  1  0
 51 31  2  0
 30 52  1  0
  3 53  1  0
 16 54  1  0
 55  1  1  0
 56 65  1  0
 57 56  2  3
 58  4  1  0
 59  9  1  0
 60 11  1  0
 61 32  1  0
 32 62  1  0
 63 20  1  0
 50 64  1  0
 65 61  1  0
 66 44  1  0
 67 45  1  0
 68 47  1  0
 69 48  1  0
 70 52  1  0
 33 71  1  0
 72 57  1  0
 73 50  1  0
 74 49  1  0
 75 49  1  0
 76 54  1  0
 77 54  1  0
 61 78  1  0
 79 70  1  0
 80 66  1  0
 81 66  1  0
 82 67  1  0
 83 67  1  0
 84 68  1  0
 85 68  1  0
 86 70  1  0
 87 69  1  0
 88 69  1  0
 18 23  1  0
M  END
>  <Classification>  (716) 
1

>  <pchembl>  (716) 
5.37

>  <InChI_steorem>  (716) 
InChI=1S/C63H113N11O14/c1-24-25-26-40(16)52(77)51-57(82)68-49(42(18)75)60(85)70(19)32-48(76)65-43(27-33(2)3)54(79)66-44(28-34(4)5)58(83)71(20)46(30-36(8)9)55(80)64-41(17)53(78)69-63(88,39(14)15)62(87)72(21)47(31-37(10)11)56(81)67-45(29-35(6)7)59(84)73(22)50(38(12)13)61(86)74(51)23/h24-25,33-47,49-52,75,77,88H,26-32H2,1-23H3,(H,64,80)(H,65,76)(H,66,79)(H,67,81)(H,68,82)(H,69,78)

>  <source>  (716) 
ChEMBL25

>  <source_id>  (716) 
25

>  <optional_reference>  (716) 
10.1021/jm0109863

>  <optional_origin>  (716) 
None

>  <target>  (716) 
MDR1

$$$$

     RDKit          2D

 88 88  0  0  0  0  0  0  0  0999 V2000
    4.8689   -6.1869    0.0000 N   0  0  0  0  0  0  0  0  0  0  0  0
    4.9696   -5.3681    0.0000 C   0  0  0  0  0  0  0  0  0  0  0  0
    1.7186    0.3776    0.0000 C   0  0  0  0  0  0  0  0  0  0  0  0
    5.4675   -3.9370    0.0000 N   0  0  0  0  0  0  0  0  0  0  0  0
    4.0590   -6.3441    0.0000 C   0  0  0  0  0  0  0  0  0  0  0  0
    0.9386    0.6463    0.0000 N   0  0  0  0  0  0  0  0  0  0  0  0
    1.8758   -0.4323    0.0000 C   0  0  0  0  0  0  0  0  0  0  0  0
    3.6592   -5.6225    0.0000 C   0  0  0  0  0  0  0  0  0  0  0  0
    2.6558   -0.7011    0.0000 N   0  0  0  0  0  0  0  0  0  0  0  0
    2.8193   -5.2916    0.0000 N   0  0  0  0  0  0  0  0  0  0  0  0
   -1.4014    1.4526    0.0000 N   0  0  0  0  0  0  0  0  0  0  0  0
    4.6875   -3.6683    0.0000 C   0  0  0  0  0  0  0  0  0  0  0  0
   -2.0241    0.9115    0.0000 C   0  0  0  0  0  0  0  0  0  0  0  0
    0.0076   -2.0556    0.0000 N   0  0  0  0  0  0  0  0  0  0  0  0
    5.6248   -4.7469    0.0000 C   0  0  0  0  0  0  0  0  0  0  0  0
    2.6620   -4.4817    0.0000 C   0  0  0  0  0  0  0  0  0  0  0  0
    3.5931   -1.7797    0.0000 C   0  0  0  0  0  0  0  0  0  0  0  0
   -0.9297   -0.9770    0.0000 C   0  0  0  0  0  0  0  0  0  0  0  0
   -0.9358    2.8036    0.0000 C   0  0  0  0  0  0  0  0  0  0  0  0
    3.7503   -2.5896    0.0000 N   0  0  0  0  0  0  0  0  0  0  0  0
   -1.0869   -0.1671    0.0000 N   0  0  0  0  0  0  0  0  0  0  0  0
    2.8131   -1.5110    0.0000 C   0  0  0  0  0  0  0  0  0  0  0  0
   -1.5586    2.2625    0.0000 C   0  0  0  0  0  0  0  0  0  0  0  0
    0.7814    1.4562    0.0000 C   0  0  0  0  0  0  0  0  0  0  0  0
   -0.1497   -1.2458    0.0000 C   0  0  0  0  0  0  0  0  0  0  0  0
   -0.1558    2.5349    0.0000 N   0  0  0  0  0  0  0  0  0  0  0  0
    4.5303   -2.8584    0.0000 C   0  0  0  0  0  0  0  0  0  0  0  0
   -1.8669    0.1017    0.0000 C   0  0  0  0  0  0  0  0  0  0  0  0
    1.8820   -4.2129    0.0000 C   0  0  0  0  0  0  0  0  0  0  0  0
    0.7876   -2.3244    0.0000 C   0  0  0  0  0  0  0  0  0  0  0  0
    1.7248   -3.4031    0.0000 N   0  0  0  0  0  0  0  0  0  0  0  0
    3.7102   -7.0918    0.0000 C   0  0  0  0  0  0  0  0  0  0  0  0
    0.0014    1.7250    0.0000 C   0  0  0  0  0  0  0  0  0  0  0  0
    4.2330   -4.9965    0.0000 O   0  0  0  0  0  0  0  0  0  0  0  0
    0.9448   -3.1343    0.0000 C   0  0  0  0  0  0  0  0  0  0  0  0
    1.2531   -0.9734    0.0000 O   0  0  0  0  0  0  0  0  0  0  0  0
    3.9850   -4.8645    0.0000 O   0  0  0  0  0  0  0  0  0  0  0  0
    4.0648   -4.2094    0.0000 O   0  0  0  0  0  0  0  0  0  0  0  0
   -2.8041    1.1803    0.0000 O   0  0  0  0  0  0  0  0  0  0  0  0
    4.4149   -1.7080    0.0000 O   0  0  0  0  0  0  0  0  0  0  0  0
   -1.5524   -1.5181    0.0000 O   0  0  0  0  0  0  0  0  0  0  0  0
   -1.0931    3.6135    0.0000 O   0  0  0  0  0  0  0  0  0  0  0  0
    1.4041    1.9973    0.0000 O   0  0  0  0  0  0  0  0  0  0  0  0
   -2.3386    2.5313    0.0000 C   0  0  0  0  0  0  0  0  0  0  0  0
    3.4358   -0.9699    0.0000 C   0  0  0  0  0  0  0  0  0  0  0  0
   -0.7724   -1.7869    0.0000 C   0  0  0  0  0  0  0  0  0  0  0  0
   -2.4896   -0.4395    0.0000 C   0  0  0  0  0  0  0  0  0  0  0  0
    5.1531   -2.3173    0.0000 C   0  0  0  0  0  0  0  0  0  0  0  0
    2.0144    1.1477    0.0000 C   0  0  0  0  0  0  0  0  0  0  0  0
    1.2593   -4.7540    0.0000 O   0  0  0  0  0  0  0  0  0  0  0  0
    1.4103   -1.7833    0.0000 O   0  0  0  0  0  0  0  0  0  0  0  0
    2.5225    0.5630    0.0000 O   0  0  0  0  0  0  0  0  0  0  0  0
    2.0393   -5.0228    0.0000 C   0  0  0  0  0  0  0  0  0  0  0  0
    6.4104   -4.9987    0.0000 C   0  0  0  0  0  0  0  0  0  0  0  0
    5.4721   -6.7497    0.0000 C   0  0  0  0  0  0  0  0  0  0  0  0
    4.3074   -9.1912    0.0000 C   0  0  0  0  0  0  0  0  0  0  0  0
    3.9586   -9.9388    0.0000 C   0  0  0  0  0  0  0  0  0  0  0  0
    6.0903   -3.3959    0.0000 C   0  0  0  0  0  0  0  0  0  0  0  0
    3.2786   -0.1600    0.0000 C   0  0  0  0  0  0  0  0  0  0  0  0
   -0.6214    1.1839    0.0000 C   0  0  0  0  0  0  0  0  0  0  0  0
    4.1832   -7.7677    0.0000 C   0  0  0  0  0  0  0  0  0  0  0  0
   -0.1782   -2.8595    0.0000 C   0  0  0  0  0  0  0  0  0  0  0  0
    2.8883   -7.1635    0.0000 O   0  0  0  0  0  0  0  0  0  0  0  0
    2.1965   -5.8327    0.0000 O   0  0  0  0  0  0  0  0  0  0  0  0
    3.8344   -8.5153    0.0000 C   0  0  0  0  0  0  0  0  0  0  0  0
   -0.6152   -2.5968    0.0000 C   0  0  0  0  0  0  0  0  0  0  0  0
    4.2158   -1.2386    0.0000 C   0  0  0  0  0  0  0  0  0  0  0  0
   -2.4958    3.3412    0.0000 C   0  0  0  0  0  0  0  0  0  0  0  0
   -3.2696   -0.1707    0.0000 C   0  0  0  0  0  0  0  0  0  0  0  0
    5.9330   -2.5860    0.0000 C   0  0  0  0  0  0  0  0  0  0  0  0
   -0.1844    0.9212    0.0000 C   0  0  0  0  0  0  0  0  0  0  0  0
    4.4316  -10.6147    0.0000 C   0  0  0  0  0  0  0  0  0  0  0  0
    1.7190    1.9180    0.0000 C   0  0  0  0  0  0  0  0  0  0  0  0
    2.8293    1.2766    0.0000 C   0  0  0  0  0  0  0  0  0  0  0  0
    1.2503   -5.2638    0.0000 C   0  0  0  0  0  0  0  0  0  0  0  0
    6.5852   -5.8050    0.0000 C   0  0  0  0  0  0  0  0  0  0  0  0
    7.0213   -4.4442    0.0000 C   0  0  0  0  0  0  0  0  0  0  0  0
    5.0051   -7.6960    0.0000 C   0  0  0  0  0  0  0  0  0  0  0  0
   -0.1421   -3.2727    0.0000 C   0  0  0  0  0  0  0  0  0  0  0  0
   -1.2379   -3.1379    0.0000 C   0  0  0  0  0  0  0  0  0  0  0  0
   -3.8924   -0.7118    0.0000 C   0  0  0  0  0  0  0  0  0  0  0  0
   -3.4269    0.6392    0.0000 C   0  0  0  0  0  0  0  0  0  0  0  0
    4.8386   -0.6975    0.0000 C   0  0  0  0  0  0  0  0  0  0  0  0
    4.8191   -1.8014    0.0000 C   0  0  0  0  0  0  0  0  0  0  0  0
   -3.2758    3.6099    0.0000 C   0  0  0  0  0  0  0  0  0  0  0  0
   -1.8731    3.8823    0.0000 C   0  0  0  0  0  0  0  0  0  0  0  0
    6.5558   -2.0449    0.0000 C   0  0  0  0  0  0  0  0  0  0  0  0
    6.5363   -3.1488    0.0000 C   0  0  0  0  0  0  0  0  0  0  0  0
  2  1  1  0
  3  7  1  0
  4 15  1  0
  5  1  1  0
  6  3  1  0
  7  9  1  0
  8  5  1  0
  9 22  1  0
 10  8  1  0
 11 13  1  0
 12  4  1  0
 13 28  1  0
 14 30  1  0
 15  2  1  0
 16 10  1  0
 17 20  1  0
 18 25  1  0
 19 26  1  0
 20 27  1  0
 21 18  1  0
 22 17  1  0
 23 11  1  0
 24  6  1  0
 25 14  1  0
 26 33  1  0
 27 12  1  0
 28 21  1  0
 29 16  1  0
 30 35  1  0
 31 29  1  0
 32  5  1  0
 33 24  1  0
 34  2  2  0
 35 31  1  0
 36  7  2  0
 37  8  2  0
 38 12  2  0
 39 13  2  0
 40 17  2  0
 41 18  2  0
 42 19  2  0
 43 24  2  0
 23 44  1  0
 22 45  1  0
 25 46  1  0
 28 47  1  0
 27 48  1  0
  3 49  1  0
 50 29  2  0
 51 30  2  0
  3 52  1  0
 16 53  1  0
 15 54  1  0
 55  1  1  0
 56 65  1  0
 57 56  2  3
 58  4  1  0
 59  9  1  0
 60 11  1  0
 61 32  1  0
 62 14  1  0
 32 63  1  0
 53 64  1  0
 65 61  1  0
 66 46  1  0
 67 45  1  0
 68 44  1  0
 69 47  1  0
 70 48  1  0
 33 71  1  0
 72 57  1  0
 73 49  1  0
 74 49  1  0
 75 53  1  0
 76 54  1  0
 77 54  1  0
 61 78  1  0
 79 66  1  0
 80 66  1  0
 81 69  1  0
 82 69  1  0
 83 67  1  0
 84 67  1  0
 85 68  1  0
 86 68  1  0
 87 70  1  0
 88 70  1  0
 19 23  1  0
M  END
>  <Classification>  (717) 
1

>  <pchembl>  (717) 
5.4

>  <InChI_steorem>  (717) 
InChI=1S/C63H113N11O14/c1-24-25-26-40(16)52(77)51-58(83)68-49(42(18)75)57(82)64-32-48(76)70(19)45(29-35(6)7)55(80)66-43(27-33(2)3)59(84)71(20)46(30-36(8)9)54(79)65-41(17)53(78)69-63(88,39(14)15)62(87)72(21)47(31-37(10)11)56(81)67-44(28-34(4)5)60(85)73(22)50(38(12)13)61(86)74(51)23/h24-25,33-47,49-52,75,77,88H,26-32H2,1-23H3,(H,64,82)(H,65,79)(H,66,80)(H,67,81)(H,68,83)(H,69,78)

>  <source>  (717) 
ChEMBL25

>  <source_id>  (717) 
25

>  <optional_reference>  (717) 
10.1021/jm0109863

>  <optional_origin>  (717) 
None

>  <target>  (717) 
MDR1

$$$$

     RDKit          2D

 89 90  0  0  0  0  0  0  0  0999 V2000
    4.3294   -6.7157    0.0000 N   0  0  0  0  0  0  0  0  0  0  0  0
    4.5843   -5.9310    0.0000 C   0  0  0  0  0  0  0  0  0  0  0  0
    5.3458   -4.6211    0.0000 N   0  0  0  0  0  0  0  0  0  0  0  0
    3.5044   -6.7157    0.0000 C   0  0  0  0  0  0  0  0  0  0  0  0
    4.6313   -4.2086    0.0000 C   0  0  0  0  0  0  0  0  0  0  0  0
    3.9169   -2.9711    0.0000 N   0  0  0  0  0  0  0  0  0  0  0  0
    3.9169   -2.1461    0.0000 C   0  0  0  0  0  0  0  0  0  0  0  0
    3.2024   -0.9086    0.0000 N   0  0  0  0  0  0  0  0  0  0  0  0
    3.2494   -5.9310    0.0000 C   0  0  0  0  0  0  0  0  0  0  0  0
   -0.3700    1.9789    0.0000 N   0  0  0  0  0  0  0  0  0  0  0  0
   -1.0844    1.5664    0.0000 C   0  0  0  0  0  0  0  0  0  0  0  0
    4.6313   -3.3836    0.0000 C   0  0  0  0  0  0  0  0  0  0  0  0
    3.2024   -1.7336    0.0000 C   0  0  0  0  0  0  0  0  0  0  0  0
   -0.3700    0.3289    0.0000 N   0  0  0  0  0  0  0  0  0  0  0  0
    0.3445   -1.7336    0.0000 N   0  0  0  0  0  0  0  0  0  0  0  0
    2.4879   -0.4961    0.0000 C   0  0  0  0  0  0  0  0  0  0  0  0
   -0.3700   -0.4961    0.0000 C   0  0  0  0  0  0  0  0  0  0  0  0
    5.3458   -5.4461    0.0000 C   0  0  0  0  0  0  0  0  0  0  0  0
    0.3445    3.2164    0.0000 C   0  0  0  0  0  0  0  0  0  0  0  0
    1.0590   -2.1461    0.0000 C   0  0  0  0  0  0  0  0  0  0  0  0
    2.4879   -5.4461    0.0000 N   0  0  0  0  0  0  0  0  0  0  0  0
    1.7734   -3.3836    0.0000 N   0  0  0  0  0  0  0  0  0  0  0  0
   -0.3700    2.8039    0.0000 C   0  0  0  0  0  0  0  0  0  0  0  0
   -1.0844    0.7414    0.0000 C   0  0  0  0  0  0  0  0  0  0  0  0
    0.3445   -0.9086    0.0000 C   0  0  0  0  0  0  0  0  0  0  0  0
    1.7734   -4.2086    0.0000 C   0  0  0  0  0  0  0  0  0  0  0  0
    1.0590    2.8039    0.0000 N   0  0  0  0  0  0  0  0  0  0  0  0
    1.7734    0.7414    0.0000 N   0  0  0  0  0  0  0  0  0  0  0  0
    1.7734    1.5664    0.0000 C   0  0  0  0  0  0  0  0  0  0  0  0
    2.4879    0.3289    0.0000 C   0  0  0  0  0  0  0  0  0  0  0  0
    2.4879   -4.6211    0.0000 C   0  0  0  0  0  0  0  0  0  0  0  0
    1.0590   -2.9711    0.0000 C   0  0  0  0  0  0  0  0  0  0  0  0
    3.0194   -7.3831    0.0000 C   0  0  0  0  0  0  0  0  0  0  0  0
    1.0590    1.9789    0.0000 C   0  0  0  0  0  0  0  0  0  0  0  0
    3.9320   -5.4259    0.0000 O   0  0  0  0  0  0  0  0  0  0  0  0
    3.9169   -4.6211    0.0000 O   0  0  0  0  0  0  0  0  0  0  0  0
    4.6313   -1.7336    0.0000 O   0  0  0  0  0  0  0  0  0  0  0  0
   -1.7989    1.9789    0.0000 O   0  0  0  0  0  0  0  0  0  0  0  0
    3.7137   -5.2491    0.0000 O   0  0  0  0  0  0  0  0  0  0  0  0
    3.9169   -1.3211    0.0000 C   0  0  0  0  0  0  0  0  0  0  0  0
    1.7734   -0.9086    0.0000 O   0  0  0  0  0  0  0  0  0  0  0  0
    5.3458   -2.9711    0.0000 C   0  0  0  0  0  0  0  0  0  0  0  0
   -1.0844   -0.9086    0.0000 O   0  0  0  0  0  0  0  0  0  0  0  0
    0.3445    4.0414    0.0000 O   0  0  0  0  0  0  0  0  0  0  0  0
    1.7734   -1.7336    0.0000 O   0  0  0  0  0  0  0  0  0  0  0  0
   -0.3700   -1.3211    0.0000 C   0  0  0  0  0  0  0  0  0  0  0  0
    1.0590   -4.6211    0.0000 O   0  0  0  0  0  0  0  0  0  0  0  0
   -1.0844    3.2164    0.0000 C   0  0  0  0  0  0  0  0  0  0  0  0
    2.4879    1.9789    0.0000 O   0  0  0  0  0  0  0  0  0  0  0  0
    6.0691   -5.8430    0.0000 C   0  0  0  0  0  0  0  0  0  0  0  0
   -1.7989    0.3289    0.0000 C   0  0  0  0  0  0  0  0  0  0  0  0
    4.8143   -7.3831    0.0000 C   0  0  0  0  0  0  0  0  0  0  0  0
    0.8935   -7.8781    0.0000 C   0  0  0  0  0  0  0  0  0  0  0  0
    6.1509   -3.8705    0.0000 C   0  0  0  0  0  0  0  0  0  0  0  0
    0.5580   -7.1244    0.0000 C   0  0  0  0  0  0  0  0  0  0  0  0
    3.2024   -3.3836    0.0000 C   0  0  0  0  0  0  0  0  0  0  0  0
    3.5379   -0.1550    0.0000 C   0  0  0  0  0  0  0  0  0  0  0  0
    0.3445    1.5664    0.0000 C   0  0  0  0  0  0  0  0  0  0  0  0
    2.1989   -7.2969    0.0000 C   0  0  0  0  0  0  0  0  0  0  0  0
    0.0089   -2.4873    0.0000 C   0  0  0  0  0  0  0  0  0  0  0  0
    3.3550   -8.1368    0.0000 O   0  0  0  0  0  0  0  0  0  0  0  0
    2.4879   -2.9711    0.0000 C   0  0  0  0  0  0  0  0  0  0  0  0
   -0.3700   -2.1461    0.0000 C   0  0  0  0  0  0  0  0  0  0  0  0
    1.7734   -5.0336    0.0000 C   0  0  0  0  0  0  0  0  0  0  0  0
    3.2024    0.7414    0.0000 C   0  0  0  0  0  0  0  0  0  0  0  0
    1.7140   -7.9643    0.0000 C   0  0  0  0  0  0  0  0  0  0  0  0
    6.0603   -3.3836    0.0000 C   0  0  0  0  0  0  0  0  0  0  0  0
    3.9169   -0.4961    0.0000 C   0  0  0  0  0  0  0  0  0  0  0  0
   -1.0844    4.0414    0.0000 C   0  0  0  0  0  0  0  0  0  0  0  0
    0.7234    1.2252    0.0000 C   0  0  0  0  0  0  0  0  0  0  0  0
   -0.2625   -7.0381    0.0000 C   0  0  0  0  0  0  0  0  0  0  0  0
    6.0870   -6.6678    0.0000 C   0  0  0  0  0  0  0  0  0  0  0  0
    6.7744   -5.4151    0.0000 C   0  0  0  0  0  0  0  0  0  0  0  0
   -1.7989   -0.4961    0.0000 C   0  0  0  0  0  0  0  0  0  0  0  0
   -2.5134    0.7414    0.0000 C   0  0  0  0  0  0  0  0  0  0  0  0
    1.8634   -6.5432    0.0000 C   0  0  0  0  0  0  0  0  0  0  0  0
   -1.0844   -2.5586    0.0000 C   0  0  0  0  0  0  0  0  0  0  0  0
    0.3445   -2.5586    0.0000 C   0  0  0  0  0  0  0  0  0  0  0  0
    3.2024   -0.0836    0.0000 C   0  0  0  0  0  0  0  0  0  0  0  0
    4.6313   -0.0836    0.0000 C   0  0  0  0  0  0  0  0  0  0  0  0
   -1.7989    4.4539    0.0000 C   0  0  0  0  0  0  0  0  0  0  0  0
    6.7747   -2.9711    0.0000 C   0  0  0  0  0  0  0  0  0  0  0  0
    6.0603   -4.2086    0.0000 C   0  0  0  0  0  0  0  0  0  0  0  0
   -0.3700    4.4539    0.0000 C   0  0  0  0  0  0  0  0  0  0  0  0
    1.7734   -5.8586    0.0000 C   0  0  0  0  0  0  0  0  0  0  0  0
   -0.7474   -7.7056    0.0000 C   0  0  0  0  0  0  0  0  0  0  0  0
   -1.0844   -3.3836    0.0000 C   0  0  0  0  0  0  0  0  0  0  0  0
    0.3445   -3.3836    0.0000 C   0  0  0  0  0  0  0  0  0  0  0  0
   -0.3700   -3.7961    0.0000 C   0  0  0  0  0  0  0  0  0  0  0  0
  2  1  1  0
  3 18  1  0
  4  1  1  0
  5  3  1  0
  6 12  1  0
  7  6  1  0
  8 13  1  0
  9  4  1  0
 10 11  1  0
 11 24  1  0
 12  5  1  0
 13  7  1  0
 14 17  1  0
 15 20  1  0
 16  8  1  0
 17 25  1  0
 18  2  1  0
 19 27  1  0
 20 32  1  0
 21  9  1  0
 22 26  1  0
 23 10  1  0
 24 14  1  0
 25 15  1  0
 26 31  1  0
 27 34  1  0
 28 30  1  0
 29 28  1  0
 30 16  1  0
 31 21  1  0
 32 22  1  0
 33  4  1  0
 34 29  1  0
 35  2  2  0
 36  5  2  0
 37  7  2  0
 38 11  2  0
 39  9  2  0
 13 40  1  0
 41 16  2  0
 12 42  1  0
 43 17  2  0
 44 19  2  0
 45 20  2  0
 25 46  1  0
 47 26  2  0
 23 48  1  0
 49 29  2  0
 18 50  1  0
 24 51  1  0
 52  1  1  0
 53 66  1  0
 54  3  1  0
 55 53  2  3
 56  6  1  0
 57  8  1  0
 58 10  1  0
 59 33  1  0
 60 15  1  0
 33 61  1  0
 62 22  1  0
 63 46  1  0
 31 64  1  0
 30 65  1  0
 66 59  1  0
 67 42  1  0
 68 40  1  0
 69 48  1  0
 34 70  1  0
 71 55  1  0
 72 50  1  0
 73 50  1  0
 74 51  1  0
 75 51  1  0
 59 76  1  0
 77 63  2  0
 78 63  1  0
 79 68  1  0
 80 68  1  0
 81 69  1  0
 82 67  1  0
 83 67  1  0
 84 69  1  0
 85 64  1  0
 86 71  1  0
 87 77  1  0
 88 78  2  0
 89 88  1  0
 89 87  2  0
 19 23  1  0
M  END
>  <Classification>  (718) 
1

>  <pchembl>  (718) 
5.62

>  <InChI_steorem>  (718) 
InChI=1S/C66H111N11O12/c1-23-25-27-30-43(13)56(79)55-60(83)69-47(24-2)62(85)71(16)37-52(78)72(17)49(36-46-31-28-26-29-32-46)59(82)70-53(41(9)10)65(88)73(18)48(33-38(3)4)58(81)67-44(14)57(80)68-45(15)61(84)74(19)50(34-39(5)6)63(86)75(20)51(35-40(7)8)64(87)76(21)54(42(11)12)66(89)77(55)22/h25-29,31-32,38-45,47-51,53-56,79H,23-24,30,33-37H2,1-22H3,(H,67,81)(H,68,80)(H,69,83)(H,70,82)

>  <source>  (718) 
ChEMBL25

>  <source_id>  (718) 
25

>  <optional_reference>  (718) 
10.1021/jm0109863

>  <optional_origin>  (718) 
None

>  <target>  (718) 
MDR1

$$$$

     RDKit          2D

 89 89  0  0  0  0  0  0  0  0999 V2000
    5.0524   -6.2707    0.0000 N   0  0  0  0  0  0  0  0  0  0  0  0
    5.1531   -5.4518    0.0000 C   0  0  0  0  0  0  0  0  0  0  0  0
    1.9021    0.2938    0.0000 C   0  0  0  0  0  0  0  0  0  0  0  0
    5.6510   -4.0208    0.0000 N   0  0  0  0  0  0  0  0  0  0  0  0
    4.2425   -6.4279    0.0000 C   0  0  0  0  0  0  0  0  0  0  0  0
    1.1221    0.5626    0.0000 N   0  0  0  0  0  0  0  0  0  0  0  0
    2.0593   -0.5161    0.0000 C   0  0  0  0  0  0  0  0  0  0  0  0
    3.8427   -5.7062    0.0000 C   0  0  0  0  0  0  0  0  0  0  0  0
    2.8393   -0.7848    0.0000 N   0  0  0  0  0  0  0  0  0  0  0  0
    3.0027   -5.3753    0.0000 N   0  0  0  0  0  0  0  0  0  0  0  0
   -1.2179    1.3689    0.0000 N   0  0  0  0  0  0  0  0  0  0  0  0
    2.8455   -4.5655    0.0000 C   0  0  0  0  0  0  0  0  0  0  0  0
    4.8710   -3.7520    0.0000 C   0  0  0  0  0  0  0  0  0  0  0  0
    2.0655   -4.2967    0.0000 C   0  0  0  0  0  0  0  0  0  0  0  0
   -1.8406    0.8278    0.0000 C   0  0  0  0  0  0  0  0  0  0  0  0
    0.1911   -2.1394    0.0000 N   0  0  0  0  0  0  0  0  0  0  0  0
    5.8082   -4.8307    0.0000 C   0  0  0  0  0  0  0  0  0  0  0  0
    3.7766   -1.8635    0.0000 C   0  0  0  0  0  0  0  0  0  0  0  0
   -0.7462   -1.0607    0.0000 C   0  0  0  0  0  0  0  0  0  0  0  0
   -0.7523    2.7199    0.0000 C   0  0  0  0  0  0  0  0  0  0  0  0
    1.9083   -3.4868    0.0000 N   0  0  0  0  0  0  0  0  0  0  0  0
    0.9711   -2.4082    0.0000 C   0  0  0  0  0  0  0  0  0  0  0  0
   -0.9034   -0.2509    0.0000 N   0  0  0  0  0  0  0  0  0  0  0  0
    3.9338   -2.6734    0.0000 N   0  0  0  0  0  0  0  0  0  0  0  0
    2.9966   -1.5947    0.0000 C   0  0  0  0  0  0  0  0  0  0  0  0
   -1.3751    2.1788    0.0000 C   0  0  0  0  0  0  0  0  0  0  0  0
    0.0338   -1.3295    0.0000 C   0  0  0  0  0  0  0  0  0  0  0  0
    0.9649    1.3725    0.0000 C   0  0  0  0  0  0  0  0  0  0  0  0
    0.0276    2.4511    0.0000 N   0  0  0  0  0  0  0  0  0  0  0  0
    4.7138   -2.9421    0.0000 C   0  0  0  0  0  0  0  0  0  0  0  0
   -1.6834    0.0179    0.0000 C   0  0  0  0  0  0  0  0  0  0  0  0
    1.1283   -3.2180    0.0000 C   0  0  0  0  0  0  0  0  0  0  0  0
    3.8937   -7.1755    0.0000 C   0  0  0  0  0  0  0  0  0  0  0  0
    0.1849    1.6412    0.0000 C   0  0  0  0  0  0  0  0  0  0  0  0
    4.4165   -5.0803    0.0000 O   0  0  0  0  0  0  0  0  0  0  0  0
    1.4366   -1.0572    0.0000 O   0  0  0  0  0  0  0  0  0  0  0  0
    4.1685   -4.9483    0.0000 O   0  0  0  0  0  0  0  0  0  0  0  0
    4.2483   -4.2931    0.0000 O   0  0  0  0  0  0  0  0  0  0  0  0
    1.4428   -4.8378    0.0000 O   0  0  0  0  0  0  0  0  0  0  0  0
   -2.6206    1.0966    0.0000 O   0  0  0  0  0  0  0  0  0  0  0  0
    4.5984   -1.7918    0.0000 O   0  0  0  0  0  0  0  0  0  0  0  0
   -1.3689   -1.6018    0.0000 O   0  0  0  0  0  0  0  0  0  0  0  0
   -0.9096    3.5298    0.0000 O   0  0  0  0  0  0  0  0  0  0  0  0
    1.5938   -1.8671    0.0000 O   0  0  0  0  0  0  0  0  0  0  0  0
    1.5876    1.9136    0.0000 O   0  0  0  0  0  0  0  0  0  0  0  0
    3.6193   -1.0536    0.0000 C   0  0  0  0  0  0  0  0  0  0  0  0
   -2.1551    2.4475    0.0000 C   0  0  0  0  0  0  0  0  0  0  0  0
   -0.5889   -1.8706    0.0000 C   0  0  0  0  0  0  0  0  0  0  0  0
    5.3365   -2.4010    0.0000 C   0  0  0  0  0  0  0  0  0  0  0  0
   -2.3062   -0.5232    0.0000 C   0  0  0  0  0  0  0  0  0  0  0  0
    2.1979    1.0639    0.0000 C   0  0  0  0  0  0  0  0  0  0  0  0
    2.2227   -5.1066    0.0000 C   0  0  0  0  0  0  0  0  0  0  0  0
    2.7060    0.4792    0.0000 O   0  0  0  0  0  0  0  0  0  0  0  0
    6.5939   -5.0824    0.0000 C   0  0  0  0  0  0  0  0  0  0  0  0
    5.6556   -6.8334    0.0000 C   0  0  0  0  0  0  0  0  0  0  0  0
    1.9011   -8.0666    0.0000 C   0  0  0  0  0  0  0  0  0  0  0  0
    1.4280   -7.3906    0.0000 C   0  0  0  0  0  0  0  0  0  0  0  0
    6.2738   -3.4797    0.0000 C   0  0  0  0  0  0  0  0  0  0  0  0
    3.4621   -0.2437    0.0000 C   0  0  0  0  0  0  0  0  0  0  0  0
   -0.4379    1.1001    0.0000 C   0  0  0  0  0  0  0  0  0  0  0  0
    3.0718   -7.2472    0.0000 C   0  0  0  0  0  0  0  0  0  0  0  0
    0.0053   -2.9432    0.0000 C   0  0  0  0  0  0  0  0  0  0  0  0
    4.3667   -7.8514    0.0000 O   0  0  0  0  0  0  0  0  0  0  0  0
    2.5310   -2.9457    0.0000 C   0  0  0  0  0  0  0  0  0  0  0  0
    2.3800   -5.9164    0.0000 O   0  0  0  0  0  0  0  0  0  0  0  0
    2.7230   -7.9948    0.0000 C   0  0  0  0  0  0  0  0  0  0  0  0
   -0.4317   -2.6805    0.0000 C   0  0  0  0  0  0  0  0  0  0  0  0
    4.3993   -1.3224    0.0000 C   0  0  0  0  0  0  0  0  0  0  0  0
   -2.3123    3.2574    0.0000 C   0  0  0  0  0  0  0  0  0  0  0  0
   -3.0861   -0.2544    0.0000 C   0  0  0  0  0  0  0  0  0  0  0  0
    6.1165   -2.6698    0.0000 C   0  0  0  0  0  0  0  0  0  0  0  0
   -0.0009    0.8374    0.0000 C   0  0  0  0  0  0  0  0  0  0  0  0
    0.6062   -7.4623    0.0000 C   0  0  0  0  0  0  0  0  0  0  0  0
    1.4337   -5.3476    0.0000 C   0  0  0  0  0  0  0  0  0  0  0  0
    1.9024    1.8342    0.0000 C   0  0  0  0  0  0  0  0  0  0  0  0
    3.0128    1.1928    0.0000 C   0  0  0  0  0  0  0  0  0  0  0  0
    6.7687   -5.8887    0.0000 C   0  0  0  0  0  0  0  0  0  0  0  0
    7.2047   -4.5279    0.0000 C   0  0  0  0  0  0  0  0  0  0  0  0
    2.5988   -6.5713    0.0000 C   0  0  0  0  0  0  0  0  0  0  0  0
    0.0413   -3.3564    0.0000 C   0  0  0  0  0  0  0  0  0  0  0  0
   -1.0545   -3.2216    0.0000 C   0  0  0  0  0  0  0  0  0  0  0  0
   -3.7089   -0.7955    0.0000 C   0  0  0  0  0  0  0  0  0  0  0  0
   -3.2434    0.5554    0.0000 C   0  0  0  0  0  0  0  0  0  0  0  0
    5.0221   -0.7813    0.0000 C   0  0  0  0  0  0  0  0  0  0  0  0
    5.0025   -1.8852    0.0000 C   0  0  0  0  0  0  0  0  0  0  0  0
   -3.0923    3.5262    0.0000 C   0  0  0  0  0  0  0  0  0  0  0  0
   -1.6896    3.7985    0.0000 C   0  0  0  0  0  0  0  0  0  0  0  0
    6.7393   -2.1287    0.0000 C   0  0  0  0  0  0  0  0  0  0  0  0
    6.7198   -3.2326    0.0000 C   0  0  0  0  0  0  0  0  0  0  0  0
  2  1  1  0
  3  7  1  0
  4 17  1  0
  5  1  1  0
  6  3  1  0
  7  9  1  0
  8  5  1  0
  9 25  1  0
 10  8  1  0
 11 15  1  0
 12 10  1  0
 13  4  1  0
 14 12  1  0
 15 31  1  0
 16 22  1  0
 17  2  1  0
 18 24  1  0
 19 27  1  0
 20 29  1  0
 21 14  1  0
 22 32  1  0
 23 19  1  0
 24 30  1  0
 25 18  1  0
 26 11  1  0
 27 16  1  0
 28  6  1  0
 29 34  1  0
 30 13  1  0
 31 23  1  0
 32 21  1  0
 33  5  1  0
 34 28  1  0
 35  2  2  0
 36  7  2  0
 37  8  2  0
 38 13  2  0
 39 14  2  0
 40 15  2  0
 41 18  2  0
 42 19  2  0
 43 20  2  0
 44 22  2  0
 45 28  2  0
 25 46  1  0
 26 47  1  0
 27 48  1  0
 30 49  1  0
 31 50  1  0
  3 51  1  0
 12 52  1  0
  3 53  1  0
 17 54  1  0
 55  1  1  0
 56 66  1  0
 57 56  2  3
 58  4  1  0
 59  9  1  0
 60 11  1  0
 61 33  1  0
 62 16  1  0
 33 63  1  0
 64 21  1  0
 52 65  1  0
 66 61  1  0
 67 48  1  0
 68 46  1  0
 69 47  1  0
 70 50  1  0
 71 49  1  0
 34 72  1  0
 73 57  1  0
 74 52  1  0
 75 51  1  0
 76 51  1  0
 77 54  1  0
 78 54  1  0
 61 79  1  0
 80 67  1  0
 81 67  1  0
 82 70  1  0
 83 70  1  0
 84 68  1  0
 85 68  1  0
 86 69  1  0
 87 69  1  0
 88 71  1  0
 89 71  1  0
 20 26  1  0
M  END
>  <Classification>  (719) 
1

>  <pchembl>  (719) 
5.8

>  <InChI_steorem>  (719) 
InChI=1S/C64H115N11O14/c1-25-26-27-41(16)53(78)52-58(83)68-50(43(18)76)61(86)70(19)33-49(77)71(20)46(30-36(6)7)56(81)66-44(28-34(2)3)59(84)72(21)47(31-37(8)9)55(80)65-42(17)54(79)69-64(89,40(14)15)63(88)73(22)48(32-38(10)11)57(82)67-45(29-35(4)5)60(85)74(23)51(39(12)13)62(87)75(52)24/h25-26,34-48,50-53,76,78,89H,27-33H2,1-24H3,(H,65,80)(H,66,81)(H,67,82)(H,68,83)(H,69,79)

>  <source>  (719) 
ChEMBL25

>  <source_id>  (719) 
25

>  <optional_reference>  (719) 
10.1021/jm0109863

>  <optional_origin>  (719) 
None

>  <target>  (719) 
MDR1

$$$$

     RDKit          2D

 90 90  0  0  0  0  0  0  0  0999 V2000
    4.8746   -6.2630    0.0000 N   0  0  0  0  0  0  0  0  0  0  0  0
    4.9753   -5.4442    0.0000 C   0  0  0  0  0  0  0  0  0  0  0  0
    1.7243    0.3014    0.0000 C   0  0  0  0  0  0  0  0  0  0  0  0
    5.4732   -4.0132    0.0000 N   0  0  0  0  0  0  0  0  0  0  0  0
    4.0647   -6.4203    0.0000 C   0  0  0  0  0  0  0  0  0  0  0  0
    0.9443    0.5702    0.0000 N   0  0  0  0  0  0  0  0  0  0  0  0
    1.8815   -0.5085    0.0000 C   0  0  0  0  0  0  0  0  0  0  0  0
    3.6649   -5.6986    0.0000 C   0  0  0  0  0  0  0  0  0  0  0  0
    2.6615   -0.7772    0.0000 N   0  0  0  0  0  0  0  0  0  0  0  0
    2.8249   -5.3677    0.0000 N   0  0  0  0  0  0  0  0  0  0  0  0
   -1.3957    1.3765    0.0000 N   0  0  0  0  0  0  0  0  0  0  0  0
    2.6677   -4.5578    0.0000 C   0  0  0  0  0  0  0  0  0  0  0  0
    4.6932   -3.7444    0.0000 C   0  0  0  0  0  0  0  0  0  0  0  0
    1.8877   -4.2891    0.0000 C   0  0  0  0  0  0  0  0  0  0  0  0
   -2.0184    0.8354    0.0000 C   0  0  0  0  0  0  0  0  0  0  0  0
    0.0132   -2.1318    0.0000 N   0  0  0  0  0  0  0  0  0  0  0  0
    5.6304   -4.8230    0.0000 C   0  0  0  0  0  0  0  0  0  0  0  0
    3.5987   -1.8559    0.0000 C   0  0  0  0  0  0  0  0  0  0  0  0
   -0.9240   -1.0531    0.0000 C   0  0  0  0  0  0  0  0  0  0  0  0
   -0.9302    2.7275    0.0000 C   0  0  0  0  0  0  0  0  0  0  0  0
    1.7305   -3.4792    0.0000 N   0  0  0  0  0  0  0  0  0  0  0  0
    0.7932   -2.4005    0.0000 C   0  0  0  0  0  0  0  0  0  0  0  0
   -1.0812   -0.2433    0.0000 N   0  0  0  0  0  0  0  0  0  0  0  0
    3.7560   -2.6658    0.0000 N   0  0  0  0  0  0  0  0  0  0  0  0
    2.8187   -1.5871    0.0000 C   0  0  0  0  0  0  0  0  0  0  0  0
   -1.5529    2.1864    0.0000 C   0  0  0  0  0  0  0  0  0  0  0  0
   -0.1440   -1.3219    0.0000 C   0  0  0  0  0  0  0  0  0  0  0  0
    0.7871    1.3801    0.0000 C   0  0  0  0  0  0  0  0  0  0  0  0
   -0.1502    2.4587    0.0000 N   0  0  0  0  0  0  0  0  0  0  0  0
    4.5360   -2.9345    0.0000 C   0  0  0  0  0  0  0  0  0  0  0  0
   -1.8612    0.0255    0.0000 C   0  0  0  0  0  0  0  0  0  0  0  0
    0.9505   -3.2104    0.0000 C   0  0  0  0  0  0  0  0  0  0  0  0
    3.7159   -7.1679    0.0000 C   0  0  0  0  0  0  0  0  0  0  0  0
    0.0071    1.6488    0.0000 C   0  0  0  0  0  0  0  0  0  0  0  0
    4.2387   -5.0726    0.0000 O   0  0  0  0  0  0  0  0  0  0  0  0
    1.2588   -1.0496    0.0000 O   0  0  0  0  0  0  0  0  0  0  0  0
    3.9907   -4.9407    0.0000 O   0  0  0  0  0  0  0  0  0  0  0  0
    4.0704   -4.2855    0.0000 O   0  0  0  0  0  0  0  0  0  0  0  0
    1.2649   -4.8302    0.0000 O   0  0  0  0  0  0  0  0  0  0  0  0
   -2.7984    1.1042    0.0000 O   0  0  0  0  0  0  0  0  0  0  0  0
    4.4206   -1.7842    0.0000 O   0  0  0  0  0  0  0  0  0  0  0  0
   -1.5467   -1.5942    0.0000 O   0  0  0  0  0  0  0  0  0  0  0  0
   -1.0874    3.5374    0.0000 O   0  0  0  0  0  0  0  0  0  0  0  0
    1.4160   -1.8594    0.0000 O   0  0  0  0  0  0  0  0  0  0  0  0
    1.4098    1.9212    0.0000 O   0  0  0  0  0  0  0  0  0  0  0  0
    3.4415   -1.0460    0.0000 C   0  0  0  0  0  0  0  0  0  0  0  0
   -2.3329    2.4552    0.0000 C   0  0  0  0  0  0  0  0  0  0  0  0
   -0.7667   -1.8630    0.0000 C   0  0  0  0  0  0  0  0  0  0  0  0
    5.1587   -2.3934    0.0000 C   0  0  0  0  0  0  0  0  0  0  0  0
   -2.4840   -0.5156    0.0000 C   0  0  0  0  0  0  0  0  0  0  0  0
    2.0201    1.0716    0.0000 C   0  0  0  0  0  0  0  0  0  0  0  0
    2.0449   -5.0990    0.0000 C   0  0  0  0  0  0  0  0  0  0  0  0
    2.5282    0.4868    0.0000 O   0  0  0  0  0  0  0  0  0  0  0  0
    6.4161   -5.0748    0.0000 C   0  0  0  0  0  0  0  0  0  0  0  0
    5.4778   -6.8258    0.0000 C   0  0  0  0  0  0  0  0  0  0  0  0
    4.3131   -9.2673    0.0000 C   0  0  0  0  0  0  0  0  0  0  0  0
    3.9643  -10.0150    0.0000 C   0  0  0  0  0  0  0  0  0  0  0  0
    6.0960   -3.4721    0.0000 C   0  0  0  0  0  0  0  0  0  0  0  0
    3.2843   -0.2361    0.0000 C   0  0  0  0  0  0  0  0  0  0  0  0
   -0.6157    1.1077    0.0000 C   0  0  0  0  0  0  0  0  0  0  0  0
    4.1889   -7.8438    0.0000 C   0  0  0  0  0  0  0  0  0  0  0  0
   -0.1725   -2.9356    0.0000 C   0  0  0  0  0  0  0  0  0  0  0  0
    2.8940   -7.2396    0.0000 O   0  0  0  0  0  0  0  0  0  0  0  0
    2.3532   -2.9381    0.0000 C   0  0  0  0  0  0  0  0  0  0  0  0
    2.2022   -5.9088    0.0000 O   0  0  0  0  0  0  0  0  0  0  0  0
    4.0885  -11.4385    0.0000 O   0  0  0  0  0  0  0  0  0  0  0  0
    3.8401   -8.5914    0.0000 C   0  0  0  0  0  0  0  0  0  0  0  0
    4.2215   -1.3148    0.0000 C   0  0  0  0  0  0  0  0  0  0  0  0
   -2.4901    3.2650    0.0000 C   0  0  0  0  0  0  0  0  0  0  0  0
   -0.6095   -2.6729    0.0000 C   0  0  0  0  0  0  0  0  0  0  0  0
   -3.2640   -0.2468    0.0000 C   0  0  0  0  0  0  0  0  0  0  0  0
    5.9387   -2.6622    0.0000 C   0  0  0  0  0  0  0  0  0  0  0  0
    4.4373  -10.6909    0.0000 C   0  0  0  0  0  0  0  0  0  0  0  0
   -0.1787    0.8450    0.0000 C   0  0  0  0  0  0  0  0  0  0  0  0
    1.2559   -5.3400    0.0000 C   0  0  0  0  0  0  0  0  0  0  0  0
    1.7246    1.8418    0.0000 C   0  0  0  0  0  0  0  0  0  0  0  0
    2.8350    1.2004    0.0000 C   0  0  0  0  0  0  0  0  0  0  0  0
    6.5909   -5.8811    0.0000 C   0  0  0  0  0  0  0  0  0  0  0  0
    7.0269   -4.5203    0.0000 C   0  0  0  0  0  0  0  0  0  0  0  0
    5.0108   -7.7721    0.0000 C   0  0  0  0  0  0  0  0  0  0  0  0
   -0.1365   -3.3488    0.0000 C   0  0  0  0  0  0  0  0  0  0  0  0
   -3.8867   -0.7879    0.0000 C   0  0  0  0  0  0  0  0  0  0  0  0
   -3.4212    0.5631    0.0000 C   0  0  0  0  0  0  0  0  0  0  0  0
    4.8443   -0.7737    0.0000 C   0  0  0  0  0  0  0  0  0  0  0  0
    4.8247   -1.8775    0.0000 C   0  0  0  0  0  0  0  0  0  0  0  0
   -3.2701    3.5338    0.0000 C   0  0  0  0  0  0  0  0  0  0  0  0
   -1.8674    3.8061    0.0000 C   0  0  0  0  0  0  0  0  0  0  0  0
   -1.2323   -3.2140    0.0000 C   0  0  0  0  0  0  0  0  0  0  0  0
    6.5615   -2.1211    0.0000 C   0  0  0  0  0  0  0  0  0  0  0  0
    6.5420   -3.2250    0.0000 C   0  0  0  0  0  0  0  0  0  0  0  0
  2  1  1  0
  3  7  1  0
  4 17  1  0
  5  1  1  0
  6  3  1  0
  7  9  1  0
  8  5  1  0
  9 25  1  0
 10  8  1  0
 11 15  1  0
 12 10  1  0
 13  4  1  0
 14 12  1  0
 15 31  1  0
 16 22  1  0
 17  2  1  0
 18 24  1  0
 19 27  1  0
 20 29  1  0
 21 14  1  0
 22 32  1  0
 23 19  1  0
 24 30  1  0
 25 18  1  0
 26 11  1  0
 27 16  1  0
 28  6  1  0
 29 34  1  0
 30 13  1  0
 31 23  1  0
 32 21  1  0
 33  5  1  0
 34 28  1  0
 35  2  2  0
 36  7  2  0
 37  8  2  0
 38 13  2  0
 39 14  2  0
 40 15  2  0
 41 18  2  0
 42 19  2  0
 43 20  2  0
 44 22  2  0
 45 28  2  0
 25 46  1  0
 26 47  1  0
 27 48  1  0
 30 49  1  0
 31 50  1  0
  3 51  1  0
 12 52  1  0
  3 53  1  0
 17 54  1  0
 55  1  1  0
 56 67  1  0
 57 56  2  3
 58  4  1  0
 59  9  1  0
 60 11  1  0
 61 33  1  0
 62 16  1  0
 33 63  1  0
 64 21  1  0
 52 65  1  0
 66 73  1  0
 67 61  1  0
 68 46  1  0
 69 47  1  0
 70 48  1  0
 71 50  1  0
 72 49  1  0
 73 57  1  0
 34 74  1  0
 75 52  1  0
 76 51  1  0
 77 51  1  0
 78 54  1  0
 79 54  1  0
 61 80  1  0
 81 70  1  0
 82 71  1  0
 83 71  1  0
 84 68  1  0
 85 68  1  0
 86 69  1  0
 87 69  1  0
 88 70  1  0
 89 72  1  0
 90 72  1  0
 20 26  1  0
M  END
>  <Classification>  (720) 
0

>  <pchembl>  (720) 
4.8

>  <InChI_steorem>  (720) 
InChI=1S/C64H115N11O15/c1-34(2)28-44-59(85)72(20)47(31-37(7)8)55(81)65-42(16)54(80)69-64(90,40(13)14)63(89)73(21)48(32-38(9)10)57(83)67-45(29-35(3)4)60(86)74(22)51(39(11)12)62(88)75(23)52(53(79)41(15)26-24-25-27-76)58(84)68-50(43(17)77)61(87)70(18)33-49(78)71(19)46(30-36(5)6)56(82)66-44/h24-25,34-48,50-53,76-77,79,90H,26-33H2,1-23H3,(H,65,81)(H,66,82)(H,67,83)(H,68,84)(H,69,80)

>  <source>  (720) 
ChEMBL25

>  <source_id>  (720) 
25

>  <optional_reference>  (720) 
10.1021/jm0109863

>  <optional_origin>  (720) 
None

>  <target>  (720) 
MDR1

$$$$

     RDKit          2D

 89 89  0  0  0  0  0  0  0  0999 V2000
    5.0208   -6.2501    0.0000 N   0  0  0  0  0  0  0  0  0  0  0  0
    5.1215   -5.4313    0.0000 C   0  0  0  0  0  0  0  0  0  0  0  0
    1.8705    0.3143    0.0000 C   0  0  0  0  0  0  0  0  0  0  0  0
    5.6194   -4.0003    0.0000 N   0  0  0  0  0  0  0  0  0  0  0  0
    4.2109   -6.4074    0.0000 C   0  0  0  0  0  0  0  0  0  0  0  0
    1.0905    0.5831    0.0000 N   0  0  0  0  0  0  0  0  0  0  0  0
    2.0278   -0.4956    0.0000 C   0  0  0  0  0  0  0  0  0  0  0  0
    3.8112   -5.6857    0.0000 C   0  0  0  0  0  0  0  0  0  0  0  0
    2.8078   -0.7643    0.0000 N   0  0  0  0  0  0  0  0  0  0  0  0
    2.9712   -5.3548    0.0000 N   0  0  0  0  0  0  0  0  0  0  0  0
   -1.2494    1.3894    0.0000 N   0  0  0  0  0  0  0  0  0  0  0  0
   -1.8722    0.8483    0.0000 C   0  0  0  0  0  0  0  0  0  0  0  0
    2.8139   -4.5449    0.0000 C   0  0  0  0  0  0  0  0  0  0  0  0
    4.8394   -3.7315    0.0000 C   0  0  0  0  0  0  0  0  0  0  0  0
    2.0339   -4.2762    0.0000 C   0  0  0  0  0  0  0  0  0  0  0  0
   -0.9350   -0.2303    0.0000 N   0  0  0  0  0  0  0  0  0  0  0  0
    0.1595   -2.1189    0.0000 N   0  0  0  0  0  0  0  0  0  0  0  0
   -0.7777   -1.0402    0.0000 C   0  0  0  0  0  0  0  0  0  0  0  0
    5.7767   -4.8101    0.0000 C   0  0  0  0  0  0  0  0  0  0  0  0
    3.7450   -1.8430    0.0000 C   0  0  0  0  0  0  0  0  0  0  0  0
   -0.7839    2.7404    0.0000 C   0  0  0  0  0  0  0  0  0  0  0  0
    1.8767   -3.4663    0.0000 N   0  0  0  0  0  0  0  0  0  0  0  0
    0.9395   -2.3876    0.0000 C   0  0  0  0  0  0  0  0  0  0  0  0
    3.9022   -2.6528    0.0000 N   0  0  0  0  0  0  0  0  0  0  0  0
   -1.4067    2.1993    0.0000 C   0  0  0  0  0  0  0  0  0  0  0  0
    2.9650   -1.5742    0.0000 C   0  0  0  0  0  0  0  0  0  0  0  0
   -1.7150    0.0384    0.0000 C   0  0  0  0  0  0  0  0  0  0  0  0
    0.0023   -1.3090    0.0000 C   0  0  0  0  0  0  0  0  0  0  0  0
    0.9333    1.3930    0.0000 C   0  0  0  0  0  0  0  0  0  0  0  0
   -0.0039    2.4716    0.0000 N   0  0  0  0  0  0  0  0  0  0  0  0
    4.6822   -2.9216    0.0000 C   0  0  0  0  0  0  0  0  0  0  0  0
    1.0967   -3.1975    0.0000 C   0  0  0  0  0  0  0  0  0  0  0  0
    3.8621   -7.1550    0.0000 C   0  0  0  0  0  0  0  0  0  0  0  0
    0.1533    1.6617    0.0000 C   0  0  0  0  0  0  0  0  0  0  0  0
    4.3849   -5.0597    0.0000 O   0  0  0  0  0  0  0  0  0  0  0  0
    1.4050   -1.0367    0.0000 O   0  0  0  0  0  0  0  0  0  0  0  0
    4.1369   -4.9278    0.0000 O   0  0  0  0  0  0  0  0  0  0  0  0
   -2.6522    1.1171    0.0000 O   0  0  0  0  0  0  0  0  0  0  0  0
    4.2167   -4.2726    0.0000 O   0  0  0  0  0  0  0  0  0  0  0  0
    1.4112   -4.8173    0.0000 O   0  0  0  0  0  0  0  0  0  0  0  0
   -1.4005   -1.5813    0.0000 O   0  0  0  0  0  0  0  0  0  0  0  0
   -0.9411    3.5503    0.0000 O   0  0  0  0  0  0  0  0  0  0  0  0
    4.5669   -1.7713    0.0000 O   0  0  0  0  0  0  0  0  0  0  0  0
    1.5622   -1.8465    0.0000 O   0  0  0  0  0  0  0  0  0  0  0  0
    1.5561    1.9341    0.0000 O   0  0  0  0  0  0  0  0  0  0  0  0
    3.5878   -1.0331    0.0000 C   0  0  0  0  0  0  0  0  0  0  0  0
   -2.1867    2.4681    0.0000 C   0  0  0  0  0  0  0  0  0  0  0  0
   -0.6205   -1.8501    0.0000 C   0  0  0  0  0  0  0  0  0  0  0  0
    5.3050   -2.3805    0.0000 C   0  0  0  0  0  0  0  0  0  0  0  0
    2.1664    1.0845    0.0000 C   0  0  0  0  0  0  0  0  0  0  0  0
    2.1912   -5.0860    0.0000 C   0  0  0  0  0  0  0  0  0  0  0  0
    2.6744    0.4997    0.0000 O   0  0  0  0  0  0  0  0  0  0  0  0
    6.5623   -5.0619    0.0000 C   0  0  0  0  0  0  0  0  0  0  0  0
   -2.3377   -0.5027    0.0000 C   0  0  0  0  0  0  0  0  0  0  0  0
    5.6241   -6.8129    0.0000 C   0  0  0  0  0  0  0  0  0  0  0  0
    1.8695   -8.0460    0.0000 C   0  0  0  0  0  0  0  0  0  0  0  0
    1.3965   -7.3701    0.0000 C   0  0  0  0  0  0  0  0  0  0  0  0
    6.2422   -3.4592    0.0000 C   0  0  0  0  0  0  0  0  0  0  0  0
    3.4305   -0.2232    0.0000 C   0  0  0  0  0  0  0  0  0  0  0  0
   -0.4694    1.1206    0.0000 C   0  0  0  0  0  0  0  0  0  0  0  0
    3.0402   -7.2267    0.0000 C   0  0  0  0  0  0  0  0  0  0  0  0
   -0.0263   -2.9227    0.0000 C   0  0  0  0  0  0  0  0  0  0  0  0
    4.3351   -7.8309    0.0000 O   0  0  0  0  0  0  0  0  0  0  0  0
    2.4995   -2.9252    0.0000 C   0  0  0  0  0  0  0  0  0  0  0  0
    2.3484   -5.8959    0.0000 O   0  0  0  0  0  0  0  0  0  0  0  0
    2.6914   -7.9743    0.0000 C   0  0  0  0  0  0  0  0  0  0  0  0
   -0.4633   -2.6600    0.0000 C   0  0  0  0  0  0  0  0  0  0  0  0
    4.3677   -1.3019    0.0000 C   0  0  0  0  0  0  0  0  0  0  0  0
   -2.3439    3.2779    0.0000 C   0  0  0  0  0  0  0  0  0  0  0  0
    6.0850   -2.6493    0.0000 C   0  0  0  0  0  0  0  0  0  0  0  0
   -0.0325    0.8579    0.0000 C   0  0  0  0  0  0  0  0  0  0  0  0
    0.5746   -7.4418    0.0000 C   0  0  0  0  0  0  0  0  0  0  0  0
   -3.1177   -0.2339    0.0000 C   0  0  0  0  0  0  0  0  0  0  0  0
    1.4022   -5.3271    0.0000 C   0  0  0  0  0  0  0  0  0  0  0  0
    1.8709    1.8547    0.0000 C   0  0  0  0  0  0  0  0  0  0  0  0
    2.9812    1.2133    0.0000 C   0  0  0  0  0  0  0  0  0  0  0  0
    6.7371   -5.8682    0.0000 C   0  0  0  0  0  0  0  0  0  0  0  0
    7.1732   -4.5074    0.0000 C   0  0  0  0  0  0  0  0  0  0  0  0
   -2.1805   -1.3126    0.0000 C   0  0  0  0  0  0  0  0  0  0  0  0
    2.5672   -6.5508    0.0000 C   0  0  0  0  0  0  0  0  0  0  0  0
   -3.1239    3.5467    0.0000 C   0  0  0  0  0  0  0  0  0  0  0  0
    4.9905   -0.7608    0.0000 C   0  0  0  0  0  0  0  0  0  0  0  0
    4.9710   -1.8646    0.0000 C   0  0  0  0  0  0  0  0  0  0  0  0
   -1.7211    3.8190    0.0000 C   0  0  0  0  0  0  0  0  0  0  0  0
    0.0098   -3.3359    0.0000 C   0  0  0  0  0  0  0  0  0  0  0  0
   -1.0860   -3.2011    0.0000 C   0  0  0  0  0  0  0  0  0  0  0  0
    6.7077   -2.1082    0.0000 C   0  0  0  0  0  0  0  0  0  0  0  0
    6.6882   -3.2121    0.0000 C   0  0  0  0  0  0  0  0  0  0  0  0
   -3.7405   -0.7750    0.0000 C   0  0  0  0  0  0  0  0  0  0  0  0
  2  1  1  0
  3  7  1  0
  4 19  1  0
  5  1  1  0
  6  3  1  0
  7  9  1  0
  8  5  1  0
  9 26  1  0
 10  8  1  0
 11 12  1  0
 12 27  1  0
 13 10  1  0
 14  4  1  0
 15 13  1  0
 16 18  1  0
 17 23  1  0
 18 28  1  0
 19  2  1  0
 20 24  1  0
 21 30  1  0
 22 15  1  0
 23 32  1  0
 24 31  1  0
 25 11  1  0
 26 20  1  0
 27 16  1  0
 28 17  1  0
 29  6  1  0
 30 34  1  0
 31 14  1  0
 32 22  1  0
 33  5  1  0
 34 29  1  0
 35  2  2  0
 36  7  2  0
 37  8  2  0
 38 12  2  0
 39 14  2  0
 40 15  2  0
 41 18  2  0
 42 21  2  0
 43 20  2  0
 44 23  2  0
 45 29  2  0
 26 46  1  0
 25 47  1  0
 28 48  1  0
 31 49  1  0
  3 50  1  0
 13 51  1  0
  3 52  1  0
 19 53  1  0
 27 54  1  0
 55  1  1  0
 56 66  1  0
 57 56  2  3
 58  4  1  0
 59  9  1  0
 60 11  1  0
 61 33  1  0
 62 17  1  0
 33 63  1  0
 64 22  1  0
 51 65  1  0
 66 61  1  0
 67 48  1  0
 68 46  1  0
 69 47  1  0
 70 49  1  0
 34 71  1  0
 72 57  1  0
 73 54  1  0
 74 51  1  0
 75 50  1  0
 76 50  1  0
 77 53  1  0
 78 53  1  0
 54 79  1  0
 61 80  1  0
 81 69  1  0
 82 68  1  0
 83 68  1  0
 84 69  1  0
 85 67  1  0
 86 67  1  0
 87 70  1  0
 88 70  1  0
 89 73  1  0
 21 25  1  0
M  END
>  <Classification>  (721) 
1

>  <pchembl>  (721) 
5.8

>  <InChI_steorem>  (721) 
InChI=1S/C64H115N11O14/c1-25-27-28-41(16)53(78)52-58(83)68-50(43(18)76)60(85)70(19)33-48(77)71(20)45(30-35(5)6)57(82)67-49(40(15)26-2)61(86)72(21)46(31-36(7)8)55(80)65-42(17)54(79)69-64(89,39(13)14)63(88)73(22)47(32-37(9)10)56(81)66-44(29-34(3)4)59(84)74(23)51(38(11)12)62(87)75(52)24/h25,27,34-47,49-53,76,78,89H,26,28-33H2,1-24H3,(H,65,80)(H,66,81)(H,67,82)(H,68,83)(H,69,79)

>  <source>  (721) 
ChEMBL25

>  <source_id>  (721) 
25

>  <optional_reference>  (721) 
10.1021/jm0109863

>  <optional_origin>  (721) 
None

>  <target>  (721) 
MDR1

$$$$

     RDKit          2D

 93 94  0  0  0  0  0  0  0  0999 V2000
    4.3487   -6.4022    0.0000 N   0  0  0  0  0  0  0  0  0  0  0  0
    4.6037   -5.6176    0.0000 C   0  0  0  0  0  0  0  0  0  0  0  0
    5.3652   -4.3077    0.0000 N   0  0  0  0  0  0  0  0  0  0  0  0
    3.5237   -6.4022    0.0000 C   0  0  0  0  0  0  0  0  0  0  0  0
    4.6507   -3.8952    0.0000 C   0  0  0  0  0  0  0  0  0  0  0  0
    3.9362   -2.6577    0.0000 N   0  0  0  0  0  0  0  0  0  0  0  0
    3.9362   -1.8327    0.0000 C   0  0  0  0  0  0  0  0  0  0  0  0
    1.0784   -1.8327    0.0000 C   0  0  0  0  0  0  0  0  0  0  0  0
    3.2218   -0.5952    0.0000 N   0  0  0  0  0  0  0  0  0  0  0  0
    1.7928   -3.0702    0.0000 N   0  0  0  0  0  0  0  0  0  0  0  0
    3.2688   -5.6176    0.0000 C   0  0  0  0  0  0  0  0  0  0  0  0
    0.3639   -1.4202    0.0000 N   0  0  0  0  0  0  0  0  0  0  0  0
   -0.3506    2.2923    0.0000 N   0  0  0  0  0  0  0  0  0  0  0  0
   -1.0651    1.8798    0.0000 C   0  0  0  0  0  0  0  0  0  0  0  0
    4.6507   -3.0702    0.0000 C   0  0  0  0  0  0  0  0  0  0  0  0
    1.0784   -2.6577    0.0000 C   0  0  0  0  0  0  0  0  0  0  0  0
    3.2218   -1.4202    0.0000 C   0  0  0  0  0  0  0  0  0  0  0  0
   -0.3506    0.6423    0.0000 N   0  0  0  0  0  0  0  0  0  0  0  0
    2.5073   -0.1827    0.0000 C   0  0  0  0  0  0  0  0  0  0  0  0
    1.7928   -3.8952    0.0000 C   0  0  0  0  0  0  0  0  0  0  0  0
   -0.3506   -0.1827    0.0000 C   0  0  0  0  0  0  0  0  0  0  0  0
    5.3652   -5.1327    0.0000 C   0  0  0  0  0  0  0  0  0  0  0  0
    0.3639    3.5298    0.0000 C   0  0  0  0  0  0  0  0  0  0  0  0
    2.5073   -5.1327    0.0000 N   0  0  0  0  0  0  0  0  0  0  0  0
    0.3639   -0.5952    0.0000 C   0  0  0  0  0  0  0  0  0  0  0  0
   -0.3506    3.1173    0.0000 C   0  0  0  0  0  0  0  0  0  0  0  0
   -1.0651    1.0548    0.0000 C   0  0  0  0  0  0  0  0  0  0  0  0
    1.0784    3.1173    0.0000 N   0  0  0  0  0  0  0  0  0  0  0  0
    1.7928    1.0548    0.0000 N   0  0  0  0  0  0  0  0  0  0  0  0
    1.7928    1.8798    0.0000 C   0  0  0  0  0  0  0  0  0  0  0  0
    2.5073   -4.3077    0.0000 C   0  0  0  0  0  0  0  0  0  0  0  0
    2.5073    0.6423    0.0000 C   0  0  0  0  0  0  0  0  0  0  0  0
    3.0388   -7.0697    0.0000 C   0  0  0  0  0  0  0  0  0  0  0  0
    1.0784    2.2923    0.0000 C   0  0  0  0  0  0  0  0  0  0  0  0
    3.9514   -5.1125    0.0000 O   0  0  0  0  0  0  0  0  0  0  0  0
    3.9362   -4.3077    0.0000 O   0  0  0  0  0  0  0  0  0  0  0  0
    1.7928   -1.4202    0.0000 O   0  0  0  0  0  0  0  0  0  0  0  0
    4.6507   -1.4202    0.0000 O   0  0  0  0  0  0  0  0  0  0  0  0
   -1.7795    2.2923    0.0000 O   0  0  0  0  0  0  0  0  0  0  0  0
    3.7331   -4.9356    0.0000 O   0  0  0  0  0  0  0  0  0  0  0  0
    0.3639   -3.0702    0.0000 C   0  0  0  0  0  0  0  0  0  0  0  0
    5.3652   -2.6577    0.0000 C   0  0  0  0  0  0  0  0  0  0  0  0
    1.7928   -0.5952    0.0000 O   0  0  0  0  0  0  0  0  0  0  0  0
    3.9362   -1.0077    0.0000 C   0  0  0  0  0  0  0  0  0  0  0  0
    1.4573   -4.6489    0.0000 O   0  0  0  0  0  0  0  0  0  0  0  0
   -1.0651   -0.5952    0.0000 O   0  0  0  0  0  0  0  0  0  0  0  0
    0.3639    4.3548    0.0000 O   0  0  0  0  0  0  0  0  0  0  0  0
   -1.0651    3.5298    0.0000 C   0  0  0  0  0  0  0  0  0  0  0  0
   -0.3506   -1.0077    0.0000 C   0  0  0  0  0  0  0  0  0  0  0  0
    2.5073    2.2923    0.0000 O   0  0  0  0  0  0  0  0  0  0  0  0
    6.0884   -5.5296    0.0000 C   0  0  0  0  0  0  0  0  0  0  0  0
   -1.7795    0.6423    0.0000 C   0  0  0  0  0  0  0  0  0  0  0  0
    4.8337   -7.0697    0.0000 C   0  0  0  0  0  0  0  0  0  0  0  0
    6.0796   -3.8952    0.0000 C   0  0  0  0  0  0  0  0  0  0  0  0
    2.0690   -8.4045    0.0000 C   0  0  0  0  0  0  0  0  0  0  0  0
    1.5840   -9.0720    0.0000 C   0  0  0  0  0  0  0  0  0  0  0  0
    3.2218   -3.0702    0.0000 C   0  0  0  0  0  0  0  0  0  0  0  0
    3.5573    0.1585    0.0000 C   0  0  0  0  0  0  0  0  0  0  0  0
    2.5073   -2.6577    0.0000 C   0  0  0  0  0  0  0  0  0  0  0  0
    0.3639    1.8798    0.0000 C   0  0  0  0  0  0  0  0  0  0  0  0
    0.0283   -2.1739    0.0000 C   0  0  0  0  0  0  0  0  0  0  0  0
    2.2183   -6.9834    0.0000 C   0  0  0  0  0  0  0  0  0  0  0  0
    3.3744   -7.8234    0.0000 O   0  0  0  0  0  0  0  0  0  0  0  0
    0.3639   -3.8952    0.0000 C   0  0  0  0  0  0  0  0  0  0  0  0
    1.7928   -4.7202    0.0000 C   0  0  0  0  0  0  0  0  0  0  0  0
    3.2218    1.0548    0.0000 C   0  0  0  0  0  0  0  0  0  0  0  0
    1.7334   -7.6509    0.0000 C   0  0  0  0  0  0  0  0  0  0  0  0
    3.9362   -0.1827    0.0000 C   0  0  0  0  0  0  0  0  0  0  0  0
    6.0796   -3.0702    0.0000 C   0  0  0  0  0  0  0  0  0  0  0  0
   -1.0651    4.3548    0.0000 C   0  0  0  0  0  0  0  0  0  0  0  0
   -0.3506   -1.8327    0.0000 C   0  0  0  0  0  0  0  0  0  0  0  0
    0.7428    1.5386    0.0000 C   0  0  0  0  0  0  0  0  0  0  0  0
    1.9196   -9.8257    0.0000 C   0  0  0  0  0  0  0  0  0  0  0  0
    6.1063   -6.3544    0.0000 C   0  0  0  0  0  0  0  0  0  0  0  0
   -1.7795   -0.1827    0.0000 C   0  0  0  0  0  0  0  0  0  0  0  0
   -2.4940    1.0548    0.0000 C   0  0  0  0  0  0  0  0  0  0  0  0
    6.7938   -5.1017    0.0000 C   0  0  0  0  0  0  0  0  0  0  0  0
    1.8828   -6.2298    0.0000 C   0  0  0  0  0  0  0  0  0  0  0  0
   -0.3506   -4.3077    0.0000 C   0  0  0  0  0  0  0  0  0  0  0  0
    1.0784   -4.3077    0.0000 C   0  0  0  0  0  0  0  0  0  0  0  0
    3.6007    0.5710    0.0000 C   0  0  0  0  0  0  0  0  0  0  0  0
   -0.0150   -2.5864    0.0000 C   0  0  0  0  0  0  0  0  0  0  0  0
    6.7941   -2.6577    0.0000 C   0  0  0  0  0  0  0  0  0  0  0  0
    6.5646   -3.7376    0.0000 C   0  0  0  0  0  0  0  0  0  0  0  0
   -1.7795    4.7673    0.0000 C   0  0  0  0  0  0  0  0  0  0  0  0
   -0.3506    4.7673    0.0000 C   0  0  0  0  0  0  0  0  0  0  0  0
   -1.0651   -2.2452    0.0000 C   0  0  0  0  0  0  0  0  0  0  0  0
    4.6507    0.2298    0.0000 C   0  0  0  0  0  0  0  0  0  0  0  0
    1.7928   -5.5452    0.0000 C   0  0  0  0  0  0  0  0  0  0  0  0
    2.7401   -9.9119    0.0000 C   0  0  0  0  0  0  0  0  0  0  0  0
   -0.3506   -5.1327    0.0000 C   0  0  0  0  0  0  0  0  0  0  0  0
    1.0784   -5.1327    0.0000 C   0  0  0  0  0  0  0  0  0  0  0  0
    0.3639   -5.5452    0.0000 C   0  0  0  0  0  0  0  0  0  0  0  0
  2  1  1  0
  3 22  1  0
  4  1  1  0
  5  3  1  0
  6 15  1  0
  7  6  1  0
  8 16  1  0
  9 17  1  0
 10 20  1  0
 11  4  1  0
 12  8  1  0
 13 14  1  0
 14 27  1  0
 15  5  1  0
 16 10  1  0
 17  7  1  0
 18 21  1  0
 19  9  1  0
 20 31  1  0
 21 25  1  0
 22  2  1  0
 23 28  1  0
 24 11  1  0
 25 12  1  0
 26 13  1  0
 27 18  1  0
 28 34  1  0
 29 32  1  0
 30 29  1  0
 31 24  1  0
 32 19  1  0
 33  4  1  0
 34 30  1  0
 35  2  2  0
 36  5  2  0
 37  8  2  0
 38  7  2  0
 39 14  2  0
 40 11  2  0
 16 41  1  0
 15 42  1  0
 43 19  2  0
 17 44  1  0
 45 20  2  0
 46 21  2  0
 47 23  2  0
 26 48  1  0
 25 49  1  0
 50 30  2  0
 22 51  1  0
 27 52  1  0
 53  1  1  0
 54  3  1  0
 55 67  1  0
 56 55  2  3
 57  6  1  0
 58  9  1  0
 59 10  1  0
 60 13  1  0
 61 12  1  0
 62 33  1  0
 33 63  1  0
 64 41  1  0
 31 65  1  0
 32 66  1  0
 67 62  1  0
 68 44  1  0
 69 42  1  0
 70 48  1  0
 71 49  1  0
 34 72  1  0
 73 56  1  0
 74 51  1  0
 75 52  1  0
 76 52  1  0
 77 51  1  0
 62 78  1  0
 79 64  2  0
 80 64  1  0
 81 68  1  0
 82 71  1  0
 83 69  1  0
 84 69  1  0
 85 70  1  0
 86 70  1  0
 87 71  1  0
 88 68  1  0
 89 65  1  0
 90 73  1  0
 91 79  1  0
 92 80  2  0
 93 92  1  0
 93 91  2  0
 23 26  1  0
M  END
>  <Classification>  (722) 
1

>  <pchembl>  (722) 
5.82

>  <InChI_steorem>  (722) 
InChI=1S/C70H119N11O12/c1-25-27-29-32-46(15)59(82)58-63(86)73-50(26-2)65(88)78(21)55(39-49-33-30-28-31-34-49)67(90)75(18)52(36-41(5)6)62(85)74-56(44(11)12)69(92)76(19)51(35-40(3)4)61(84)71-47(16)60(83)72-48(17)64(87)77(20)53(37-42(7)8)66(89)79(22)54(38-43(9)10)68(91)80(23)57(45(13)14)70(93)81(58)24/h27-31,33-34,40-48,50-59,82H,25-26,32,35-39H2,1-24H3,(H,71,84)(H,72,83)(H,73,86)(H,74,85)

>  <source>  (722) 
ChEMBL25

>  <source_id>  (722) 
25

>  <optional_reference>  (722) 
10.1021/jm0109863

>  <optional_origin>  (722) 
None

>  <target>  (722) 
MDR1

$$$$

     RDKit          2D

 25 27  0  0  0  0  0  0  0  0999 V2000
    0.9647   -1.6303    0.0000 O   0  0  0  0  0  0  0  0  0  0  0  0
   -1.8932    0.8447    0.0000 O   0  0  0  0  0  0  0  0  0  0  0  0
    2.3936   -2.4553    0.0000 O   0  0  0  0  0  0  0  0  0  0  0  0
    3.8225   -1.6303    0.0000 N   0  0  0  0  0  0  0  0  0  0  0  0
   -1.1788   -0.3928    0.0000 C   0  0  0  0  0  0  0  0  0  0  0  0
   -1.8932    0.0197    0.0000 C   0  0  0  0  0  0  0  0  0  0  0  0
   -2.6077   -0.3928    0.0000 C   0  0  0  0  0  0  0  0  0  0  0  0
    0.2502   -1.2178    0.0000 C   0  0  0  0  0  0  0  0  0  0  0  0
   -0.4643    0.0197    0.0000 C   0  0  0  0  0  0  0  0  0  0  0  0
   -1.1788   -1.2178    0.0000 C   0  0  0  0  0  0  0  0  0  0  0  0
    0.2502   -0.3928    0.0000 C   0  0  0  0  0  0  0  0  0  0  0  0
   -0.4643   -1.6303    0.0000 C   0  0  0  0  0  0  0  0  0  0  0  0
   -2.6077   -1.2178    0.0000 C   0  0  0  0  0  0  0  0  0  0  0  0
   -3.3222    0.0197    0.0000 C   0  0  0  0  0  0  0  0  0  0  0  0
    2.3936   -1.6303    0.0000 C   0  0  0  0  0  0  0  0  0  0  0  0
    1.6791   -1.2178    0.0000 C   0  0  0  0  0  0  0  0  0  0  0  0
    3.1081   -1.2178    0.0000 C   0  0  0  0  0  0  0  0  0  0  0  0
   -3.3222   -1.6303    0.0000 C   0  0  0  0  0  0  0  0  0  0  0  0
   -4.0366   -0.3928    0.0000 C   0  0  0  0  0  0  0  0  0  0  0  0
   -4.0366   -1.2178    0.0000 C   0  0  0  0  0  0  0  0  0  0  0  0
    4.5370   -1.2178    0.0000 C   0  0  0  0  0  0  0  0  0  0  0  0
    3.8225   -2.4553    0.0000 C   0  0  0  0  0  0  0  0  0  0  0  0
    5.2515   -1.6303    0.0000 C   0  0  0  0  0  0  0  0  0  0  0  0
    4.5370   -2.8678    0.0000 C   0  0  0  0  0  0  0  0  0  0  0  0
    5.2515   -2.4553    0.0000 C   0  0  0  0  0  0  0  0  0  0  0  0
  1  8  1  0
  1 16  1  0
  2  6  2  0
  3 15  1  0
  4 17  1  0
  4 21  1  0
  4 22  1  0
  5  6  1  0
  5  9  2  0
  5 10  1  0
  6  7  1  0
  7 13  2  0
  7 14  1  0
  8 11  2  0
  8 12  1  0
  9 11  1  0
 10 12  2  0
 13 18  1  0
 14 19  2  0
 15 16  1  0
 15 17  1  0
 18 20  2  0
 19 20  1  0
 21 23  1  0
 22 24  1  0
 23 25  1  0
 24 25  1  0
M  END
>  <Classification>  (723) 
1

>  <pchembl>  (723) 
5.66

>  <InChI_steorem>  (723) 
InChI=1S/C21H25NO3/c23-19(15-22-13-5-2-6-14-22)16-25-20-11-9-18(10-12-20)21(24)17-7-3-1-4-8-17/h1,3-4,7-12,19,23H,2,5-6,13-16H2

>  <source>  (723) 
ChEMBL25

>  <source_id>  (723) 
25

>  <optional_reference>  (723) 
10.1021/jm201705f

>  <optional_origin>  (723) 
None

>  <target>  (723) 
MDR1

$$$$

     RDKit          2D

 25 27  0  0  0  0  0  0  0  0999 V2000
    0.9647   -0.7063    0.0000 O   0  0  0  0  0  0  0  0  0  0  0  0
   -1.8932   -3.1813    0.0000 O   0  0  0  0  0  0  0  0  0  0  0  0
    5.2515    0.1187    0.0000 O   0  0  0  0  0  0  0  0  0  0  0  0
    2.3936    0.1187    0.0000 O   0  0  0  0  0  0  0  0  0  0  0  0
    3.8225   -0.7063    0.0000 N   0  0  0  0  0  0  0  0  0  0  0  0
   -1.1788   -1.9438    0.0000 C   0  0  0  0  0  0  0  0  0  0  0  0
   -1.8932   -2.3563    0.0000 C   0  0  0  0  0  0  0  0  0  0  0  0
   -2.6077   -1.9438    0.0000 C   0  0  0  0  0  0  0  0  0  0  0  0
    0.2502   -1.1188    0.0000 C   0  0  0  0  0  0  0  0  0  0  0  0
   -1.1788   -1.1188    0.0000 C   0  0  0  0  0  0  0  0  0  0  0  0
   -0.4643   -2.3563    0.0000 C   0  0  0  0  0  0  0  0  0  0  0  0
   -0.4643   -0.7063    0.0000 C   0  0  0  0  0  0  0  0  0  0  0  0
    0.2502   -1.9438    0.0000 C   0  0  0  0  0  0  0  0  0  0  0  0
   -3.3222   -2.3563    0.0000 C   0  0  0  0  0  0  0  0  0  0  0  0
   -2.6077   -1.1188    0.0000 C   0  0  0  0  0  0  0  0  0  0  0  0
    2.3936   -0.7063    0.0000 C   0  0  0  0  0  0  0  0  0  0  0  0
    1.6791   -1.1188    0.0000 C   0  0  0  0  0  0  0  0  0  0  0  0
    3.1081   -1.1188    0.0000 C   0  0  0  0  0  0  0  0  0  0  0  0
    4.5370   -1.1188    0.0000 C   0  0  0  0  0  0  0  0  0  0  0  0
    3.8225    0.1187    0.0000 C   0  0  0  0  0  0  0  0  0  0  0  0
   -4.0366   -1.9438    0.0000 C   0  0  0  0  0  0  0  0  0  0  0  0
   -3.3222   -0.7063    0.0000 C   0  0  0  0  0  0  0  0  0  0  0  0
   -4.0366   -1.1188    0.0000 C   0  0  0  0  0  0  0  0  0  0  0  0
    5.2515   -0.7063    0.0000 C   0  0  0  0  0  0  0  0  0  0  0  0
    4.5370    0.5312    0.0000 C   0  0  0  0  0  0  0  0  0  0  0  0
  1  9  1  0
  1 17  1  0
  2  7  2  0
  3 24  1  0
  3 25  1  0
  4 16  1  0
  5 18  1  0
  5 19  1  0
  5 20  1  0
  6  7  1  0
  6 10  2  0
  6 11  1  0
  7  8  1  0
  8 14  2  0
  8 15  1  0
  9 12  2  0
  9 13  1  0
 10 12  1  0
 11 13  2  0
 14 21  1  0
 15 22  2  0
 16 17  1  0
 16 18  1  0
 19 24  1  0
 20 25  1  0
 21 23  2  0
 22 23  1  0
M  END
>  <Classification>  (724) 
1

>  <pchembl>  (724) 
5.27

>  <InChI_steorem>  (724) 
InChI=1S/C20H23NO4/c22-18(14-21-10-12-24-13-11-21)15-25-19-8-6-17(7-9-19)20(23)16-4-2-1-3-5-16/h1-9,18,22H,10-15H2

>  <source>  (724) 
ChEMBL25

>  <source_id>  (724) 
25

>  <optional_reference>  (724) 
10.1021/jm201705f

>  <optional_origin>  (724) 
None

>  <target>  (724) 
MDR1

$$$$

     RDKit          2D

 21 23  0  0  0  0  0  0  0  0999 V2000
   -1.4330   -2.0583    0.0000 C   0  0  0  0  0  0  0  0  0  0  0  0
   -0.7194   -2.4722    0.0000 N   0  0  0  0  0  0  0  0  0  0  0  0
   -0.0041   -2.0611    0.0000 C   0  0  0  0  0  0  0  0  0  0  0  0
   -0.0025   -1.2361    0.0000 C   0  0  0  0  0  0  0  0  0  0  0  0
   -0.7161   -0.8222    0.0000 C   0  0  0  0  0  0  0  0  0  0  0  0
   -1.4314   -1.2333    0.0000 N   0  0  0  0  0  0  0  0  0  0  0  0
    0.7827   -0.9827    0.0000 C   0  0  0  0  0  0  0  0  0  0  0  0
    1.2663   -1.6511    0.0000 C   0  0  0  0  0  0  0  0  0  0  0  0
    0.7800   -2.3176    0.0000 C   0  0  0  0  0  0  0  0  0  0  0  0
   -0.7145    0.0028    0.0000 N   0  0  0  0  0  0  0  0  0  0  0  0
    2.0913   -1.6527    0.0000 C   0  0  0  0  0  0  0  0  0  0  0  0
   -2.1483   -2.4693    0.0000 C   0  0  0  0  0  0  0  0  0  0  0  0
   -1.4281    0.4167    0.0000 C   0  0  0  0  0  0  0  0  0  0  0  0
    0.0008    0.4139    0.0000 C   0  0  0  0  0  0  0  0  0  0  0  0
    0.7145    0.0000    0.0000 C   0  0  0  0  0  0  0  0  0  0  0  0
    1.4298    0.4111    0.0000 C   0  0  0  0  0  0  0  0  0  0  0  0
    1.4314    1.2361    0.0000 C   0  0  0  0  0  0  0  0  0  0  0  0
    0.7177    1.6500    0.0000 C   0  0  0  0  0  0  0  0  0  0  0  0
    0.0025    1.2389    0.0000 C   0  0  0  0  0  0  0  0  0  0  0  0
    2.1467    1.6472    0.0000 O   0  0  0  0  0  0  0  0  0  0  0  0
    2.1483    2.4722    0.0000 C   0  0  0  0  0  0  0  0  0  0  0  0
  1  2  2  0
  2  3  1  0
  3  4  2  0
  4  5  1  0
  5  6  2  0
  1  6  1  0
  7  8  1  0
  8  9  1  0
  3  9  1  0
  4  7  1  0
  5 10  1  0
  8 11  1  0
  1 12  1  0
 10 13  1  0
 14 15  2  0
 15 16  1  0
 16 17  2  0
 17 18  1  0
 18 19  2  0
 14 19  1  0
 20 21  1  0
 17 20  1  0
 10 14  1  0
M  END
>  <Classification>  (725) 
1

>  <pchembl>  (725) 
7.35

>  <InChI_steorem>  (725) 
InChI=1S/C17H21N3O/c1-11-9-15-16(10-11)18-12(2)19-17(15)20(3)13-5-7-14(21-4)8-6-13/h5-8,11H,9-10H2,1-4H3

>  <source>  (725) 
ChEMBL25

>  <source_id>  (725) 
25

>  <optional_reference>  (725) 
10.1021/jm400639z

>  <optional_origin>  (725) 
None

>  <target>  (725) 
MDR1

$$$$

     RDKit          2D

 59 67  0  0  0  0  0  0  0  0999 V2000
    4.3473   -3.3521    0.0000 C   0  0  0  0  0  0  0  0  0  0  0  0
    7.2580   -3.4021    0.0000 C   0  0  0  0  0  0  0  0  0  0  0  0
    8.5821   -3.9183    0.0000 C   0  0  0  0  0  0  0  0  0  0  0  0
    3.6435   -2.9315    0.0000 C   0  0  0  0  0  0  0  0  0  0  0  0
    7.7701   -4.0433    0.0000 C   0  0  0  0  0  0  0  0  0  0  0  0
    8.3698   -2.5192    0.0000 C   0  0  0  0  0  0  0  0  0  0  0  0
    7.3204   -4.7387    0.0000 N   0  0  0  0  0  0  0  0  0  0  0  0
    7.5578   -2.6317    0.0000 C   0  0  0  0  0  0  0  0  0  0  0  0
    6.5292   -4.5180    0.0000 C   0  0  0  0  0  0  0  0  0  0  0  0
    8.8902   -3.1563    0.0000 C   0  0  0  0  0  0  0  0  0  0  0  0
    6.4834   -3.6935    0.0000 C   0  0  0  0  0  0  0  0  0  0  0  0
    5.0593   -3.7559    0.0000 C   0  0  0  0  0  0  0  0  0  0  0  0
    3.6477   -2.1154    0.0000 C   0  0  0  0  0  0  0  0  0  0  0  0
    2.8565   -3.1938    0.0000 N   0  0  0  0  0  0  0  0  0  0  0  0
    5.8214   -4.9677    0.0000 C   0  0  0  0  0  0  0  0  0  0  0  0
    5.7547   -3.3187    0.0000 C   0  0  0  0  0  0  0  0  0  0  0  0
    7.0414   -1.9946    0.0000 N   0  0  0  0  0  0  0  0  0  0  0  0
    3.7559   -3.9183    0.0000 C   0  0  0  0  0  0  0  0  0  0  0  0
    2.8607   -1.8530    0.0000 C   0  0  0  0  0  0  0  0  0  0  0  0
    8.7195   -4.7387    0.0000 C   0  0  0  0  0  0  0  0  0  0  0  0
    5.0926   -4.5804    0.0000 C   0  0  0  0  0  0  0  0  0  0  0  0
    2.3735   -2.5276    0.0000 C   0  0  0  0  0  0  0  0  0  0  0  0
    4.3473   -0.8703    0.0000 N   0  0  0  0  0  0  0  0  0  0  0  0
    6.4293   -3.1563    0.0000 C   0  0  0  0  0  0  0  0  0  0  0  0
    5.0593   -2.9399    0.0000 C   0  0  0  0  0  0  0  0  0  0  0  0
    9.7022   -3.0314    0.0000 O   0  0  0  0  0  0  0  0  0  0  0  0
    8.6696   -1.7531    0.0000 C   0  0  0  0  0  0  0  0  0  0  0  0
    2.9232   -0.8786    0.0000 C   0  0  0  0  0  0  0  0  0  0  0  0
    5.7714   -0.8703    0.0000 C   0  0  0  0  0  0  0  0  0  0  0  0
    5.0593   -2.1070    0.0000 C   0  0  0  0  0  0  0  0  0  0  0  0
   10.2186   -3.6685    0.0000 C   0  0  0  0  0  0  0  0  0  0  0  0
    6.2836   -2.3443    0.0000 C   0  0  0  0  0  0  0  0  0  0  0  0
    9.3941   -3.7809    0.0000 O   0  0  0  0  0  0  0  0  0  0  0  0
    8.1574   -1.1035    0.0000 C   0  0  0  0  0  0  0  0  0  0  0  0
    5.0593   -0.4580    0.0000 C   0  0  0  0  0  0  0  0  0  0  0  0
    4.3473   -1.7031    0.0000 C   0  0  0  0  0  0  0  0  0  0  0  0
    8.0907   -5.2634    0.0000 O   0  0  0  0  0  0  0  0  0  0  0  0
    3.9558   -4.7178    0.0000 O   0  0  0  0  0  0  0  0  0  0  0  0
    3.6352   -0.4664    0.0000 C   0  0  0  0  0  0  0  0  0  0  0  0
    9.9188   -4.4389    0.0000 O   0  0  0  0  0  0  0  0  0  0  0  0
    5.7714   -1.7031    0.0000 C   0  0  0  0  0  0  0  0  0  0  0  0
    9.1651   -2.2944    0.0000 C   0  0  0  0  0  0  0  0  0  0  0  0
    7.6160   -5.5132    0.0000 C   0  0  0  0  0  0  0  0  0  0  0  0
    7.3454   -1.2200    0.0000 C   0  0  0  0  0  0  0  0  0  0  0  0
    2.9606   -3.6935    0.0000 O   0  0  0  0  0  0  0  0  0  0  0  0
    9.4941   -5.0261    0.0000 O   0  0  0  0  0  0  0  0  0  0  0  0
    4.3930   -5.0177    0.0000 O   0  0  0  0  0  0  0  0  0  0  0  0
    5.7672   -0.0458    0.0000 O   0  0  0  0  0  0  0  0  0  0  0  0
    2.5234   -1.0951    0.0000 C   0  0  0  0  0  0  0  0  0  0  0  0
    1.5490   -2.4402    0.0000 C   0  0  0  0  0  0  0  0  0  0  0  0
    6.4917   -1.2909    0.0000 C   0  0  0  0  0  0  0  0  0  0  0  0
   11.0306   -3.5436    0.0000 C   0  0  0  0  0  0  0  0  0  0  0  0
    9.6315   -5.8421    0.0000 C   0  0  0  0  0  0  0  0  0  0  0  0
    2.3693   -4.2681    0.0000 C   0  0  0  0  0  0  0  0  0  0  0  0
    4.4222   -5.8421    0.0000 C   0  0  0  0  0  0  0  0  0  0  0  0
    9.3691   -1.4949    0.0000 C   0  0  0  0  0  0  0  0  0  0  0  0
    7.2080   -0.8786    0.0000 C   0  0  0  0  0  0  0  0  0  0  0  0
    1.7072   -1.0077    0.0000 C   0  0  0  0  0  0  0  0  0  0  0  0
    1.2117   -1.6822    0.0000 C   0  0  0  0  0  0  0  0  0  0  0  0
  2 11  1  0
  3  5  1  0
  4  1  1  0
  5  2  1  0
  6  8  1  0
  7  9  1  0
  8  2  1  0
  9 15  2  0
 10  6  1  0
 11 16  2  0
 12  1  1  0
 13  4  2  0
 14  4  1  0
 15 21  1  0
 16 12  1  0
 17  8  1  0
  1 18  1  0
 19 13  1  0
 20  3  1  0
 21 12  2  0
 22 14  1  0
 23 36  1  0
  2 24  1  0
 25  1  1  0
 10 26  1  0
 27  6  1  0
 28 13  1  0
 29 41  1  0
 30 25  1  0
 31 26  1  0
 32 24  1  0
  3 33  1  0
 34 44  1  0
 35 29  1  0
 36 30  1  0
 37 20  2  0
 38 18  2  0
 39 28  1  0
 40 31  2  0
 41 30  1  0
  6 42  1  0
 43  7  1  0
 44 17  1  0
 45 18  1  0
 46 20  1  0
 47 21  1  0
 48 29  1  0
 49 19  2  0
 50 22  2  0
 29 51  1  0
 52 31  1  0
 53 46  1  0
 54 45  1  0
 55 47  1  0
 56 42  1  0
 57 51  1  0
 58 49  1  0
 59 50  1  0
 11  9  1  0
 19 22  1  0
 23 39  1  0
 23 35  1  0
  7  5  1  0
 58 59  2  0
 17 32  1  0
  3 10  1  0
 27 34  2  0
M  END
>  <Classification>  (726) 
1

>  <pchembl>  (726) 
5.89

>  <InChI_steorem>  (726) 
InChI=1S/C46H58N4O9/c1-8-42(54)23-28-24-45(40(52)57-6,36-30(15-19-49(25-28)26-42)29-13-10-11-14-33(29)47-36)32-21-31-34(22-35(32)56-5)48(4)38-44(31)17-20-50-18-12-16-43(9-2,37(44)50)39(59-27(3)51)46(38,55)41(53)58-7/h10-14,16,21-22,28,37-39,47,54-55H,8-9,15,17-20,23-26H2,1-7H3

>  <source>  (726) 
ChEMBL25

>  <source_id>  (726) 
25

>  <optional_reference>  (726) 
10.1021/jm020941h

>  <optional_origin>  (726) 
None

>  <target>  (726) 
MDR1

$$$$

     RDKit          2D

 28 29  0  0  0  0  0  0  0  0999 V2000
    2.9958   -7.0917    0.0000 C   0  0  0  0  0  0  0  0  0  0  0  0
    1.7750   -7.0917    0.0000 C   0  0  0  0  0  0  0  0  0  0  0  0
    2.3833   -6.7375    0.0000 C   0  0  0  0  0  0  0  0  0  0  0  0
    1.7750   -7.8000    0.0000 C   0  0  0  0  0  0  0  0  0  0  0  0
    2.9958   -7.8000    0.0000 C   0  0  0  0  0  0  0  0  0  0  0  0
    2.3833   -8.1542    0.0000 N   0  0  0  0  0  0  0  0  0  0  0  0
    3.6125   -6.7375    0.0000 C   0  0  0  0  0  0  0  0  0  0  0  0
    1.1583   -6.7375    0.0000 C   0  0  0  0  0  0  0  0  0  0  0  0
    2.3833   -5.3208    0.0000 C   0  0  0  0  0  0  0  0  0  0  0  0
    3.0000   -4.9667    0.0000 C   0  0  0  0  0  0  0  0  0  0  0  0
    3.6125   -6.0292    0.0000 O   0  0  0  0  0  0  0  0  0  0  0  0
    1.1583   -6.0292    0.0000 O   0  0  0  0  0  0  0  0  0  0  0  0
    1.1583   -8.1500    0.0000 C   0  0  0  0  0  0  0  0  0  0  0  0
    4.2250   -7.0917    0.0000 O   0  0  0  0  0  0  0  0  0  0  0  0
    0.5458   -7.0917    0.0000 O   0  0  0  0  0  0  0  0  0  0  0  0
    3.6125   -8.1500    0.0000 C   0  0  0  0  0  0  0  0  0  0  0  0
    3.6125   -5.3208    0.0000 Cl  0  0  0  0  0  0  0  0  0  0  0  0
   -1.2958   -8.1500    0.0000 N   0  0  0  0  0  0  0  0  0  0  0  0
    1.7750   -4.9667    0.0000 C   0  0  0  0  0  0  0  0  0  0  0  0
    0.5458   -7.7958    0.0000 O   0  0  0  0  0  0  0  0  0  0  0  0
    3.0000   -4.2583    0.0000 C   0  0  0  0  0  0  0  0  0  0  0  0
   -0.6792   -7.7958    0.0000 C   0  0  0  0  0  0  0  0  0  0  0  0
   -0.0667   -6.7375    0.0000 C   0  0  0  0  0  0  0  0  0  0  0  0
   -0.0667   -8.1500    0.0000 C   0  0  0  0  0  0  0  0  0  0  0  0
    4.8375   -6.7375    0.0000 C   0  0  0  0  0  0  0  0  0  0  0  0
    1.7708   -4.2625    0.0000 C   0  0  0  0  0  0  0  0  0  0  0  0
   -0.6792   -7.0917    0.0000 C   0  0  0  0  0  0  0  0  0  0  0  0
    2.3875   -3.9042    0.0000 C   0  0  0  0  0  0  0  0  0  0  0  0
  2  3  1  0
  3  1  1  0
  4  2  2  0
  5  1  2  0
  6  5  1  0
  7  1  1  0
  8  2  1  0
  9  3  1  0
 10  9  2  0
 11  7  2  0
 12  8  2  0
 13  4  1  0
 14  7  1  0
 15  8  1  0
 16  5  1  0
 17 10  1  0
 18 22  1  0
 19  9  1  0
 20 13  1  0
 21 10  1  0
 22 24  1  0
 23 15  1  0
 24 20  1  0
 25 14  1  0
 26 19  2  0
 27 23  1  0
 28 21  2  0
  6  4  1  0
 26 28  1  0
M  END
>  <Classification>  (727) 
0

>  <pchembl>  (727) 
4.66

>  <InChI_steorem>  (727) 
InChI=1S/C20H25ClN2O5/c1-4-28-20(25)18-15(11-27-10-9-22)23-12(2)16(19(24)26-3)17(18)13-7-5-6-8-14(13)21/h5-8,17,23H,4,9-11,22H2,1-3H3

>  <source>  (727) 
ChEMBL25

>  <source_id>  (727) 
25

>  <optional_reference>  (727) 
10.1023/a:1007568811691

>  <optional_origin>  (727) 
None

>  <target>  (727) 
MDR1

$$$$

     RDKit          2D

 28 31  0  0  0  0  0  0  0  0999 V2000
    2.1875   -1.3500    0.0000 N   0  0  0  0  0  0  0  0  0  0  0  0
    1.5667   -1.0042    0.0000 C   0  0  0  0  0  0  0  0  0  0  0  0
    2.1792    0.0708    0.0000 S   0  0  0  0  0  0  0  0  0  0  0  0
   -0.2625   -1.3792    0.0000 C   0  0  0  0  0  0  0  0  0  0  0  0
    1.5667   -0.2917    0.0000 C   0  0  0  0  0  0  0  0  0  0  0  0
    2.8042   -0.9917    0.0000 C   0  0  0  0  0  0  0  0  0  0  0  0
    2.8000   -0.2792    0.0000 C   0  0  0  0  0  0  0  0  0  0  0  0
    0.9667   -1.3667    0.0000 C   0  0  0  0  0  0  0  0  0  0  0  0
    0.3417   -1.0250    0.0000 C   0  0  0  0  0  0  0  0  0  0  0  0
    0.9875   -3.4875    0.0000 N   0  0  0  0  0  0  0  0  0  0  0  0
   -0.2375   -4.2042    0.0000 N   0  0  0  0  0  0  0  0  0  0  0  0
    0.9542    0.0500    0.0000 C   0  0  0  0  0  0  0  0  0  0  0  0
    0.3417   -0.3125    0.0000 C   0  0  0  0  0  0  0  0  0  0  0  0
   -0.8833   -1.0292    0.0000 F   0  0  0  0  0  0  0  0  0  0  0  0
    0.0792   -1.9917    0.0000 F   0  0  0  0  0  0  0  0  0  0  0  0
   -0.6208   -1.9917    0.0000 F   0  0  0  0  0  0  0  0  0  0  0  0
    2.1958   -2.0625    0.0000 C   0  0  0  0  0  0  0  0  0  0  0  0
    0.3792   -4.5625    0.0000 C   0  0  0  0  0  0  0  0  0  0  0  0
   -0.2458   -3.5000    0.0000 C   0  0  0  0  0  0  0  0  0  0  0  0
    0.9917   -4.1958    0.0000 C   0  0  0  0  0  0  0  0  0  0  0  0
    0.3667   -3.1375    0.0000 C   0  0  0  0  0  0  0  0  0  0  0  0
    1.5917   -2.4167    0.0000 C   0  0  0  0  0  0  0  0  0  0  0  0
    1.6000   -3.1250    0.0000 C   0  0  0  0  0  0  0  0  0  0  0  0
    3.4167   -1.3375    0.0000 C   0  0  0  0  0  0  0  0  0  0  0  0
    3.4125    0.0833    0.0000 C   0  0  0  0  0  0  0  0  0  0  0  0
   -0.8500   -4.5750    0.0000 C   0  0  0  0  0  0  0  0  0  0  0  0
    4.0375   -0.9750    0.0000 C   0  0  0  0  0  0  0  0  0  0  0  0
    4.0292   -0.2667    0.0000 C   0  0  0  0  0  0  0  0  0  0  0  0
  2  1  1  0
  3  7  1  0
  4  9  1  0
  5  2  2  0
  6  1  1  0
  7  6  2  0
  8  2  1  0
  9  8  2  0
 10 23  1  0
 11 19  1  0
 12  5  1  0
 13  9  1  0
 14  4  1  0
 15  4  1  0
 16  4  1  0
 17  1  1  0
 18 20  1  0
 19 21  1  0
 20 10  1  0
 21 10  1  0
 22 17  1  0
 23 22  1  0
 24  6  1  0
 25  7  1  0
 26 11  1  0
 27 24  2  0
 28 27  1  0
  5  3  1  0
 25 28  2  0
 12 13  2  0
 18 11  1  0
M  END
>  <Classification>  (728) 
1

>  <pchembl>  (728) 
5.19

>  <InChI_steorem>  (728) 
InChI=1S/C21H24F3N3S/c1-25-11-13-26(14-12-25)9-4-10-27-17-5-2-3-6-19(17)28-20-8-7-16(15-18(20)27)21(22,23)24/h2-3,5-8,15H,4,9-14H2,1H3

>  <source>  (728) 
ChEMBL25

>  <source_id>  (728) 
25

>  <optional_reference>  (728) 
10.1021/jm020941h

>  <optional_origin>  (728) 
None

>  <target>  (728) 
MDR1

$$$$

     RDKit          2D

 40 43  0  0  0  0  0  0  0  0999 V2000
    7.6000   -2.8000    0.0000 N   0  0  0  0  0  0  0  0  0  0  0  0
    8.2417   -2.4250    0.0000 C   0  0  0  0  0  0  0  0  0  0  0  0
    4.5417   -2.4542    0.0000 C   0  0  0  0  0  0  0  0  0  0  0  0
    8.2417   -1.6667    0.0000 C   0  0  0  0  0  0  0  0  0  0  0  0
    5.1792   -2.8000    0.0000 N   0  0  0  0  0  0  0  0  0  0  0  0
    3.8917   -2.8125    0.0000 C   0  0  0  0  0  0  0  0  0  0  0  0
    8.8292   -2.8000    0.0000 C   0  0  0  0  0  0  0  0  0  0  0  0
    7.0167   -2.4542    0.0000 C   0  0  0  0  0  0  0  0  0  0  0  0
    3.2542   -2.4542    0.0000 C   0  0  0  0  0  0  0  0  0  0  0  0
    7.5875   -3.4917    0.0000 C   0  0  0  0  0  0  0  0  0  0  0  0
    5.8042   -2.4542    0.0000 C   0  0  0  0  0  0  0  0  0  0  0  0
    8.8167   -1.3167    0.0000 N   0  0  0  0  0  0  0  0  0  0  0  0
    6.4250   -2.8000    0.0000 C   0  0  0  0  0  0  0  0  0  0  0  0
    8.8292   -3.5042    0.0000 C   0  0  0  0  0  0  0  0  0  0  0  0
    8.2292   -3.8667    0.0000 C   0  0  0  0  0  0  0  0  0  0  0  0
    4.5417   -1.7417    0.0000 O   0  0  0  0  0  0  0  0  0  0  0  0
    7.6250   -1.3167    0.0000 O   0  0  0  0  0  0  0  0  0  0  0  0
    2.6250   -2.8125    0.0000 C   0  0  0  0  0  0  0  0  0  0  0  0
    5.8042   -1.7625    0.0000 C   0  0  0  0  0  0  0  0  0  0  0  0
    9.4042   -1.6417    0.0000 C   0  0  0  0  0  0  0  0  0  0  0  0
    6.3917   -1.4000    0.0000 S   0  0  0  0  0  0  0  0  0  0  0  0
    6.4250   -3.5167    0.0000 O   0  0  0  0  0  0  0  0  0  0  0  0
    6.3917   -0.7042    0.0000 C   0  0  0  0  0  0  0  0  0  0  0  0
    1.9917   -2.4542    0.0000 O   0  0  0  0  0  0  0  0  0  0  0  0
    3.8917   -3.5417    0.0000 C   0  0  0  0  0  0  0  0  0  0  0  0
    3.2542   -1.7625    0.0000 C   0  0  0  0  0  0  0  0  0  0  0  0
    3.2542   -3.9250    0.0000 C   0  0  0  0  0  0  0  0  0  0  0  0
    2.6250   -3.5417    0.0000 C   0  0  0  0  0  0  0  0  0  0  0  0
    9.4625   -3.8417    0.0000 C   0  0  0  0  0  0  0  0  0  0  0  0
    8.2292   -4.5750    0.0000 C   0  0  0  0  0  0  0  0  0  0  0  0
    9.7542   -2.2542    0.0000 C   0  0  0  0  0  0  0  0  0  0  0  0
   10.0167   -1.3167    0.0000 C   0  0  0  0  0  0  0  0  0  0  0  0
    9.0500   -2.2542    0.0000 C   0  0  0  0  0  0  0  0  0  0  0  0
    5.8000   -0.3417    0.0000 C   0  0  0  0  0  0  0  0  0  0  0  0
    6.9667   -0.3417    0.0000 C   0  0  0  0  0  0  0  0  0  0  0  0
    9.4625   -4.5750    0.0000 C   0  0  0  0  0  0  0  0  0  0  0  0
    8.8500   -4.9292    0.0000 C   0  0  0  0  0  0  0  0  0  0  0  0
    6.9667    0.3208    0.0000 C   0  0  0  0  0  0  0  0  0  0  0  0
    5.8000    0.3208    0.0000 C   0  0  0  0  0  0  0  0  0  0  0  0
    6.3917    0.6750    0.0000 C   0  0  0  0  0  0  0  0  0  0  0  0
  2  1  1  0
  3  5  1  0
  2  4  1  0
  5 11  1  0
  6  3  1  0
  7  2  1  0
  8  1  1  0
  9  6  2  0
 10  1  1  0
 11 13  1  0
 12  4  1  0
 13  8  1  0
 14 15  1  0
 15 10  1  0
 16  3  2  0
 17  4  2  0
 18  9  1  0
 11 19  1  0
 20 12  1  0
 21 19  1  0
 13 22  1  0
 23 21  1  0
 24 18  1  0
 25  6  1  0
 26  9  1  0
 27 25  2  0
 28 18  2  0
 29 14  1  0
 30 15  1  0
 31 20  1  0
 32 20  1  0
 33 20  1  0
 34 23  2  0
 35 23  1  0
 36 37  1  0
 37 30  1  0
 38 35  2  0
 39 34  1  0
 40 39  2  0
 14  7  1  0
 36 29  1  0
 27 28  1  0
 40 38  1  0
M  END
>  <Classification>  (729) 
1

>  <pchembl>  (729) 
5.47

>  <InChI_steorem>  (729) 
InChI=1S/C32H45N3O4S/c1-21-25(15-10-16-28(21)36)30(38)33-26(20-40-24-13-6-5-7-14-24)29(37)19-35-18-23-12-9-8-11-22(23)17-27(35)31(39)34-32(2,3)4/h5-7,10,13-16,22-23,26-27,29,36-37H,8-9,11-12,17-20H2,1-4H3,(H,33,38)(H,34,39)

>  <source>  (729) 
ChEMBL25

>  <source_id>  (729) 
25

>  <optional_reference>  (729) 
10.1021/jm021012t

>  <optional_origin>  (729) 
None

>  <target>  (729) 
MDR1

$$$$

     RDKit          2D

 43 50  0  0  0  0  0  0  0  0999 V2000
   17.7116   -7.1325    0.0000 C   0  0  0  0  0  0  0  0  0  0  0  0
   18.4401   -7.5231    0.0000 C   0  0  0  0  0  0  0  0  0  0  0  0
   18.4352   -8.3381    0.0000 C   0  0  0  0  0  0  0  0  0  0  0  0
   17.8100   -8.8751    0.0000 C   0  0  0  0  0  0  0  0  0  0  0  0
   17.9165   -9.6957    0.0000 C   0  0  0  0  0  0  0  0  0  0  0  0
   18.6949   -9.9677    0.0000 C   0  0  0  0  0  0  0  0  0  0  0  0
   19.3513   -9.4645    0.0000 C   0  0  0  0  0  0  0  0  0  0  0  0
   20.1479   -9.6003    0.0000 N   0  0  0  0  0  0  0  0  0  0  0  0
   20.5295   -8.8718    0.0000 C   0  0  0  0  0  0  0  0  0  0  0  0
   19.1972   -8.6552    0.0000 C   0  0  0  0  0  0  0  0  0  0  0  0
   19.9541   -8.2869    0.0000 C   0  0  0  0  0  0  0  0  0  0  0  0
   19.8775   -7.4614    0.0000 C   0  0  0  0  0  0  0  0  0  0  0  0
   19.1399   -7.0887    0.0000 C   0  0  0  0  0  0  0  0  0  0  0  0
   19.1149   -6.2653    0.0000 N   0  0  0  0  0  0  0  0  0  0  0  0
   19.8145   -5.8309    0.0000 C   0  0  0  0  0  0  0  0  0  0  0  0
   18.3864   -5.8746    0.0000 C   0  0  0  0  0  0  0  0  0  0  0  0
   17.6866   -6.3091    0.0000 C   0  0  0  0  0  0  0  0  0  0  0  0
   16.9581   -5.9184    0.0000 C   0  0  0  0  0  0  0  0  0  0  0  0
   16.9761   -5.0922    0.0000 O   0  0  0  0  0  0  0  0  0  0  0  0
   16.2379   -6.3174    0.0000 N   0  0  0  0  0  0  0  0  0  0  0  0
   15.5320   -5.8883    0.0000 C   0  0  0  0  0  0  0  0  0  0  0  0
   15.8980   -5.1473    0.0000 C   0  0  0  0  0  0  0  0  0  0  0  0
   15.0408   -5.2269    0.0000 C   0  0  0  0  0  0  0  0  0  0  0  0
   15.2917   -4.4379    0.0000 O   0  0  0  0  0  0  0  0  0  0  0  0
   14.2594   -5.4828    0.0000 N   0  0  0  0  0  0  0  0  0  0  0  0
   13.5398   -5.0768    0.0000 C   0  0  0  0  0  0  0  0  0  0  0  0
   13.5377   -4.2497    0.0000 C   0  0  0  0  0  0  0  0  0  0  0  0
   12.8207   -3.8405    0.0000 C   0  0  0  0  0  0  0  0  0  0  0  0
   12.8161   -3.0167    0.0000 C   0  0  0  0  0  0  0  0  0  0  0  0
   12.0964   -2.6107    0.0000 C   0  0  0  0  0  0  0  0  0  0  0  0
   11.3842   -3.0255    0.0000 C   0  0  0  0  0  0  0  0  0  0  0  0
   11.3889   -3.8492    0.0000 C   0  0  0  0  0  0  0  0  0  0  0  0
   12.1058   -4.2585    0.0000 C   0  0  0  0  0  0  0  0  0  0  0  0
   12.8275   -5.4914    0.0000 C   0  0  0  0  0  0  0  0  0  0  0  0
   12.1105   -5.0823    0.0000 O   0  0  0  0  0  0  0  0  0  0  0  0
   12.8355   -6.3179    0.0000 N   0  0  0  0  0  0  0  0  0  0  0  0
   12.2224   -6.8717    0.0000 C   0  0  0  0  0  0  0  0  0  0  0  0
   12.5633   -7.6244    0.0000 C   0  0  0  0  0  0  0  0  0  0  0  0
   13.3815   -7.5337    0.0000 C   0  0  0  0  0  0  0  0  0  0  0  0
   13.5492   -6.7245    0.0000 C   0  0  0  0  0  0  0  0  0  0  0  0
   14.2615   -6.3098    0.0000 C   0  0  0  0  0  0  0  0  0  0  0  0
   14.3522   -7.1281    0.0000 O   0  0  0  0  0  0  0  0  0  0  0  0
   15.0473   -6.5582    0.0000 O   0  0  0  0  0  0  0  0  0  0  0  0
  1  2  2  0
  2  3  1  0
  3  4  2  0
  4  5  1  0
  5  6  2  0
  6  7  1  0
  7  8  1  0
  8  9  1  0
  7 10  2  0
  3 10  1  0
 10 11  1  0
  9 11  2  0
 11 12  1  0
 12 13  1  0
  2 13  1  0
 13 14  1  0
 14 15  1  0
 14 16  1  0
 16 17  1  0
  1 17  1  0
 17 18  1  0
 18 19  2  0
 18 20  1  0
 21 20  1  0
 21 22  1  0
 21 23  1  0
 23 24  2  0
 23 25  1  0
 25 26  1  0
 26 27  1  0
 27 28  1  0
 28 29  2  0
 29 30  1  0
 30 31  2  0
 31 32  1  0
 32 33  2  0
 28 33  1  0
 26 34  1  0
 34 35  2  0
 34 36  1  0
 36 37  1  0
 37 38  1  0
 38 39  1  0
 39 40  1  0
 36 40  1  0
 40 41  1  0
 41 42  1  0
 25 41  1  0
 41 43  1  0
 21 43  1  0
M  END
>  <Classification>  (730) 
0

>  <pchembl>  (730) 
4.85

>  <InChI_steorem>  (730) 
InChI=1S/C33H35N5O5/c1-32(35-29(39)21-15-23-22-10-6-11-24-28(22)20(17-34-24)16-25(23)36(2)18-21)31(41)38-26(14-19-8-4-3-5-9-19)30(40)37-13-7-12-27(37)33(38,42)43-32/h3-6,8-11,15,17,21,25-27,34,42H,7,12-14,16,18H2,1-2H3,(H,35,39)

>  <source>  (730) 
ChEMBL25

>  <source_id>  (730) 
25

>  <optional_reference>  (730) 
10.1124/mol.61.5.964

>  <optional_origin>  (730) 
None

>  <target>  (730) 
MDR1

$$$$

     RDKit          2D

 51 53  0  0  0  0  0  0  0  0999 V2000
    3.7625   -9.4417    0.0000 C   0  0  0  0  0  0  0  0  0  0  0  0
   -0.5250   -9.8042    0.0000 C   0  0  0  0  0  0  0  0  0  0  0  0
    0.0875   -9.4542    0.0000 N   0  0  0  0  0  0  0  0  0  0  0  0
    4.3750   -9.7917    0.0000 C   0  0  0  0  0  0  0  0  0  0  0  0
   -1.1375   -9.4542    0.0000 C   0  0  0  0  0  0  0  0  0  0  0  0
    3.1500   -9.7917    0.0000 N   0  0  0  0  0  0  0  0  0  0  0  0
    2.5375   -9.4417    0.0000 N   0  0  0  0  0  0  0  0  0  0  0  0
    5.6000   -9.7875    0.0000 C   0  0  0  0  0  0  0  0  0  0  0  0
   -2.3625   -9.4625    0.0000 C   0  0  0  0  0  0  0  0  0  0  0  0
    4.9875   -9.4375    0.0000 N   0  0  0  0  0  0  0  0  0  0  0  0
   -1.7500   -9.8125    0.0000 N   0  0  0  0  0  0  0  0  0  0  0  0
    0.7000   -9.8042    0.0000 C   0  0  0  0  0  0  0  0  0  0  0  0
    1.9250   -9.8000    0.0000 C   0  0  0  0  0  0  0  0  0  0  0  0
    1.3125   -9.4500    0.0000 C   0  0  0  0  0  0  0  0  0  0  0  0
    4.3750  -10.5000    0.0000 C   0  0  0  0  0  0  0  0  0  0  0  0
   -1.1417   -8.7500    0.0000 C   0  0  0  0  0  0  0  0  0  0  0  0
    3.7583   -8.7292    0.0000 O   0  0  0  0  0  0  0  0  0  0  0  0
   -0.5250  -10.5167    0.0000 O   0  0  0  0  0  0  0  0  0  0  0  0
    4.6333   -6.2667    0.0000 N   0  0  0  0  0  0  0  0  0  0  0  0
    3.5792   -6.8875    0.0000 C   0  0  0  0  0  0  0  0  0  0  0  0
    3.9250   -6.2708    0.0000 C   0  0  0  0  0  0  0  0  0  0  0  0
    0.7000  -10.5125    0.0000 C   0  0  0  0  0  0  0  0  0  0  0  0
    5.6000  -10.4917    0.0000 O   0  0  0  0  0  0  0  0  0  0  0  0
   -2.3667   -8.7542    0.0000 O   0  0  0  0  0  0  0  0  0  0  0  0
    2.5333   -8.7375    0.0000 C   0  0  0  0  0  0  0  0  0  0  0  0
    3.9375   -7.5000    0.0000 C   0  0  0  0  0  0  0  0  0  0  0  0
    2.8667   -6.8958    0.0000 C   0  0  0  0  0  0  0  0  0  0  0  0
   -2.9750   -9.8167    0.0000 O   0  0  0  0  0  0  0  0  0  0  0  0
    6.2125   -9.4292    0.0000 O   0  0  0  0  0  0  0  0  0  0  0  0
    2.8792   -8.1167    0.0000 C   0  0  0  0  0  0  0  0  0  0  0  0
    1.3083   -8.7417    0.0000 O   0  0  0  0  0  0  0  0  0  0  0  0
    1.3125  -10.8625    0.0000 C   0  0  0  0  0  0  0  0  0  0  0  0
    3.5917   -8.1125    0.0000 C   0  0  0  0  0  0  0  0  0  0  0  0
    2.5208   -7.5125    0.0000 C   0  0  0  0  0  0  0  0  0  0  0  0
    5.0792  -10.4917    0.0000 C   0  0  0  0  0  0  0  0  0  0  0  0
   -1.5000   -8.1292    0.0000 C   0  0  0  0  0  0  0  0  0  0  0  0
   -1.8500   -8.7500    0.0000 C   0  0  0  0  0  0  0  0  0  0  0  0
   -0.5292   -8.3917    0.0000 C   0  0  0  0  0  0  0  0  0  0  0  0
    3.7625  -10.8542    0.0000 C   0  0  0  0  0  0  0  0  0  0  0  0
    4.7250  -11.1042    0.0000 C   0  0  0  0  0  0  0  0  0  0  0  0
    4.9792   -5.6500    0.0000 C   0  0  0  0  0  0  0  0  0  0  0  0
    3.5625   -5.6667    0.0000 C   0  0  0  0  0  0  0  0  0  0  0  0
    6.8250   -9.7792    0.0000 C   0  0  0  0  0  0  0  0  0  0  0  0
   -3.5875   -9.4667    0.0000 C   0  0  0  0  0  0  0  0  0  0  0  0
    1.9208  -10.5042    0.0000 C   0  0  0  0  0  0  0  0  0  0  0  0
    1.3125  -11.5708    0.0000 C   0  0  0  0  0  0  0  0  0  0  0  0
    4.6167   -5.0375    0.0000 C   0  0  0  0  0  0  0  0  0  0  0  0
    3.9042   -5.0500    0.0000 C   0  0  0  0  0  0  0  0  0  0  0  0
    1.9292  -11.9208    0.0000 C   0  0  0  0  0  0  0  0  0  0  0  0
    2.5375  -10.8542    0.0000 C   0  0  0  0  0  0  0  0  0  0  0  0
    2.5417  -11.5667    0.0000 C   0  0  0  0  0  0  0  0  0  0  0  0
  2  3  1  0
  3 12  1  0
  4  1  1  0
  5  2  1  0
  6  1  1  0
  7  6  1  0
  8 10  1  0
  9 11  1  0
 10  4  1  0
 11  5  1  0
 12 14  1  0
 13  7  1  0
 14 13  1  0
  4 15  1  0
  5 16  1  0
 17  1  2  0
 18  2  2  0
 19 21  2  0
 20 27  2  0
 21 20  1  0
 12 22  1  0
 23  8  2  0
 24  9  2  0
 25  7  1  0
 26 33  2  0
 27 34  1  0
 28  9  1  0
 29  8  1  0
 30 25  1  0
 14 31  1  0
 32 22  1  0
 33 30  1  0
 34 30  2  0
 35 15  1  0
 36 16  1  0
 37 16  1  0
 38 16  1  0
 39 15  1  0
 40 15  1  0
 41 19  1  0
 42 21  1  0
 43 29  1  0
 44 28  1  0
 45 32  2  0
 46 32  1  0
 47 48  1  0
 48 42  2  0
 49 46  2  0
 50 45  1  0
 51 50  2  0
 20 26  1  0
 51 49  1  0
 47 41  2  0
M  END
>  <Classification>  (731) 
0

>  <pchembl>  (731) 
4.17

>  <InChI_steorem>  (731) 
InChI=1S/C38H52N6O7/c1-37(2,3)31(41-35(48)50-7)33(46)40-29(22-25-14-10-9-11-15-25)30(45)24-44(43-34(47)32(38(4,5)6)42-36(49)51-8)23-26-17-19-27(20-18-26)28-16-12-13-21-39-28/h9-21,29-32,45H,22-24H2,1-8H3,(H,40,46)(H,41,48)(H,42,49)(H,43,47)

>  <source>  (731) 
ChEMBL25

>  <source_id>  (731) 
25

>  <optional_reference>  (731) 
10.1128/aac.00671-07

>  <optional_origin>  (731) 
None

>  <target>  (731) 
MDR1

$$$$

     RDKit          2D

 29 31  0  0  0  0  0  0  0  0999 V2000
    6.9417   -2.3667    0.0000 C   0  0  0  0  0  0  0  0  0  0  0  0
    6.6792   -2.9542    0.0000 C   0  0  0  0  0  0  0  0  0  0  0  0
    5.9667   -3.1417    0.0000 N   0  0  0  0  0  0  0  0  0  0  0  0
    5.9292   -1.6042    0.0000 S   0  0  0  0  0  0  0  0  0  0  0  0
    6.6042   -1.7042    0.0000 C   0  0  0  0  0  0  0  0  0  0  0  0
    5.4042   -2.6667    0.0000 C   0  0  0  0  0  0  0  0  0  0  0  0
    5.4042   -2.0292    0.0000 C   0  0  0  0  0  0  0  0  0  0  0  0
    7.7167   -2.3667    0.0000 O   0  0  0  0  0  0  0  0  0  0  0  0
    5.9667   -3.9917    0.0000 C   0  0  0  0  0  0  0  0  0  0  0  0
    7.2292   -1.3042    0.0000 C   0  0  0  0  0  0  0  0  0  0  0  0
    8.2917   -2.7167    0.0000 C   0  0  0  0  0  0  0  0  0  0  0  0
    7.1667   -3.4792    0.0000 O   0  0  0  0  0  0  0  0  0  0  0  0
    8.2917   -3.4167    0.0000 O   0  0  0  0  0  0  0  0  0  0  0  0
    7.8292   -1.6167    0.0000 C   0  0  0  0  0  0  0  0  0  0  0  0
    7.2292   -0.5917    0.0000 C   0  0  0  0  0  0  0  0  0  0  0  0
    6.6167   -4.3792    0.0000 C   0  0  0  0  0  0  0  0  0  0  0  0
    6.6167   -5.1292    0.0000 N   0  0  0  0  0  0  0  0  0  0  0  0
    8.4042   -0.5917    0.0000 C   0  0  0  0  0  0  0  0  0  0  0  0
    7.8292   -0.2292    0.0000 C   0  0  0  0  0  0  0  0  0  0  0  0
    8.4042   -1.2792    0.0000 C   0  0  0  0  0  0  0  0  0  0  0  0
    4.7667   -3.0417    0.0000 C   0  0  0  0  0  0  0  0  0  0  0  0
    8.9792   -0.2542    0.0000 O   0  0  0  0  0  0  0  0  0  0  0  0
    4.7667   -1.6417    0.0000 C   0  0  0  0  0  0  0  0  0  0  0  0
    8.9167   -2.3667    0.0000 C   0  0  0  0  0  0  0  0  0  0  0  0
    7.2417   -5.4667    0.0000 C   0  0  0  0  0  0  0  0  0  0  0  0
    6.0417   -5.4292    0.0000 C   0  0  0  0  0  0  0  0  0  0  0  0
    9.6292   -0.5917    0.0000 C   0  0  0  0  0  0  0  0  0  0  0  0
    4.1417   -2.7167    0.0000 C   0  0  0  0  0  0  0  0  0  0  0  0
    4.1417   -1.9792    0.0000 C   0  0  0  0  0  0  0  0  0  0  0  0
  2  1  1  0
  3  2  1  0
  4  5  1  0
  5  1  1  0
  6  3  1  0
  7  4  1  0
  1  8  1  0
  9  3  1  0
  5 10  1  0
 11  8  1  0
 12  2  2  0
 13 11  2  0
 14 10  2  0
 15 10  1  0
 16  9  1  0
 17 16  1  0
 18 19  1  0
 19 15  2  0
 20 14  1  0
 21  6  2  0
 22 18  1  0
 23  7  2  0
 24 11  1  0
 25 17  1  0
 26 17  1  0
 27 22  1  0
 28 21  1  0
 29 23  1  0
  6  7  1  0
 18 20  2  0
 28 29  2  0
M  END
>  <Classification>  (732) 
0

>  <pchembl>  (732) 
4.37

>  <InChI_steorem>  (732) 
InChI=1S/C22H26N2O4S/c1-15(25)28-20-21(16-9-11-17(27-4)12-10-16)29-19-8-6-5-7-18(19)24(22(20)26)14-13-23(2)3/h5-12,20-21H,13-14H2,1-4H3

>  <source>  (732) 
ChEMBL25

>  <source_id>  (732) 
25

>  <optional_reference>  (732) 
10.1016/j.bmc.2007.07.024

>  <optional_origin>  (732) 
None

>  <target>  (732) 
MDR1

$$$$

     RDKit          2D

 35 37  0  0  0  0  0  0  0  0999 V2000
    3.8167   -3.9417    0.0000 C   0  0  0  0  0  0  0  0  0  0  0  0
    2.5875   -3.9542    0.0000 C   0  0  0  0  0  0  0  0  0  0  0  0
    3.2042   -4.3042    0.0000 C   0  0  0  0  0  0  0  0  0  0  0  0
    3.8167   -3.2292    0.0000 C   0  0  0  0  0  0  0  0  0  0  0  0
    2.5875   -3.2292    0.0000 C   0  0  0  0  0  0  0  0  0  0  0  0
    3.2042   -2.8667    0.0000 N   0  0  0  0  0  0  0  0  0  0  0  0
    4.4667   -6.4417    0.0000 N   0  0  0  0  0  0  0  0  0  0  0  0
    3.2042   -5.0125    0.0000 C   0  0  0  0  0  0  0  0  0  0  0  0
    4.4667   -4.3042    0.0000 C   0  0  0  0  0  0  0  0  0  0  0  0
    1.9792   -4.3167    0.0000 C   0  0  0  0  0  0  0  0  0  0  0  0
    3.8042   -6.0750    0.0000 C   0  0  0  0  0  0  0  0  0  0  0  0
    3.8167   -5.3542    0.0000 C   0  0  0  0  0  0  0  0  0  0  0  0
    4.4542   -7.1667    0.0000 O   0  0  0  0  0  0  0  0  0  0  0  0
    4.9542   -6.1667    0.0000 O   0  0  0  0  0  0  0  0  0  0  0  0
    1.9667   -5.0292    0.0000 O   0  0  0  0  0  0  0  0  0  0  0  0
    4.4542   -5.0125    0.0000 O   0  0  0  0  0  0  0  0  0  0  0  0
    6.9250   -4.2375    0.0000 N   0  0  0  0  0  0  0  0  0  0  0  0
    5.0542   -3.9292    0.0000 O   0  0  0  0  0  0  0  0  0  0  0  0
    7.5417   -3.8542    0.0000 C   0  0  0  0  0  0  0  0  0  0  0  0
    1.3625   -3.9667    0.0000 O   0  0  0  0  0  0  0  0  0  0  0  0
    1.9500   -2.8542    0.0000 C   0  0  0  0  0  0  0  0  0  0  0  0
    4.4375   -2.8542    0.0000 C   0  0  0  0  0  0  0  0  0  0  0  0
    2.5875   -5.3625    0.0000 C   0  0  0  0  0  0  0  0  0  0  0  0
    8.1625   -4.1875    0.0000 C   0  0  0  0  0  0  0  0  0  0  0  0
    5.6917   -4.2667    0.0000 C   0  0  0  0  0  0  0  0  0  0  0  0
    3.2042   -6.4375    0.0000 C   0  0  0  0  0  0  0  0  0  0  0  0
    2.5875   -6.0750    0.0000 C   0  0  0  0  0  0  0  0  0  0  0  0
    6.3042   -3.9000    0.0000 C   0  0  0  0  0  0  0  0  0  0  0  0
    6.9250   -4.9375    0.0000 C   0  0  0  0  0  0  0  0  0  0  0  0
    0.7542   -4.3042    0.0000 C   0  0  0  0  0  0  0  0  0  0  0  0
    8.1750   -4.9042    0.0000 C   0  0  0  0  0  0  0  0  0  0  0  0
    8.7667   -3.8250    0.0000 C   0  0  0  0  0  0  0  0  0  0  0  0
    8.7792   -5.2542    0.0000 C   0  0  0  0  0  0  0  0  0  0  0  0
    9.3792   -4.1625    0.0000 C   0  0  0  0  0  0  0  0  0  0  0  0
    9.3917   -4.8667    0.0000 C   0  0  0  0  0  0  0  0  0  0  0  0
  2  3  1  0
  3  1  1  0
  4  1  2  0
  5  6  1  0
  6  4  1  0
  7 11  1  0
  8  3  1  0
  9  1  1  0
 10  2  1  0
 11 12  2  0
 12  8  1  0
 13  7  1  0
 14  7  2  0
 15 10  2  0
 16  9  2  0
 17 28  1  0
 18  9  1  0
 19 17  1  0
 20 10  1  0
 21  5  1  0
 22  4  1  0
 23  8  2  0
 24 19  1  0
 25 18  1  0
 26 27  2  0
 27 23  1  0
 28 25  1  0
 29 17  1  0
 30 20  1  0
 31 24  2  0
 32 24  1  0
 33 31  1  0
 34 32  2  0
 35 33  2  0
  5  2  2  0
 26 11  1  0
 35 34  1  0
M  CHG  2   7   1  13  -1
M  END
>  <Classification>  (733) 
1

>  <pchembl>  (733) 
5.64

>  <InChI_steorem>  (733) 
InChI=1S/C26H29N3O6/c1-17-22(25(30)34-4)24(20-11-8-12-21(15-20)29(32)33)23(18(2)27-17)26(31)35-14-13-28(3)16-19-9-6-5-7-10-19/h5-12,15,24,27H,13-14,16H2,1-4H3

>  <source>  (733) 
ChEMBL25

>  <source_id>  (733) 
25

>  <optional_reference>  (733) 
10.1021/jm021012t

>  <optional_origin>  (733) 
None

>  <target>  (733) 
MDR1

$$$$

     RDKit          2D

 19 20  0  0  0  0  0  0  0  0999 V2000
    0.9000   -3.2917    0.0000 C   0  0  0  0  0  0  0  0  0  0  0  0
    1.5167   -2.9375    0.0000 C   0  0  0  0  0  0  0  0  0  0  0  0
    1.5167   -2.2292    0.0000 O   0  0  0  0  0  0  0  0  0  0  0  0
    3.9708   -2.2292    0.0000 N   0  0  0  0  0  0  0  0  0  0  0  0
    0.9000   -4.0000    0.0000 C   0  0  0  0  0  0  0  0  0  0  0  0
    2.7458   -2.2292    0.0000 C   0  0  0  0  0  0  0  0  0  0  0  0
    2.1292   -1.8750    0.0000 C   0  0  0  0  0  0  0  0  0  0  0  0
    3.3583   -1.8750    0.0000 C   0  0  0  0  0  0  0  0  0  0  0  0
    2.7417   -2.9375    0.0000 O   0  0  0  0  0  0  0  0  0  0  0  0
    4.5833   -1.8750    0.0000 C   0  0  0  0  0  0  0  0  0  0  0  0
    2.1292   -4.0000    0.0000 C   0  0  0  0  0  0  0  0  0  0  0  0
    2.1292   -3.2917    0.0000 C   0  0  0  0  0  0  0  0  0  0  0  0
    0.2792   -2.9375    0.0000 C   0  0  0  0  0  0  0  0  0  0  0  0
    1.5167   -4.3542    0.0000 C   0  0  0  0  0  0  0  0  0  0  0  0
    0.2792   -4.3542    0.0000 C   0  0  0  0  0  0  0  0  0  0  0  0
    4.5875   -1.1667    0.0000 C   0  0  0  0  0  0  0  0  0  0  0  0
    5.2000   -2.2292    0.0000 C   0  0  0  0  0  0  0  0  0  0  0  0
   -0.3333   -3.2917    0.0000 C   0  0  0  0  0  0  0  0  0  0  0  0
   -0.3333   -4.0000    0.0000 C   0  0  0  0  0  0  0  0  0  0  0  0
  2  1  2  0
  3  2  1  0
  4  8  1  0
  5  1  1  0
  6  7  1  0
  7  3  1  0
  8  6  1  0
  9  6  1  0
 10  4  1  0
 11 14  1  0
 12  2  1  0
 13  1  1  0
 14  5  2  0
 15  5  1  0
 16 10  1  0
 17 10  1  0
 18 13  2  0
 19 15  2  0
 11 12  2  0
 18 19  1  0
M  END
>  <Classification>  (734) 
0

>  <pchembl>  (734) 
4.32

>  <InChI_steorem>  (734) 
InChI=1S/C16H21NO2/c1-12(2)17-10-14(18)11-19-16-9-5-7-13-6-3-4-8-15(13)16/h3-9,12,14,17-18H,10-11H2,1-2H3

>  <source>  (734) 
ChEMBL25

>  <source_id>  (734) 
25

>  <optional_reference>  (734) 
10.1021/jm020941h

>  <optional_origin>  (734) 
None

>  <target>  (734) 
MDR1

$$$$

     RDKit          2D

 25 26  0  0  0  0  0  0  0  0999 V2000
    2.4792   -5.4042    0.0000 C   0  0  0  0  0  0  0  0  0  0  0  0
    1.8667   -5.0750    0.0000 C   0  0  0  0  0  0  0  0  0  0  0  0
    3.0875   -5.0625    0.0000 C   0  0  0  0  0  0  0  0  0  0  0  0
    3.0875   -4.3542    0.0000 O   0  0  0  0  0  0  0  0  0  0  0  0
    1.8667   -4.3667    0.0000 O   0  0  0  0  0  0  0  0  0  0  0  0
    1.2667   -5.4292    0.0000 C   0  0  0  0  0  0  0  0  0  0  0  0
    3.7042   -3.9917    0.0000 C   0  0  0  0  0  0  0  0  0  0  0  0
    4.3375   -4.3542    0.0000 C   0  0  0  0  0  0  0  0  0  0  0  0
    0.6500   -5.0750    0.0000 C   0  0  0  0  0  0  0  0  0  0  0  0
    5.5417   -4.3542    0.0000 N   0  0  0  0  0  0  0  0  0  0  0  0
    0.0417   -5.4542    0.0000 C   0  0  0  0  0  0  0  0  0  0  0  0
    4.3375   -5.0625    0.0000 O   0  0  0  0  0  0  0  0  0  0  0  0
    2.4792   -6.1167    0.0000 C   0  0  0  0  0  0  0  0  0  0  0  0
    4.9167   -3.9917    0.0000 C   0  0  0  0  0  0  0  0  0  0  0  0
    3.7000   -5.4042    0.0000 C   0  0  0  0  0  0  0  0  0  0  0  0
    6.1667   -3.9917    0.0000 C   0  0  0  0  0  0  0  0  0  0  0  0
    0.0417   -6.1667    0.0000 C   0  0  0  0  0  0  0  0  0  0  0  0
   -0.5708   -5.1000    0.0000 C   0  0  0  0  0  0  0  0  0  0  0  0
    6.7792   -4.3542    0.0000 C   0  0  0  0  0  0  0  0  0  0  0  0
    3.0875   -6.4625    0.0000 C   0  0  0  0  0  0  0  0  0  0  0  0
    7.4000   -4.0042    0.0000 C   0  0  0  0  0  0  0  0  0  0  0  0
    3.7000   -6.1167    0.0000 C   0  0  0  0  0  0  0  0  0  0  0  0
   -1.1958   -5.4542    0.0000 C   0  0  0  0  0  0  0  0  0  0  0  0
   -0.5708   -6.5292    0.0000 C   0  0  0  0  0  0  0  0  0  0  0  0
   -1.1958   -6.1667    0.0000 C   0  0  0  0  0  0  0  0  0  0  0  0
  2  1  1  0
  3  1  2  0
  4  3  1  0
  5  2  2  0
  6  2  1  0
  7  4  1  0
  8  7  1  0
  9  6  1  0
 10 14  1  0
 11  9  1  0
 12  8  1  0
 13  1  1  0
 14  8  1  0
 15  3  1  0
 16 10  1  0
 17 11  2  0
 18 11  1  0
 19 16  1  0
 20 13  2  0
 21 19  1  0
 22 20  1  0
 23 18  2  0
 24 17  1  0
 25 24  2  0
 22 15  2  0
 25 23  1  0
M  END
>  <Classification>  (735) 
1

>  <pchembl>  (735) 
5.38

>  <InChI_steorem>  (735) 
InChI=1S/C21H27NO3/c1-2-14-22-15-18(23)16-25-21-11-7-6-10-19(21)20(24)13-12-17-8-4-3-5-9-17/h3-11,18,22-23H,2,12-16H2,1H3

>  <source>  (735) 
ChEMBL25

>  <source_id>  (735) 
25

>  <optional_reference>  (735) 
10.1021/jm020941h

>  <optional_origin>  (735) 
None

>  <target>  (735) 
MDR1

$$$$

     RDKit          2D

 27 30  0  0  0  0  0  0  0  0999 V2000
    4.9625   -4.3292    0.0000 N   0  0  0  0  0  0  0  0  0  0  0  0
    4.9625   -5.0250    0.0000 N   0  0  0  0  0  0  0  0  0  0  0  0
    4.3542   -3.9792    0.0000 C   0  0  0  0  0  0  0  0  0  0  0  0
    4.3542   -5.3667    0.0000 C   0  0  0  0  0  0  0  0  0  0  0  0
    3.7417   -4.3292    0.0000 C   0  0  0  0  0  0  0  0  0  0  0  0
    3.7417   -5.0250    0.0000 C   0  0  0  0  0  0  0  0  0  0  0  0
    5.7417   -3.9417    0.0000 C   0  0  0  0  0  0  0  0  0  0  0  0
    6.7417   -2.7667    0.0000 N   0  0  0  0  0  0  0  0  0  0  0  0
    4.3625   -3.3250    0.0000 O   0  0  0  0  0  0  0  0  0  0  0  0
    4.3542   -6.0875    0.0000 C   0  0  0  0  0  0  0  0  0  0  0  0
    5.6292   -3.2500    0.0000 C   0  0  0  0  0  0  0  0  0  0  0  0
    6.0042   -2.7542    0.0000 C   0  0  0  0  0  0  0  0  0  0  0  0
    4.9625   -6.4417    0.0000 C   0  0  0  0  0  0  0  0  0  0  0  0
    6.1917   -7.1417    0.0000 C   0  0  0  0  0  0  0  0  0  0  0  0
    6.8542   -7.5000    0.0000 Cl  0  0  0  0  0  0  0  0  0  0  0  0
    3.1292   -3.9792    0.0000 C   0  0  0  0  0  0  0  0  0  0  0  0
    4.9625   -7.1417    0.0000 C   0  0  0  0  0  0  0  0  0  0  0  0
    5.5875   -6.0875    0.0000 C   0  0  0  0  0  0  0  0  0  0  0  0
    6.1917   -6.4292    0.0000 C   0  0  0  0  0  0  0  0  0  0  0  0
    5.5875   -7.4917    0.0000 C   0  0  0  0  0  0  0  0  0  0  0  0
    7.1792   -3.3250    0.0000 C   0  0  0  0  0  0  0  0  0  0  0  0
    3.1292   -5.3667    0.0000 C   0  0  0  0  0  0  0  0  0  0  0  0
    7.2042   -2.1542    0.0000 C   0  0  0  0  0  0  0  0  0  0  0  0
    7.0417   -3.9667    0.0000 C   0  0  0  0  0  0  0  0  0  0  0  0
    6.3542   -4.2792    0.0000 C   0  0  0  0  0  0  0  0  0  0  0  0
    2.5167   -4.3292    0.0000 C   0  0  0  0  0  0  0  0  0  0  0  0
    2.5167   -5.0250    0.0000 C   0  0  0  0  0  0  0  0  0  0  0  0
  2  1  1  0
  3  1  1  0
  4  2  2  0
  5  3  1  0
  6  5  2  0
  7  1  1  0
  8 12  1  0
  9  3  2  0
 10  4  1  0
 11  7  1  0
 12 11  1  0
 13 10  1  0
 14 20  2  0
 15 14  1  0
 16  5  1  0
 17 13  2  0
 18 13  1  0
 19 18  2  0
 20 17  1  0
 21 24  1  0
 22  6  1  0
 23  8  1  0
 24 25  1  0
 25  7  1  0
 26 16  2  0
 27 26  1  0
  4  6  1  0
  8 21  1  0
 27 22  2  0
 14 19  1  0
M  END
>  <Classification>  (736) 
0

>  <pchembl>  (736) 
4.52

>  <InChI_steorem>  (736) 
InChI=1S/C22H24ClN3O/c1-25-13-4-5-18(12-14-25)26-22(27)20-7-3-2-6-19(20)21(24-26)15-16-8-10-17(23)11-9-16/h2-3,6-11,18H,4-5,12-15H2,1H3

>  <source>  (736) 
ChEMBL25

>  <source_id>  (736) 
25

>  <optional_reference>  (736) 
10.1016/s0928-0987(00)00215-3

>  <optional_origin>  (736) 
None

>  <target>  (736) 
MDR1

$$$$

     RDKit          2D

 28 30  0  0  0  0  0  0  0  0999 V2000
   -3.1458  -13.6542    0.0000 C   0  0  0  0  0  0  0  0  0  0  0  0
   -3.7750  -13.3125    0.0000 C   0  0  0  0  0  0  0  0  0  0  0  0
   -2.5458  -13.3042    0.0000 C   0  0  0  0  0  0  0  0  0  0  0  0
   -3.1458  -14.3667    0.0000 C   0  0  0  0  0  0  0  0  0  0  0  0
   -3.7750  -12.5917    0.0000 C   0  0  0  0  0  0  0  0  0  0  0  0
   -1.9208  -13.6500    0.0000 C   0  0  0  0  0  0  0  0  0  0  0  0
   -2.5458  -12.5917    0.0000 C   0  0  0  0  0  0  0  0  0  0  0  0
    1.1417  -12.5792    0.0000 N   0  0  0  0  0  0  0  0  0  0  0  0
   -1.3208  -12.5917    0.0000 C   0  0  0  0  0  0  0  0  0  0  0  0
   -1.3083  -13.3042    0.0000 C   0  0  0  0  0  0  0  0  0  0  0  0
   -1.9250  -12.2375    0.0000 C   0  0  0  0  0  0  0  0  0  0  0  0
   -4.3750  -13.6667    0.0000 C   0  0  0  0  0  0  0  0  0  0  0  0
   -0.7083  -12.2375    0.0000 O   0  0  0  0  0  0  0  0  0  0  0  0
   -0.0875  -12.5792    0.0000 C   0  0  0  0  0  0  0  0  0  0  0  0
    0.5167  -12.2167    0.0000 C   0  0  0  0  0  0  0  0  0  0  0  0
   -3.7625  -14.7292    0.0000 C   0  0  0  0  0  0  0  0  0  0  0  0
   -4.3958  -12.2417    0.0000 C   0  0  0  0  0  0  0  0  0  0  0  0
   -3.1583  -12.2375    0.0000 C   0  0  0  0  0  0  0  0  0  0  0  0
   -2.5333  -14.7250    0.0000 C   0  0  0  0  0  0  0  0  0  0  0  0
    1.1500  -13.2792    0.0000 C   0  0  0  0  0  0  0  0  0  0  0  0
    1.7500  -12.2083    0.0000 C   0  0  0  0  0  0  0  0  0  0  0  0
   -5.0083  -13.3417    0.0000 C   0  0  0  0  0  0  0  0  0  0  0  0
   -3.7583  -15.4417    0.0000 C   0  0  0  0  0  0  0  0  0  0  0  0
   -4.3833  -11.5542    0.0000 C   0  0  0  0  0  0  0  0  0  0  0  0
   -3.1500  -11.5500    0.0000 C   0  0  0  0  0  0  0  0  0  0  0  0
   -2.5250  -15.4375    0.0000 C   0  0  0  0  0  0  0  0  0  0  0  0
   -3.1500  -15.7917    0.0000 C   0  0  0  0  0  0  0  0  0  0  0  0
   -3.7833  -11.1917    0.0000 C   0  0  0  0  0  0  0  0  0  0  0  0
  2  1  2  3
  3  1  1  0
  4  1  1  0
  5  2  1  0
  6  3  2  0
  7  3  1  0
  8 15  1  0
  9 11  1  0
 10  6  1  0
 11  7  2  0
 12  2  1  0
 13  9  1  0
 14 13  1  0
 15 14  1  0
 16  4  2  0
 17  5  2  0
 18  5  1  0
 19  4  1  0
 20  8  1  0
 21  8  1  0
 22 12  1  0
 23 16  1  0
 24 17  1  0
 25 18  2  0
 26 19  2  0
 27 26  1  0
 28 25  1  0
  9 10  2  0
 27 23  2  0
 28 24  2  0
M  END
>  <Classification>  (737) 
1

>  <pchembl>  (737) 
7.0

>  <InChI_steorem>  (737) 
InChI=1S/C26H29NO/c1-4-25(21-11-7-5-8-12-21)26(22-13-9-6-10-14-22)23-15-17-24(18-16-23)28-20-19-27(2)3/h5-18H,4,19-20H2,1-3H3

>  <source>  (737) 
ChEMBL25

>  <source_id>  (737) 
25

>  <optional_reference>  (737) 
10.1021/jm020941h

>  <optional_origin>  (737) 
None

>  <target>  (737) 
MDR1

$$$$

     RDKit          2D

 30 33  0  0  0  0  0  0  0  0999 V2000
    3.7875   -1.7542    0.0000 N   0  0  0  0  0  0  0  0  0  0  0  0
    3.1792   -1.3917    0.0000 C   0  0  0  0  0  0  0  0  0  0  0  0
    3.7875   -0.3250    0.0000 S   0  0  0  0  0  0  0  0  0  0  0  0
    1.3375   -1.7500    0.0000 C   0  0  0  0  0  0  0  0  0  0  0  0
    3.1750   -0.6792    0.0000 C   0  0  0  0  0  0  0  0  0  0  0  0
    4.4167   -1.4000    0.0000 C   0  0  0  0  0  0  0  0  0  0  0  0
    4.4125   -0.6875    0.0000 C   0  0  0  0  0  0  0  0  0  0  0  0
    2.5542   -1.7500    0.0000 C   0  0  0  0  0  0  0  0  0  0  0  0
    1.9417   -1.3917    0.0000 C   0  0  0  0  0  0  0  0  0  0  0  0
    2.5667   -3.8750    0.0000 N   0  0  0  0  0  0  0  0  0  0  0  0
    1.3292   -4.5875    0.0000 N   0  0  0  0  0  0  0  0  0  0  0  0
    2.5750   -0.3292    0.0000 C   0  0  0  0  0  0  0  0  0  0  0  0
    1.9375   -0.6875    0.0000 C   0  0  0  0  0  0  0  0  0  0  0  0
    0.7208   -1.3958    0.0000 F   0  0  0  0  0  0  0  0  0  0  0  0
    1.6875   -2.3625    0.0000 F   0  0  0  0  0  0  0  0  0  0  0  0
    0.9792   -2.3625    0.0000 F   0  0  0  0  0  0  0  0  0  0  0  0
    3.7875   -2.4667    0.0000 C   0  0  0  0  0  0  0  0  0  0  0  0
    1.9500   -3.5167    0.0000 C   0  0  0  0  0  0  0  0  0  0  0  0
    2.5542   -4.5917    0.0000 C   0  0  0  0  0  0  0  0  0  0  0  0
    1.3292   -3.8667    0.0000 C   0  0  0  0  0  0  0  0  0  0  0  0
    1.9417   -4.9417    0.0000 C   0  0  0  0  0  0  0  0  0  0  0  0
    3.1667   -2.8250    0.0000 C   0  0  0  0  0  0  0  0  0  0  0  0
    3.1667   -3.5250    0.0000 C   0  0  0  0  0  0  0  0  0  0  0  0
    5.0292   -1.7542    0.0000 C   0  0  0  0  0  0  0  0  0  0  0  0
    0.7042   -4.9542    0.0000 C   0  0  0  0  0  0  0  0  0  0  0  0
    5.0250   -0.3250    0.0000 C   0  0  0  0  0  0  0  0  0  0  0  0
   -0.5333   -4.9417    0.0000 O   0  0  0  0  0  0  0  0  0  0  0  0
    0.0917   -4.5917    0.0000 C   0  0  0  0  0  0  0  0  0  0  0  0
    5.6500   -1.3917    0.0000 C   0  0  0  0  0  0  0  0  0  0  0  0
    5.6500   -0.6792    0.0000 C   0  0  0  0  0  0  0  0  0  0  0  0
  2  1  1  0
  3  5  1  0
  4  9  1  0
  5  2  2  0
  6  1  1  0
  7  6  2  0
  8  2  1  0
  9  8  2  0
 10 23  1  0
 11 20  1  0
 12  5  1  0
 13  9  1  0
 14  4  1  0
 15  4  1  0
 16  4  1  0
 17  1  1  0
 18 10  1  0
 19 10  1  0
 20 18  1  0
 21 19  1  0
 22 17  1  0
 23 22  1  0
 24  6  1  0
 25 11  1  0
 26  7  1  0
 27 28  1  0
 28 25  1  0
 29 24  2  0
 30 29  1  0
  7  3  1  0
 12 13  2  0
 26 30  2  0
 21 11  1  0
M  END
>  <Classification>  (738) 
0

>  <pchembl>  (738) 
4.98

>  <InChI_steorem>  (738) 
InChI=1S/C22H26F3N3OS/c23-22(24,25)17-6-7-21-19(16-17)28(18-4-1-2-5-20(18)30-21)9-3-8-26-10-12-27(13-11-26)14-15-29/h1-2,4-7,16,29H,3,8-15H2

>  <source>  (738) 
ChEMBL25

>  <source_id>  (738) 
25

>  <optional_reference>  (738) 
10.1006/bbrc.2001.6000

>  <optional_origin>  (738) 
None

>  <target>  (738) 
MDR1

$$$$

     RDKit          2D

 34 37  0  0  0  0  0  0  0  0999 V2000
    8.2625   -0.7875    0.0000 C   0  0  0  0  0  0  0  0  0  0  0  0
    7.5500   -1.2042    0.0000 C   0  0  0  0  0  0  0  0  0  0  0  0
    4.4875   -2.2667    0.0000 C   0  0  0  0  0  0  0  0  0  0  0  0
    5.7083   -1.5625    0.0000 N   0  0  0  0  0  0  0  0  0  0  0  0
    6.9375   -1.5625    0.0000 C   0  0  0  0  0  0  0  0  0  0  0  0
    8.8792   -1.1333    0.0000 N   0  0  0  0  0  0  0  0  0  0  0  0
    5.0958   -2.6250    0.0000 C   0  0  0  0  0  0  0  0  0  0  0  0
    4.4875   -1.5625    0.0000 C   0  0  0  0  0  0  0  0  0  0  0  0
    4.1292   -2.8792    0.0000 C   0  0  0  0  0  0  0  0  0  0  0  0
    8.2542   -0.0792    0.0000 O   0  0  0  0  0  0  0  0  0  0  0  0
    7.9000   -1.8167    0.0000 C   0  0  0  0  0  0  0  0  0  0  0  0
    7.1917   -0.5875    0.0000 C   0  0  0  0  0  0  0  0  0  0  0  0
    6.3208   -1.2083    0.0000 C   0  0  0  0  0  0  0  0  0  0  0  0
    5.7083   -2.2667    0.0000 C   0  0  0  0  0  0  0  0  0  0  0  0
    5.0958   -1.2042    0.0000 C   0  0  0  0  0  0  0  0  0  0  0  0
    3.4167   -2.8750    0.0000 C   0  0  0  0  0  0  0  0  0  0  0  0
    4.4792   -3.4917    0.0000 C   0  0  0  0  0  0  0  0  0  0  0  0
    3.7792   -2.2667    0.0000 O   0  0  0  0  0  0  0  0  0  0  0  0
    3.4083   -4.1042    0.0000 C   0  0  0  0  0  0  0  0  0  0  0  0
    4.1250   -4.1042    0.0000 C   0  0  0  0  0  0  0  0  0  0  0  0
    3.0583   -3.4875    0.0000 C   0  0  0  0  0  0  0  0  0  0  0  0
    3.0542   -4.7167    0.0000 Cl  0  0  0  0  0  0  0  0  0  0  0  0
    8.8833   -1.8417    0.0000 C   0  0  0  0  0  0  0  0  0  0  0  0
    9.4875   -0.7708    0.0000 C   0  0  0  0  0  0  0  0  0  0  0  0
    7.5500    0.0333    0.0000 C   0  0  0  0  0  0  0  0  0  0  0  0
    6.4750   -0.5875    0.0000 C   0  0  0  0  0  0  0  0  0  0  0  0
    7.5417   -2.4208    0.0000 C   0  0  0  0  0  0  0  0  0  0  0  0
    8.5958   -1.8167    0.0000 C   0  0  0  0  0  0  0  0  0  0  0  0
    6.1167    0.0292    0.0000 C   0  0  0  0  0  0  0  0  0  0  0  0
    7.8917   -3.0292    0.0000 C   0  0  0  0  0  0  0  0  0  0  0  0
    8.9458   -2.4208    0.0000 C   0  0  0  0  0  0  0  0  0  0  0  0
    7.1917    0.6542    0.0000 C   0  0  0  0  0  0  0  0  0  0  0  0
    6.4750    0.6542    0.0000 C   0  0  0  0  0  0  0  0  0  0  0  0
    8.5917   -3.0333    0.0000 C   0  0  0  0  0  0  0  0  0  0  0  0
  2  1  1  0
  3  8  1  0
  4 13  1  0
  5  2  1  0
  6  1  1  0
  7 14  1  0
  8 15  1  0
  9  3  1  0
 10  1  2  0
 11  2  1  0
 12  2  1  0
 13  5  1  0
 14  4  1  0
 15  4  1  0
 16  9  2  0
 17  9  1  0
 18  3  1  0
 19 20  1  0
 20 17  2  0
 21 16  1  0
 22 19  1  0
 23  6  1  0
 24  6  1  0
 25 12  2  0
 26 12  1  0
 27 11  2  0
 28 11  1  0
 29 26  2  0
 30 27  1  0
 31 28  2  0
 32 25  1  0
 33 32  2  0
 34 31  1  0
 34 30  2  0
 29 33  1  0
  7  3  1  0
 19 21  2  0
M  END
>  <Classification>  (739) 
1

>  <pchembl>  (739) 
5.6

>  <InChI_steorem>  (739) 
InChI=1S/C29H33ClN2O2/c1-31(2)27(33)29(24-9-5-3-6-10-24,25-11-7-4-8-12-25)19-22-32-20-17-28(34,18-21-32)23-13-15-26(30)16-14-23/h3-16,34H,17-22H2,1-2H3

>  <source>  (739) 
ChEMBL25

>  <source_id>  (739) 
25

>  <optional_reference>  (739) 
10.1097/00000542-200204000-00019

>  <optional_origin>  (739) 
None

>  <target>  (739) 
MDR1

$$$$

     RDKit          2D

 35 39  0  0  0  0  0  0  0  0999 V2000
   -0.3208    1.2250    0.0000 N   0  0  0  0  0  0  0  0  0  0  0  0
   -1.0833    0.7750    0.0000 C   0  0  0  0  0  0  0  0  0  0  0  0
   -1.8750    1.2250    0.0000 C   0  0  0  0  0  0  0  0  0  0  0  0
    1.3417   -1.9375    0.0000 C   0  0  0  0  0  0  0  0  0  0  0  0
   -1.8750    2.1458    0.0000 C   0  0  0  0  0  0  0  0  0  0  0  0
   -1.0958   -0.1250    0.0000 C   0  0  0  0  0  0  0  0  0  0  0  0
   -2.6583    0.7833    0.0000 C   0  0  0  0  0  0  0  0  0  0  0  0
    0.4292   -1.9292    0.0000 C   0  0  0  0  0  0  0  0  0  0  0  0
    1.8000   -1.1542    0.0000 C   0  0  0  0  0  0  0  0  0  0  0  0
   -0.3333   -0.5667    0.0000 C   0  0  0  0  0  0  0  0  0  0  0  0
    1.7792   -2.7167    0.0000 C   0  0  0  0  0  0  0  0  0  0  0  0
    0.4625    0.7708    0.0000 C   0  0  0  0  0  0  0  0  0  0  0  0
   -3.4458    1.2333    0.0000 C   0  0  0  0  0  0  0  0  0  0  0  0
    2.7000   -1.1667    0.0000 C   0  0  0  0  0  0  0  0  0  0  0  0
   -0.3333   -1.4667    0.0000 C   0  0  0  0  0  0  0  0  0  0  0  0
   -2.6708    2.6000    0.0000 C   0  0  0  0  0  0  0  0  0  0  0  0
    2.6917   -2.7375    0.0000 C   0  0  0  0  0  0  0  0  0  0  0  0
   -3.4500    2.1458    0.0000 C   0  0  0  0  0  0  0  0  0  0  0  0
    3.1417   -1.9542    0.0000 C   0  0  0  0  0  0  0  0  0  0  0  0
   -0.0208   -2.7042    0.0000 N   0  0  0  0  0  0  0  0  0  0  0  0
    0.4625   -0.1250    0.0000 C   0  0  0  0  0  0  0  0  0  0  0  0
   -0.3208    2.1333    0.0000 C   0  0  0  0  0  0  0  0  0  0  0  0
   -1.1083    2.5833    0.0000 C   0  0  0  0  0  0  0  0  0  0  0  0
    0.4167   -3.5000    0.0000 C   0  0  0  0  0  0  0  0  0  0  0  0
   -4.2333    0.7833    0.0000 O   0  0  0  0  0  0  0  0  0  0  0  0
    3.1625   -0.3917    0.0000 O   0  0  0  0  0  0  0  0  0  0  0  0
   -4.2333    2.5958    0.0000 O   0  0  0  0  0  0  0  0  0  0  0  0
    4.0500   -1.9667    0.0000 O   0  0  0  0  0  0  0  0  0  0  0  0
    1.3250   -3.5000    0.0000 C   0  0  0  0  0  0  0  0  0  0  0  0
    1.2417   -0.5542    0.0000 C   0  0  0  0  0  0  0  0  0  0  0  0
   -4.2458    3.5083    0.0000 C   0  0  0  0  0  0  0  0  0  0  0  0
   -4.2333   -0.1167    0.0000 C   0  0  0  0  0  0  0  0  0  0  0  0
    4.0500   -0.5667    0.0000 C   0  0  0  0  0  0  0  0  0  0  0  0
    4.3417   -2.8167    0.0000 C   0  0  0  0  0  0  0  0  0  0  0  0
    2.0292   -0.1167    0.0000 C   0  0  0  0  0  0  0  0  0  0  0  0
  2  1  1  0
  3  2  1  0
  4  8  1  0
  5 23  1  0
  6  2  1  0
  7  3  2  0
  8 15  1  0
  9  4  2  0
 10 21  1  0
 11  4  1  0
 12  1  1  0
 13  7  1  0
 14  9  1  0
 10 15  1  0
 16  5  2  0
 17 11  2  0
 18 16  1  0
 19 17  1  0
 20  8  1  0
 21 12  1  0
 22  1  1  0
 23 22  1  0
 24 20  1  0
 25 13  1  0
 26 14  1  0
 27 18  1  0
 28 19  1  0
 29 24  1  0
 21 30  1  0
 31 27  1  0
 32 25  1  0
 33 26  1  0
 34 28  1  0
 35 30  1  0
  3  5  1  0
  6 10  1  0
 13 18  2  0
 11 29  1  0
 14 19  2  0
M  END
>  <Classification>  (740) 
1

>  <pchembl>  (740) 
5.02

>  <InChI_steorem>  (740) 
InChI=1S/C29H40N2O4/c1-6-18-17-31-10-8-20-14-27(33-3)29(35-5)16-23(20)25(31)12-21(18)11-24-22-15-28(34-4)26(32-2)13-19(22)7-9-30-24/h13-16,18,21,24-25,30H,6-12,17H2,1-5H3

>  <source>  (740) 
ChEMBL25

>  <source_id>  (740) 
25

>  <optional_reference>  (740) 
10.1006/bbrc.2001.6000

>  <optional_origin>  (740) 
None

>  <target>  (740) 
MDR1

$$$$

     RDKit          2D

 31 33  0  0  0  0  0  0  0  0999 V2000
   -0.0097    0.7077    0.0000 C   0  0  0  0  0  0  0  0  0  0  0  0
    0.4799    1.3767    0.0000 C   0  0  0  0  0  0  0  0  0  0  0  0
   -0.0097   -0.1212    0.0000 C   0  0  0  0  0  0  0  0  0  0  0  0
   -0.0097    2.0457    0.0000 O   0  0  0  0  0  0  0  0  0  0  0  0
    0.6981   -0.5381    0.0000 C   0  0  0  0  0  0  0  0  0  0  0  0
   -0.7950    0.9550    0.0000 C   0  0  0  0  0  0  0  0  0  0  0  0
   -0.7950    1.7839    0.0000 C   0  0  0  0  0  0  0  0  0  0  0  0
    2.1136   -1.3719    0.0000 C   0  0  0  0  0  0  0  0  0  0  0  0
    1.3865   -1.7791    0.0000 C   0  0  0  0  0  0  0  0  0  0  0  0
    2.1136   -0.5430    0.0000 C   0  0  0  0  0  0  0  0  0  0  0  0
    0.6835   -1.3574    0.0000 C   0  0  0  0  0  0  0  0  0  0  0  0
    1.4107   -0.1309    0.0000 C   0  0  0  0  0  0  0  0  0  0  0  0
    4.9641   -1.4010    0.0000 N   0  0  0  0  0  0  0  0  0  0  0  0
   -0.7368   -0.5236    0.0000 O   0  0  0  0  0  0  0  0  0  0  0  0
    1.3865   -2.6032    0.0000 I   0  0  0  0  0  0  0  0  0  0  0  0
    2.8359   -0.1358    0.0000 I   0  0  0  0  0  0  0  0  0  0  0  0
    2.8214   -1.7937    0.0000 O   0  0  0  0  0  0  0  0  0  0  0  0
    1.2992    1.3816    0.0000 C   0  0  0  0  0  0  0  0  0  0  0  0
    4.2515   -1.8082    0.0000 C   0  0  0  0  0  0  0  0  0  0  0  0
    3.5389   -1.3865    0.0000 C   0  0  0  0  0  0  0  0  0  0  0  0
   -1.5076    0.5381    0.0000 C   0  0  0  0  0  0  0  0  0  0  0  0
   -1.5076    2.1911    0.0000 C   0  0  0  0  0  0  0  0  0  0  0  0
    5.6767   -1.8179    0.0000 C   0  0  0  0  0  0  0  0  0  0  0  0
    4.9738   -0.5721    0.0000 C   0  0  0  0  0  0  0  0  0  0  0  0
    1.7064    2.1039    0.0000 C   0  0  0  0  0  0  0  0  0  0  0  0
    2.5354    2.1039    0.0000 C   0  0  0  0  0  0  0  0  0  0  0  0
    6.3893   -1.4156    0.0000 C   0  0  0  0  0  0  0  0  0  0  0  0
    5.6913   -0.1745    0.0000 C   0  0  0  0  0  0  0  0  0  0  0  0
   -2.2202    0.9550    0.0000 C   0  0  0  0  0  0  0  0  0  0  0  0
   -2.2202    1.7743    0.0000 C   0  0  0  0  0  0  0  0  0  0  0  0
    2.9426    2.8214    0.0000 C   0  0  0  0  0  0  0  0  0  0  0  0
  2  1  2  0
  3  1  1  0
  4  2  1  0
  5  3  1  0
  6  1  1  0
  7  6  2  0
  8 10  2  0
  9 11  2  0
 10 12  1  0
 11  5  1  0
 12  5  2  0
 13 19  1  0
 14  3  2  0
 15  9  1  0
 16 10  1  0
 17  8  1  0
 18  2  1  0
 19 20  1  0
 20 17  1  0
 21  6  1  0
 22  7  1  0
 23 13  1  0
 24 13  1  0
 25 18  1  0
 26 25  1  0
 27 23  1  0
 28 24  1  0
 29 21  2  0
 30 29  1  0
 31 26  1  0
  7  4  1  0
 30 22  2  0
  8  9  1  0
M  END
>  <Classification>  (741) 
1

>  <pchembl>  (741) 
5.5

>  <InChI_steorem>  (741) 
InChI=1S/C25H29I2NO3/c1-4-7-11-22-23(18-10-8-9-12-21(18)31-22)24(29)17-15-19(26)25(20(27)16-17)30-14-13-28(5-2)6-3/h8-10,12,15-16H,4-7,11,13-14H2,1-3H3

>  <source>  (741) 
ChEMBL25

>  <source_id>  (741) 
25

>  <optional_reference>  (741) 
10.1021/jm020941h

>  <optional_origin>  (741) 
None

>  <target>  (741) 
MDR1

$$$$

     RDKit          2D

 38 42  0  0  0  0  0  0  0  0999 V2000
    1.8292   -5.7500    0.0000 C   0  0  0  0  0  0  0  0  0  0  0  0
    1.8250   -6.4583    0.0000 C   0  0  0  0  0  0  0  0  0  0  0  0
    1.2125   -6.8167    0.0000 C   0  0  0  0  0  0  0  0  0  0  0  0
    1.2125   -5.3917    0.0000 C   0  0  0  0  0  0  0  0  0  0  0  0
    3.0542   -6.4625    0.0000 C   0  0  0  0  0  0  0  0  0  0  0  0
    3.0542   -5.7500    0.0000 C   0  0  0  0  0  0  0  0  0  0  0  0
    0.6000   -6.4625    0.0000 C   0  0  0  0  0  0  0  0  0  0  0  0
    2.4417   -5.4000    0.0000 C   0  0  0  0  0  0  0  0  0  0  0  0
    2.4375   -6.8167    0.0000 C   0  0  0  0  0  0  0  0  0  0  0  0
    0.6000   -5.7500    0.0000 C   0  0  0  0  0  0  0  0  0  0  0  0
    4.2792   -5.7542    0.0000 C   0  0  0  0  0  0  0  0  0  0  0  0
    3.6625   -6.8125    0.0000 C   0  0  0  0  0  0  0  0  0  0  0  0
    3.6625   -5.3958    0.0000 C   0  0  0  0  0  0  0  0  0  0  0  0
    3.1667   -8.7292    0.0000 C   0  0  0  0  0  0  0  0  0  0  0  0
    2.8167   -8.1167    0.0000 O   0  0  0  0  0  0  0  0  0  0  0  0
    4.2750   -6.4625    0.0000 C   0  0  0  0  0  0  0  0  0  0  0  0
    2.8167   -9.3417    0.0000 C   0  0  0  0  0  0  0  0  0  0  0  0
    1.7500   -8.7292    0.0000 C   0  0  0  0  0  0  0  0  0  0  0  0
    2.1042   -9.3417    0.0000 C   0  0  0  0  0  0  0  0  0  0  0  0
    2.1042   -8.1167    0.0000 C   0  0  0  0  0  0  0  0  0  0  0  0
    3.6542   -7.5167    0.0000 O   0  0  0  0  0  0  0  0  0  0  0  0
    4.8917   -5.3917    0.0000 C   0  0  0  0  0  0  0  0  0  0  0  0
    1.2125   -4.6833    0.0000 O   0  0  0  0  0  0  0  0  0  0  0  0
    1.2125   -7.5250    0.0000 O   0  0  0  0  0  0  0  0  0  0  0  0
   -0.0125   -6.8167    0.0000 C   0  0  0  0  0  0  0  0  0  0  0  0
    4.8833   -4.6875    0.0000 O   0  0  0  0  0  0  0  0  0  0  0  0
    2.4417   -4.6917    0.0000 O   0  0  0  0  0  0  0  0  0  0  0  0
    2.4333   -7.5250    0.0000 O   0  0  0  0  0  0  0  0  0  0  0  0
    4.8917   -6.1042    0.0000 O   0  0  0  0  0  0  0  0  0  0  0  0
    1.7542   -9.9542    0.0000 N   0  0  0  0  0  0  0  0  0  0  0  0
    1.0417   -8.7292    0.0000 O   0  0  0  0  0  0  0  0  0  0  0  0
   -0.0125   -5.3958    0.0000 C   0  0  0  0  0  0  0  0  0  0  0  0
   -0.0083   -7.5250    0.0000 O   0  0  0  0  0  0  0  0  0  0  0  0
    1.7542   -7.5000    0.0000 C   0  0  0  0  0  0  0  0  0  0  0  0
   -0.6250   -5.7500    0.0000 C   0  0  0  0  0  0  0  0  0  0  0  0
   -0.6250   -6.4625    0.0000 C   0  0  0  0  0  0  0  0  0  0  0  0
    5.5042   -5.7417    0.0000 C   0  0  0  0  0  0  0  0  0  0  0  0
   -0.6208   -7.8833    0.0000 C   0  0  0  0  0  0  0  0  0  0  0  0
  2  1  2  0
  3  2  1  0
  4  1  1  0
  5  6  1  0
  6  8  2  0
  7  3  1  0
  8  1  1  0
  9  2  1  0
 10  4  1  0
 11 13  1  0
 12  5  1  0
 13  6  1  0
 14 21  1  0
 15 14  1  0
 16 11  1  0
 17 14  1  0
 18 20  1  0
 19 17  1  0
 20 15  1  0
 12 21  1  0
 22 11  1  0
 23  4  2  0
 24  3  2  0
 25  7  2  0
 26 22  2  0
 27  8  1  0
 28  9  1  0
 11 29  1  0
 19 30  1  0
 18 31  1  0
 32 10  2  0
 33 25  1  0
 20 34  1  0
 35 32  1  0
 36 25  1  0
 37 22  1  0
 38 33  1  0
  5  9  2  0
  7 10  1  0
 16 12  1  0
 36 35  2  0
 18 19  1  0
M  END
>  <Classification>  (742) 
1

>  <pchembl>  (742) 
5.6

>  <InChI_steorem>  (742) 
InChI=1S/C27H29NO10/c1-10-22(30)14(28)7-17(37-10)38-16-9-27(35,11(2)29)8-13-19(16)26(34)21-20(24(13)32)23(31)12-5-4-6-15(36-3)18(12)25(21)33/h4-6,10,14,16-17,22,30,32,34-35H,7-9,28H2,1-3H3

>  <source>  (742) 
ChEMBL25

>  <source_id>  (742) 
25

>  <optional_reference>  (742) 
10.1023/a:1011076217118

>  <optional_origin>  (742) 
None

>  <target>  (742) 
MDR1

$$$$

     RDKit          2D

 20 22  0  0  0  0  0  0  0  0999 V2000
    3.9417   -5.7417    0.0000 C   0  0  0  0  0  0  0  0  0  0  0  0
    4.5542   -6.0917    0.0000 C   0  0  0  0  0  0  0  0  0  0  0  0
    4.5542   -6.7792    0.0000 C   0  0  0  0  0  0  0  0  0  0  0  0
    3.9417   -5.0375    0.0000 C   0  0  0  0  0  0  0  0  0  0  0  0
    5.1667   -7.1417    0.0000 C   0  0  0  0  0  0  0  0  0  0  0  0
    5.1667   -7.8375    0.0000 C   0  0  0  0  0  0  0  0  0  0  0  0
    5.1750   -5.7417    0.0000 C   0  0  0  0  0  0  0  0  0  0  0  0
    4.5542   -4.6917    0.0000 C   0  0  0  0  0  0  0  0  0  0  0  0
    4.5417   -8.1917    0.0000 C   0  0  0  0  0  0  0  0  0  0  0  0
    3.9750   -7.1250    0.0000 C   0  0  0  0  0  0  0  0  0  0  0  0
    5.1750   -5.0375    0.0000 C   0  0  0  0  0  0  0  0  0  0  0  0
    3.9750   -7.8125    0.0000 C   0  0  0  0  0  0  0  0  0  0  0  0
    4.5542   -3.9167    0.0000 N   0  0  0  0  0  0  0  0  0  0  0  0
    5.7500   -8.1917    0.0000 Cl  0  0  0  0  0  0  0  0  0  0  0  0
    4.5417   -8.9417    0.0000 Cl  0  0  0  0  0  0  0  0  0  0  0  0
    3.3167   -6.0917    0.0000 C   0  0  0  0  0  0  0  0  0  0  0  0
    3.3167   -4.6917    0.0000 C   0  0  0  0  0  0  0  0  0  0  0  0
    5.1750   -3.5500    0.0000 C   0  0  0  0  0  0  0  0  0  0  0  0
    2.7042   -5.7417    0.0000 C   0  0  0  0  0  0  0  0  0  0  0  0
    2.7042   -5.0375    0.0000 C   0  0  0  0  0  0  0  0  0  0  0  0
  2  1  1  0
  2  3  1  0
  4  1  2  0
  5  3  2  0
  6  5  1  0
  7  2  1  0
  8  4  1  0
  9 12  1  0
 10  3  1  0
 11  8  1  0
 12 10  2  0
  8 13  1  0
 14  6  1  0
 15  9  1  0
 16  1  1  0
 17  4  1  0
 18 13  1  0
 19 16  2  0
 20 19  1  0
 20 17  2  0
 11  7  1  0
  9  6  2  0
M  END
>  <Classification>  (743) 
0

>  <pchembl>  (743) 
4.5

>  <InChI_steorem>  (743) 
InChI=1S/C17H17Cl2N/c1-20-17-9-7-12(13-4-2-3-5-14(13)17)11-6-8-15(18)16(19)10-11/h2-6,8,10,12,17,20H,7,9H2,1H3

>  <source>  (743) 
ChEMBL25

>  <source_id>  (743) 
25

>  <optional_reference>  (743) 
10.1124/jpet.102.046532

>  <optional_origin>  (743) 
None

>  <target>  (743) 
MDR1

$$$$

     RDKit          2D

 23 24  0  0  0  0  0  0  0  0999 V2000
   -1.3833   -0.6417    0.0000 C   0  0  0  0  0  0  0  0  0  0  0  0
   -1.7458   -0.0250    0.0000 C   0  0  0  0  0  0  0  0  0  0  0  0
   -1.0333   -0.0250    0.0000 C   0  0  0  0  0  0  0  0  0  0  0  0
   -2.4500   -0.0250    0.0000 C   0  0  0  0  0  0  0  0  0  0  0  0
   -0.7708   -0.9917    0.0000 C   0  0  0  0  0  0  0  0  0  0  0  0
   -1.9958   -1.0000    0.0000 C   0  0  0  0  0  0  0  0  0  0  0  0
   -2.8083    0.5875    0.0000 N   0  0  0  0  0  0  0  0  0  0  0  0
   -1.3958    0.5875    0.0000 O   0  0  0  0  0  0  0  0  0  0  0  0
   -0.3250   -0.0167    0.0000 C   0  0  0  0  0  0  0  0  0  0  0  0
   -3.5208    0.5875    0.0000 C   0  0  0  0  0  0  0  0  0  0  0  0
   -2.4583    1.2083    0.0000 C   0  0  0  0  0  0  0  0  0  0  0  0
   -2.8083   -0.6375    0.0000 C   0  0  0  0  0  0  0  0  0  0  0  0
   -0.7708   -1.7042    0.0000 C   0  0  0  0  0  0  0  0  0  0  0  0
   -0.1625   -0.6375    0.0000 C   0  0  0  0  0  0  0  0  0  0  0  0
   -1.9958   -1.7125    0.0000 C   0  0  0  0  0  0  0  0  0  0  0  0
   -2.6083   -0.6417    0.0000 C   0  0  0  0  0  0  0  0  0  0  0  0
    0.0167    0.6000    0.0000 C   0  0  0  0  0  0  0  0  0  0  0  0
   -3.2208   -1.0000    0.0000 C   0  0  0  0  0  0  0  0  0  0  0  0
   -2.6083   -2.0667    0.0000 C   0  0  0  0  0  0  0  0  0  0  0  0
   -0.1583   -2.0542    0.0000 C   0  0  0  0  0  0  0  0  0  0  0  0
    0.4500   -0.9875    0.0000 C   0  0  0  0  0  0  0  0  0  0  0  0
    0.4542   -1.7000    0.0000 C   0  0  0  0  0  0  0  0  0  0  0  0
   -3.2208   -1.7125    0.0000 C   0  0  0  0  0  0  0  0  0  0  0  0
  2  1  1  0
  3  1  1  0
  4  2  1  0
  5  1  1  0
  6  1  1  0
  7  4  1  0
  8  3  2  0
  9  3  1  0
 10  7  1  0
 11  7  1  0
 12  4  1  0
 13  5  2  0
 14  5  1  0
 15  6  2  0
 16  6  1  0
 17  9  1  0
 18 16  2  0
 19 15  1  0
 20 13  1  0
 21 14  2  0
 22 21  1  0
 23 19  2  0
 23 18  1  0
 22 20  2  0
M  END
>  <Classification>  (744) 
1

>  <pchembl>  (744) 
5.12

>  <InChI_steorem>  (744) 
InChI=1S/C21H27NO/c1-5-20(23)21(16-17(2)22(3)4,18-12-8-6-9-13-18)19-14-10-7-11-15-19/h6-15,17H,5,16H2,1-4H3

>  <source>  (744) 
ChEMBL25

>  <source_id>  (744) 
25

>  <optional_reference>  (744) 
None

>  <optional_origin>  (744) 
None

>  <target>  (744) 
MDR1

$$$$

     RDKit          2D

 23 25  0  0  0  0  0  0  0  0999 V2000
    3.1569    0.4959    0.0000 C   0  0  0  0  0  0  0  0  0  0  0  0
    3.1557   -0.3315    0.0000 C   0  0  0  0  0  0  0  0  0  0  0  0
    3.8706   -0.7444    0.0000 C   0  0  0  0  0  0  0  0  0  0  0  0
    3.8688    0.9086    0.0000 C   0  0  0  0  0  0  0  0  0  0  0  0
    5.3741   -0.5869    0.0000 C   0  0  0  0  0  0  0  0  0  0  0  0
    5.8618    0.0849    0.0000 C   0  0  0  0  0  0  0  0  0  0  0  0
    5.3736    0.7563    0.0000 N   0  0  0  0  0  0  0  0  0  0  0  0
    4.5841    0.4995    0.0000 C   0  0  0  0  0  0  0  0  0  0  0  0
    4.5844   -0.3307    0.0000 C   0  0  0  0  0  0  0  0  0  0  0  0
    6.6868    0.0852    0.0000 C   0  0  0  0  0  0  0  0  0  0  0  0
    5.6293   -1.3714    0.0000 C   0  0  0  0  0  0  0  0  0  0  0  0
    6.4363   -1.5426    0.0000 C   0  0  0  0  0  0  0  0  0  0  0  0
    6.6915   -2.3272    0.0000 O   0  0  0  0  0  0  0  0  0  0  0  0
    6.9881   -0.9293    0.0000 O   0  0  0  0  0  0  0  0  0  0  0  0
    5.6282    1.5410    0.0000 C   0  0  0  0  0  0  0  0  0  0  0  0
    6.4351    1.7129    0.0000 C   0  0  0  0  0  0  0  0  0  0  0  0
    5.0760    2.1539    0.0000 O   0  0  0  0  0  0  0  0  0  0  0  0
    6.9822    1.0989    0.0000 C   0  0  0  0  0  0  0  0  0  0  0  0
    7.7884    1.2703    0.0000 C   0  0  0  0  0  0  0  0  0  0  0  0
    8.0438    2.0557    0.0000 C   0  0  0  0  0  0  0  0  0  0  0  0
    7.4867    2.6700    0.0000 C   0  0  0  0  0  0  0  0  0  0  0  0
    6.6825    2.4955    0.0000 C   0  0  0  0  0  0  0  0  0  0  0  0
    8.8504    2.2286    0.0000 Cl  0  0  0  0  0  0  0  0  0  0  0  0
  5 11  1  0
 11 12  1  0
  2  3  1  0
 12 13  2  0
  6  7  1  0
 12 14  1  0
  3  9  2  0
  7 15  1  0
  1  2  2  0
 15 16  1  0
  8  4  2  0
 15 17  2  0
  5  6  2  0
 16 18  2  0
  7  8  1  0
 18 19  1  0
  9  5  1  0
 19 20  2  0
  4  1  1  0
 20 21  1  0
  6 10  1  0
 21 22  2  0
 22 16  1  0
  8  9  1  0
 20 23  1  0
M  END
>  <Classification>  (745) 
0

>  <pchembl>  (745) 
4.7

>  <InChI_steorem>  (745) 
InChI=1S/C18H14ClNO3/c1-11-15(10-17(21)22)14-4-2-3-5-16(14)20(11)18(23)12-6-8-13(19)9-7-12/h2-9H,10H2,1H3,(H,21,22)

>  <source>  (745) 
ChEMBL25

>  <source_id>  (745) 
25

>  <optional_reference>  (745) 
10.1021/jm301084z

>  <optional_origin>  (745) 
None

>  <target>  (745) 
MDR1

$$$$

     RDKit          2D

 30 33  0  0  0  0  0  0  0  0999 V2000
   -2.6111    0.7486    0.0000 C   0  0  0  0  0  0  0  0  0  0  0  0
   -2.6111   -0.7486    0.0000 C   0  0  0  0  0  0  0  0  0  0  0  0
   -1.2964   -1.4973    0.0000 C   0  0  0  0  0  0  0  0  0  0  0  0
    0.0000   -0.7486    0.0000 C   0  0  0  0  0  0  0  0  0  0  0  0
    1.2964   -1.4973    0.0000 C   0  0  0  0  0  0  0  0  0  0  0  0
    2.5929   -0.7486    0.0000 C   0  0  0  0  0  0  0  0  0  0  0  0
    2.5929    0.7486    0.0000 C   0  0  0  0  0  0  0  0  0  0  0  0
    1.2964    1.4973    0.0000 C   0  0  0  0  0  0  0  0  0  0  0  0
    0.0000    0.7486    0.0000 C   0  0  0  0  0  0  0  0  0  0  0  0
   -1.2964    1.4973    0.0000 O   0  0  0  0  0  0  0  0  0  0  0  0
   -1.2928   -2.6973    0.0000 O   0  0  0  0  0  0  0  0  0  0  0  0
    3.8911    1.5017    0.0000 O   0  0  0  0  0  0  0  0  0  0  0  0
    3.8894    2.7017    0.0000 C   0  0  0  0  0  0  0  0  0  0  0  0
    1.2995   -2.9981    0.0000 O   0  0  0  0  0  0  0  0  0  0  0  0
    2.3396   -3.5967    0.0000 C   0  0  0  0  0  0  0  0  0  0  0  0
   -3.9086    1.5029    0.0000 N   0  0  0  0  0  0  0  0  0  0  0  0
   -3.9097    3.0028    0.0000 C   0  0  0  0  0  0  0  0  0  0  0  0
   -5.2093    3.7519    0.0000 C   0  0  0  0  0  0  0  0  0  0  0  0
   -6.5078    3.0010    0.0000 N   0  0  0  0  0  0  0  0  0  0  0  0
   -6.5067    1.5010    0.0000 C   0  0  0  0  0  0  0  0  0  0  0  0
   -5.2071    0.7519    0.0000 C   0  0  0  0  0  0  0  0  0  0  0  0
   -7.8096    3.7478    0.0000 C   0  0  0  0  0  0  0  0  0  0  0  0
   -9.1077    2.9946    0.0000 C   0  0  0  0  0  0  0  0  0  0  0  0
  -10.4100    3.7391    0.0000 C   0  0  0  0  0  0  0  0  0  0  0  0
  -11.7059    2.9837    0.0000 C   0  0  0  0  0  0  0  0  0  0  0  0
  -11.6996    1.4837    0.0000 C   0  0  0  0  0  0  0  0  0  0  0  0
  -10.3975    0.7391    0.0000 C   0  0  0  0  0  0  0  0  0  0  0  0
   -9.1016    1.4945    0.0000 C   0  0  0  0  0  0  0  0  0  0  0  0
  -10.3925   -0.4608    0.0000 F   0  0  0  0  0  0  0  0  0  0  0  0
  -12.7363    0.8794    0.0000 F   0  0  0  0  0  0  0  0  0  0  0  0
  1  2  2  0
  2  3  1  0
  3  4  1  0
  4  5  2  0
  5  6  1  0
  6  7  2  0
  7  8  1  0
  8  9  2  0
  4  9  1  0
  9 10  1  0
  1 10  1  0
  3 11  2  0
 12 13  1  0
  7 12  1  0
 14 15  1  0
  5 14  1  0
 16 17  1  0
 17 18  1  0
 18 19  1  0
 19 20  1  0
 20 21  1  0
 16 21  1  0
 22 23  1  0
 23 24  2  0
 24 25  1  0
 25 26  2  0
 26 27  1  0
 27 28  2  0
 23 28  1  0
 19 22  1  0
  1 16  1  0
 27 29  1  0
 26 30  1  0
M  END
>  <Classification>  (746) 
0

>  <pchembl>  (746) 
4.23

>  <InChI_steorem>  (746) 
InChI=1S/C22H22F2N2O4/c1-28-15-10-19(29-2)22-18(27)12-21(30-20(22)11-15)26-7-5-25(6-8-26)13-14-3-4-16(23)17(24)9-14/h3-4,9-12H,5-8,13H2,1-2H3

>  <source>  (746) 
ChEMBL25

>  <source_id>  (746) 
25

>  <optional_reference>  (746) 
10.1016/j.ejmech.2015.12.010

>  <optional_origin>  (746) 
None

>  <target>  (746) 
MDR1

$$$$

     RDKit          2D

 32 35  0  0  0  0  0  0  0  0999 V2000
   -2.6111    0.7486    0.0000 C   0  0  0  0  0  0  0  0  0  0  0  0
   -2.6111   -0.7486    0.0000 C   0  0  0  0  0  0  0  0  0  0  0  0
   -1.2964   -1.4973    0.0000 C   0  0  0  0  0  0  0  0  0  0  0  0
    0.0000   -0.7486    0.0000 C   0  0  0  0  0  0  0  0  0  0  0  0
    1.2964   -1.4973    0.0000 C   0  0  0  0  0  0  0  0  0  0  0  0
    2.5929   -0.7486    0.0000 C   0  0  0  0  0  0  0  0  0  0  0  0
    2.5929    0.7486    0.0000 C   0  0  0  0  0  0  0  0  0  0  0  0
    1.2964    1.4973    0.0000 C   0  0  0  0  0  0  0  0  0  0  0  0
    0.0000    0.7486    0.0000 C   0  0  0  0  0  0  0  0  0  0  0  0
   -1.2964    1.4973    0.0000 O   0  0  0  0  0  0  0  0  0  0  0  0
   -1.2928   -2.6973    0.0000 O   0  0  0  0  0  0  0  0  0  0  0  0
   -3.9086    1.5029    0.0000 N   0  0  0  0  0  0  0  0  0  0  0  0
   -3.9097    3.0028    0.0000 C   0  0  0  0  0  0  0  0  0  0  0  0
   -5.2093    3.7519    0.0000 C   0  0  0  0  0  0  0  0  0  0  0  0
   -6.5078    3.0010    0.0000 N   0  0  0  0  0  0  0  0  0  0  0  0
   -6.5067    1.5010    0.0000 C   0  0  0  0  0  0  0  0  0  0  0  0
   -5.2071    0.7519    0.0000 C   0  0  0  0  0  0  0  0  0  0  0  0
   -7.8096    3.7478    0.0000 C   0  0  0  0  0  0  0  0  0  0  0  0
   -9.1077    2.9946    0.0000 C   0  0  0  0  0  0  0  0  0  0  0  0
  -10.4096    3.7414    0.0000 C   0  0  0  0  0  0  0  0  0  0  0  0
  -11.7081    2.9905    0.0000 C   0  0  0  0  0  0  0  0  0  0  0  0
  -13.0077    3.7396    0.0000 C   0  0  0  0  0  0  0  0  0  0  0  0
  -13.0088    5.2396    0.0000 C   0  0  0  0  0  0  0  0  0  0  0  0
  -11.7103    5.9905    0.0000 C   0  0  0  0  0  0  0  0  0  0  0  0
  -10.4107    5.2415    0.0000 C   0  0  0  0  0  0  0  0  0  0  0  0
    3.8911    1.5017    0.0000 O   0  0  0  0  0  0  0  0  0  0  0  0
    3.8894    2.7017    0.0000 C   0  0  0  0  0  0  0  0  0  0  0  0
    1.2995   -2.9981    0.0000 O   0  0  0  0  0  0  0  0  0  0  0  0
    2.3396   -3.5967    0.0000 C   0  0  0  0  0  0  0  0  0  0  0  0
  -14.3076    5.9917    0.0000 N   0  0  0  0  0  0  0  0  0  0  0  0
  -14.3067    7.1917    0.0000 O   0  0  0  0  0  0  0  0  0  0  0  0
  -15.3474    5.3928    0.0000 O   0  0  0  0  0  0  0  0  0  0  0  0
  1  2  2  0
  2  3  1  0
  3  4  1  0
  4  5  2  0
  5  6  1  0
  6  7  2  0
  7  8  1  0
  8  9  2  0
  4  9  1  0
  9 10  1  0
  1 10  1  0
  3 11  2  0
 12 13  1  0
 13 14  1  0
 14 15  1  0
 15 16  1  0
 16 17  1  0
 12 17  1  0
 18 19  1  0
 19 20  1  0
 20 21  2  0
 21 22  1  0
 22 23  2  0
 23 24  1  0
 24 25  2  0
 20 25  1  0
 15 18  1  0
  1 12  1  0
 26 27  1  0
  7 26  1  0
 28 29  1  0
  5 28  1  0
 30 31  2  0
 30 32  1  0
 23 30  1  0
M  CHG  2  30   1  32  -1
M  END
>  <Classification>  (747) 
0

>  <pchembl>  (747) 
4.48

>  <InChI_steorem>  (747) 
InChI=1S/C23H25N3O6/c1-30-18-13-20(31-2)23-19(27)15-22(32-21(23)14-18)25-11-9-24(10-12-25)8-7-16-3-5-17(6-4-16)26(28)29/h3-6,13-15H,7-12H2,1-2H3

>  <source>  (747) 
ChEMBL25

>  <source_id>  (747) 
25

>  <optional_reference>  (747) 
10.1016/j.ejmech.2015.12.010

>  <optional_origin>  (747) 
None

>  <target>  (747) 
MDR1

$$$$

     RDKit          2D

 31 34  0  0  0  0  0  0  0  0999 V2000
   -2.6111    0.7486    0.0000 C   0  0  0  0  0  0  0  0  0  0  0  0
   -2.6111   -0.7486    0.0000 C   0  0  0  0  0  0  0  0  0  0  0  0
   -1.2964   -1.4973    0.0000 C   0  0  0  0  0  0  0  0  0  0  0  0
    0.0000   -0.7486    0.0000 C   0  0  0  0  0  0  0  0  0  0  0  0
    1.2964   -1.4973    0.0000 C   0  0  0  0  0  0  0  0  0  0  0  0
    2.5929   -0.7486    0.0000 C   0  0  0  0  0  0  0  0  0  0  0  0
    2.5929    0.7486    0.0000 C   0  0  0  0  0  0  0  0  0  0  0  0
    1.2964    1.4973    0.0000 C   0  0  0  0  0  0  0  0  0  0  0  0
    0.0000    0.7486    0.0000 C   0  0  0  0  0  0  0  0  0  0  0  0
   -1.2964    1.4973    0.0000 O   0  0  0  0  0  0  0  0  0  0  0  0
   -1.2928   -2.6973    0.0000 O   0  0  0  0  0  0  0  0  0  0  0  0
    3.8911    1.5017    0.0000 O   0  0  0  0  0  0  0  0  0  0  0  0
    3.8894    2.7017    0.0000 C   0  0  0  0  0  0  0  0  0  0  0  0
    1.2995   -2.9981    0.0000 O   0  0  0  0  0  0  0  0  0  0  0  0
    2.3396   -3.5967    0.0000 C   0  0  0  0  0  0  0  0  0  0  0  0
   -3.9086    1.5029    0.0000 N   0  0  0  0  0  0  0  0  0  0  0  0
   -3.9097    3.0028    0.0000 C   0  0  0  0  0  0  0  0  0  0  0  0
   -5.2093    3.7519    0.0000 C   0  0  0  0  0  0  0  0  0  0  0  0
   -6.5078    3.0010    0.0000 N   0  0  0  0  0  0  0  0  0  0  0  0
   -6.5067    1.5010    0.0000 C   0  0  0  0  0  0  0  0  0  0  0  0
   -5.2071    0.7519    0.0000 C   0  0  0  0  0  0  0  0  0  0  0  0
   -7.8096    3.7478    0.0000 C   0  0  0  0  0  0  0  0  0  0  0  0
   -9.1077    2.9946    0.0000 C   0  0  0  0  0  0  0  0  0  0  0  0
  -10.4100    3.7391    0.0000 C   0  0  0  0  0  0  0  0  0  0  0  0
  -11.7059    2.9837    0.0000 C   0  0  0  0  0  0  0  0  0  0  0  0
  -11.6996    1.4837    0.0000 C   0  0  0  0  0  0  0  0  0  0  0  0
  -10.3975    0.7391    0.0000 C   0  0  0  0  0  0  0  0  0  0  0  0
   -9.1016    1.4945    0.0000 C   0  0  0  0  0  0  0  0  0  0  0  0
  -10.3881   -0.7617    0.0000 N   0  0  0  0  0  0  0  0  0  0  0  0
   -9.3456   -1.3558    0.0000 O   0  0  0  0  0  0  0  0  0  0  0  0
  -11.4238   -1.3678    0.0000 O   0  0  0  0  0  0  0  0  0  0  0  0
  1  2  2  0
  2  3  1  0
  3  4  1  0
  4  5  2  0
  5  6  1  0
  6  7  2  0
  7  8  1  0
  8  9  2  0
  4  9  1  0
  9 10  1  0
  1 10  1  0
  3 11  2  0
 12 13  1  0
  7 12  1  0
 14 15  1  0
  5 14  1  0
 16 17  1  0
 17 18  1  0
 18 19  1  0
 19 20  1  0
 20 21  1  0
 16 21  1  0
 22 23  1  0
 23 24  2  0
 24 25  1  0
 25 26  2  0
 26 27  1  0
 27 28  2  0
 23 28  1  0
 19 22  1  0
  1 16  1  0
 29 30  2  0
 29 31  1  0
 27 29  1  0
M  CHG  2  29   1  31  -1
M  END
>  <Classification>  (748) 
0

>  <pchembl>  (748) 
4.48

>  <InChI_steorem>  (748) 
InChI=1S/C22H23N3O6/c1-29-17-11-19(30-2)22-18(26)13-21(31-20(22)12-17)24-8-6-23(7-9-24)14-15-4-3-5-16(10-15)25(27)28/h3-5,10-13H,6-9,14H2,1-2H3

>  <source>  (748) 
ChEMBL25

>  <source_id>  (748) 
25

>  <optional_reference>  (748) 
10.1016/j.ejmech.2015.12.010

>  <optional_origin>  (748) 
None

>  <target>  (748) 
MDR1

$$$$

     RDKit          2D

 32 35  0  0  0  0  0  0  0  0999 V2000
   -2.6111    0.7486    0.0000 C   0  0  0  0  0  0  0  0  0  0  0  0
   -2.6111   -0.7486    0.0000 C   0  0  0  0  0  0  0  0  0  0  0  0
   -1.2964   -1.4973    0.0000 C   0  0  0  0  0  0  0  0  0  0  0  0
    0.0000   -0.7486    0.0000 C   0  0  0  0  0  0  0  0  0  0  0  0
    1.2964   -1.4973    0.0000 C   0  0  0  0  0  0  0  0  0  0  0  0
    2.5929   -0.7486    0.0000 C   0  0  0  0  0  0  0  0  0  0  0  0
    2.5929    0.7486    0.0000 C   0  0  0  0  0  0  0  0  0  0  0  0
    1.2964    1.4973    0.0000 C   0  0  0  0  0  0  0  0  0  0  0  0
    0.0000    0.7486    0.0000 C   0  0  0  0  0  0  0  0  0  0  0  0
   -1.2964    1.4973    0.0000 O   0  0  0  0  0  0  0  0  0  0  0  0
   -1.2928   -2.6973    0.0000 O   0  0  0  0  0  0  0  0  0  0  0  0
    3.8911    1.5017    0.0000 O   0  0  0  0  0  0  0  0  0  0  0  0
    3.8894    2.7017    0.0000 C   0  0  0  0  0  0  0  0  0  0  0  0
    1.2995   -2.9981    0.0000 O   0  0  0  0  0  0  0  0  0  0  0  0
    2.3396   -3.5967    0.0000 C   0  0  0  0  0  0  0  0  0  0  0  0
   -3.9086    1.5029    0.0000 N   0  0  0  0  0  0  0  0  0  0  0  0
   -3.9097    3.0028    0.0000 C   0  0  0  0  0  0  0  0  0  0  0  0
   -5.2093    3.7519    0.0000 C   0  0  0  0  0  0  0  0  0  0  0  0
   -6.5078    3.0010    0.0000 N   0  0  0  0  0  0  0  0  0  0  0  0
   -6.5067    1.5010    0.0000 C   0  0  0  0  0  0  0  0  0  0  0  0
   -5.2071    0.7519    0.0000 C   0  0  0  0  0  0  0  0  0  0  0  0
   -7.8096    3.7478    0.0000 C   0  0  0  0  0  0  0  0  0  0  0  0
   -9.1077    2.9946    0.0000 C   0  0  0  0  0  0  0  0  0  0  0  0
  -10.4100    3.7391    0.0000 C   0  0  0  0  0  0  0  0  0  0  0  0
  -11.7059    2.9837    0.0000 C   0  0  0  0  0  0  0  0  0  0  0  0
  -11.6996    1.4837    0.0000 C   0  0  0  0  0  0  0  0  0  0  0  0
  -10.3975    0.7391    0.0000 C   0  0  0  0  0  0  0  0  0  0  0  0
   -9.1016    1.4945    0.0000 C   0  0  0  0  0  0  0  0  0  0  0  0
  -12.9962    0.7279    0.0000 C   0  0  0  0  0  0  0  0  0  0  0  0
  -14.0383    1.3229    0.0000 F   0  0  0  0  0  0  0  0  0  0  0  0
  -12.9909   -0.4721    0.0000 F   0  0  0  0  0  0  0  0  0  0  0  0
  -14.0327    0.1231    0.0000 F   0  0  0  0  0  0  0  0  0  0  0  0
  1  2  2  0
  2  3  1  0
  3  4  1  0
  4  5  2  0
  5  6  1  0
  6  7  2  0
  7  8  1  0
  8  9  2  0
  4  9  1  0
  9 10  1  0
  1 10  1  0
  3 11  2  0
 12 13  1  0
  7 12  1  0
 14 15  1  0
  5 14  1  0
 16 17  1  0
 17 18  1  0
 18 19  1  0
 19 20  1  0
 20 21  1  0
 16 21  1  0
 22 23  1  0
 23 24  2  0
 24 25  1  0
 25 26  2  0
 26 27  1  0
 27 28  2  0
 23 28  1  0
 19 22  1  0
  1 16  1  0
 29 30  1  0
 29 31  1  0
 29 32  1  0
 26 29  1  0
M  END
>  <Classification>  (749) 
0

>  <pchembl>  (749) 
4.5

>  <InChI_steorem>  (749) 
InChI=1S/C23H23F3N2O4/c1-30-17-11-19(31-2)22-18(29)13-21(32-20(22)12-17)28-9-7-27(8-10-28)14-15-3-5-16(6-4-15)23(24,25)26/h3-6,11-13H,7-10,14H2,1-2H3

>  <source>  (749) 
ChEMBL25

>  <source_id>  (749) 
25

>  <optional_reference>  (749) 
10.1016/j.ejmech.2015.12.010

>  <optional_origin>  (749) 
None

>  <target>  (749) 
MDR1

$$$$

     RDKit          2D

 33 36  0  0  0  0  0  0  0  0999 V2000
  -12.9947    0.7252    0.0000 S   0  0  0  0  0  0  0  0  0  0  0  0
   -2.6111    0.7486    0.0000 C   0  0  0  0  0  0  0  0  0  0  0  0
   -2.6111   -0.7486    0.0000 C   0  0  0  0  0  0  0  0  0  0  0  0
   -1.2964   -1.4973    0.0000 C   0  0  0  0  0  0  0  0  0  0  0  0
    0.0000   -0.7486    0.0000 C   0  0  0  0  0  0  0  0  0  0  0  0
    1.2964   -1.4973    0.0000 C   0  0  0  0  0  0  0  0  0  0  0  0
    2.5929   -0.7486    0.0000 C   0  0  0  0  0  0  0  0  0  0  0  0
    2.5929    0.7486    0.0000 C   0  0  0  0  0  0  0  0  0  0  0  0
    1.2964    1.4973    0.0000 C   0  0  0  0  0  0  0  0  0  0  0  0
    0.0000    0.7486    0.0000 C   0  0  0  0  0  0  0  0  0  0  0  0
   -1.2964    1.4973    0.0000 O   0  0  0  0  0  0  0  0  0  0  0  0
   -1.2928   -2.6973    0.0000 O   0  0  0  0  0  0  0  0  0  0  0  0
    3.8911    1.5017    0.0000 O   0  0  0  0  0  0  0  0  0  0  0  0
    3.8894    2.7017    0.0000 C   0  0  0  0  0  0  0  0  0  0  0  0
    1.2995   -2.9981    0.0000 O   0  0  0  0  0  0  0  0  0  0  0  0
    2.3396   -3.5967    0.0000 C   0  0  0  0  0  0  0  0  0  0  0  0
   -3.9086    1.5029    0.0000 N   0  0  0  0  0  0  0  0  0  0  0  0
   -3.9097    3.0028    0.0000 C   0  0  0  0  0  0  0  0  0  0  0  0
   -5.2093    3.7519    0.0000 C   0  0  0  0  0  0  0  0  0  0  0  0
   -6.5078    3.0010    0.0000 N   0  0  0  0  0  0  0  0  0  0  0  0
   -6.5067    1.5010    0.0000 C   0  0  0  0  0  0  0  0  0  0  0  0
   -5.2071    0.7519    0.0000 C   0  0  0  0  0  0  0  0  0  0  0  0
   -7.8096    3.7478    0.0000 C   0  0  0  0  0  0  0  0  0  0  0  0
   -9.1077    2.9946    0.0000 C   0  0  0  0  0  0  0  0  0  0  0  0
  -10.4100    3.7391    0.0000 C   0  0  0  0  0  0  0  0  0  0  0  0
  -11.7059    2.9837    0.0000 C   0  0  0  0  0  0  0  0  0  0  0  0
  -11.6996    1.4837    0.0000 C   0  0  0  0  0  0  0  0  0  0  0  0
  -10.3975    0.7391    0.0000 C   0  0  0  0  0  0  0  0  0  0  0  0
   -9.1016    1.4945    0.0000 C   0  0  0  0  0  0  0  0  0  0  0  0
  -12.9863   -0.7756    0.0000 C   0  0  0  0  0  0  0  0  0  0  0  0
  -14.0218   -1.3820    0.0000 F   0  0  0  0  0  0  0  0  0  0  0  0
  -11.9435   -1.3694    0.0000 F   0  0  0  0  0  0  0  0  0  0  0  0
  -12.9790   -1.9755    0.0000 F   0  0  0  0  0  0  0  0  0  0  0  0
  2  3  2  0
  3  4  1  0
  4  5  1  0
  5  6  2  0
  6  7  1  0
  7  8  2  0
  8  9  1  0
  9 10  2  0
  5 10  1  0
 10 11  1  0
  2 11  1  0
  4 12  2  0
 13 14  1  0
  8 13  1  0
 15 16  1  0
  6 15  1  0
 17 18  1  0
 18 19  1  0
 19 20  1  0
 20 21  1  0
 21 22  1  0
 17 22  1  0
 23 24  1  0
 24 25  2  0
 25 26  1  0
 26 27  2  0
 27 28  1  0
 28 29  2  0
 24 29  1  0
 20 23  1  0
  2 17  1  0
 27  1  1  0
  1 30  1  0
 30 31  1  0
 30 32  1  0
 30 33  1  0
M  END
>  <Classification>  (750) 
0

>  <pchembl>  (750) 
4.44

>  <InChI_steorem>  (750) 
InChI=1S/C23H23F3N2O4S/c1-30-16-11-19(31-2)22-18(29)13-21(32-20(22)12-16)28-9-7-27(8-10-28)14-15-3-5-17(6-4-15)33-23(24,25)26/h3-6,11-13H,7-10,14H2,1-2H3

>  <source>  (750) 
ChEMBL25

>  <source_id>  (750) 
25

>  <optional_reference>  (750) 
10.1016/j.ejmech.2015.12.010

>  <optional_origin>  (750) 
None

>  <target>  (750) 
MDR1

$$$$

     RDKit          2D

 33 36  0  0  0  0  0  0  0  0999 V2000
   -2.6111    0.7486    0.0000 C   0  0  0  0  0  0  0  0  0  0  0  0
   -2.6111   -0.7486    0.0000 C   0  0  0  0  0  0  0  0  0  0  0  0
   -1.2964   -1.4973    0.0000 C   0  0  0  0  0  0  0  0  0  0  0  0
    0.0000   -0.7486    0.0000 C   0  0  0  0  0  0  0  0  0  0  0  0
    1.2964   -1.4973    0.0000 C   0  0  0  0  0  0  0  0  0  0  0  0
    2.5929   -0.7486    0.0000 C   0  0  0  0  0  0  0  0  0  0  0  0
    2.5929    0.7486    0.0000 C   0  0  0  0  0  0  0  0  0  0  0  0
    1.2964    1.4973    0.0000 C   0  0  0  0  0  0  0  0  0  0  0  0
    0.0000    0.7486    0.0000 C   0  0  0  0  0  0  0  0  0  0  0  0
   -1.2964    1.4973    0.0000 O   0  0  0  0  0  0  0  0  0  0  0  0
   -1.2928   -2.6973    0.0000 O   0  0  0  0  0  0  0  0  0  0  0  0
   -3.9091    1.5019    0.0000 C   0  0  0  0  0  0  0  0  0  0  0  0
   -4.9494    0.9039    0.0000 O   0  0  0  0  0  0  0  0  0  0  0  0
   -3.9067    3.0027    0.0000 N   0  0  0  0  0  0  0  0  0  0  0  0
   -5.2030    3.7575    0.0000 C   0  0  0  0  0  0  0  0  0  0  0  0
   -5.1976    5.2575    0.0000 C   0  0  0  0  0  0  0  0  0  0  0  0
   -3.8958    6.0028    0.0000 N   0  0  0  0  0  0  0  0  0  0  0  0
   -2.5995    5.2481    0.0000 C   0  0  0  0  0  0  0  0  0  0  0  0
   -2.6050    3.7481    0.0000 C   0  0  0  0  0  0  0  0  0  0  0  0
   -3.8873    7.5036    0.0000 C   0  0  0  0  0  0  0  0  0  0  0  0
   -2.5838    8.2475    0.0000 C   0  0  0  0  0  0  0  0  0  0  0  0
    3.8911    1.5017    0.0000 O   0  0  0  0  0  0  0  0  0  0  0  0
    3.8894    2.7017    0.0000 C   0  0  0  0  0  0  0  0  0  0  0  0
    1.2995   -2.9981    0.0000 O   0  0  0  0  0  0  0  0  0  0  0  0
    2.3396   -3.5967    0.0000 C   0  0  0  0  0  0  0  0  0  0  0  0
   -2.5730    9.7474    0.0000 C   0  0  0  0  0  0  0  0  0  0  0  0
   -1.2687   10.4882    0.0000 C   0  0  0  0  0  0  0  0  0  0  0  0
    0.0250    9.7290    0.0000 C   0  0  0  0  0  0  0  0  0  0  0  0
    0.0143    8.2291    0.0000 C   0  0  0  0  0  0  0  0  0  0  0  0
   -1.2900    7.4883    0.0000 C   0  0  0  0  0  0  0  0  0  0  0  0
    1.3315   10.4675    0.0000 N   0  0  0  0  0  0  0  0  0  0  0  0
    2.3656    9.8587    0.0000 O   0  0  0  0  0  0  0  0  0  0  0  0
    1.3421   11.6675    0.0000 O   0  0  0  0  0  0  0  0  0  0  0  0
  1  2  2  0
  2  3  1  0
  3  4  1  0
  4  5  2  0
  5  6  1  0
  6  7  2  0
  7  8  1  0
  8  9  2  0
  4  9  1  0
  9 10  1  0
  1 10  1  0
  3 11  2  0
 12 13  2  0
 14 15  1  0
 15 16  1  0
 16 17  1  0
 17 18  1  0
 18 19  1  0
 14 19  1  0
 12 14  1  0
 20 21  1  0
 17 20  1  0
  1 12  1  0
 22 23  1  0
  7 22  1  0
 24 25  1  0
  5 24  1  0
 21 26  2  0
 26 27  1  0
 27 28  2  0
 28 29  1  0
 29 30  2  0
 30 21  1  0
 31 32  2  0
 31 33  1  0
 28 31  1  0
M  CHG  2  31   1  33  -1
M  END
>  <Classification>  (751) 
0

>  <pchembl>  (751) 
4.24

>  <InChI_steorem>  (751) 
InChI=1S/C23H23N3O7/c1-31-17-11-19(32-2)22-18(27)13-21(33-20(22)12-17)23(28)25-9-7-24(8-10-25)14-15-3-5-16(6-4-15)26(29)30/h3-6,11-13H,7-10,14H2,1-2H3

>  <source>  (751) 
ChEMBL25

>  <source_id>  (751) 
25

>  <optional_reference>  (751) 
10.1016/j.ejmech.2015.12.010

>  <optional_origin>  (751) 
None

>  <target>  (751) 
MDR1

$$$$

     RDKit          2D

 34 37  0  0  0  0  0  0  0  0999 V2000
   -2.6111    0.7486    0.0000 C   0  0  0  0  0  0  0  0  0  0  0  0
   -2.6111   -0.7486    0.0000 C   0  0  0  0  0  0  0  0  0  0  0  0
   -1.2964   -1.4973    0.0000 C   0  0  0  0  0  0  0  0  0  0  0  0
    0.0000   -0.7486    0.0000 C   0  0  0  0  0  0  0  0  0  0  0  0
    1.2964   -1.4973    0.0000 C   0  0  0  0  0  0  0  0  0  0  0  0
    2.5929   -0.7486    0.0000 C   0  0  0  0  0  0  0  0  0  0  0  0
    2.5929    0.7486    0.0000 C   0  0  0  0  0  0  0  0  0  0  0  0
    1.2964    1.4973    0.0000 C   0  0  0  0  0  0  0  0  0  0  0  0
    0.0000    0.7486    0.0000 C   0  0  0  0  0  0  0  0  0  0  0  0
   -1.2964    1.4973    0.0000 O   0  0  0  0  0  0  0  0  0  0  0  0
   -1.2928   -2.6973    0.0000 O   0  0  0  0  0  0  0  0  0  0  0  0
   -3.9091    1.5019    0.0000 C   0  0  0  0  0  0  0  0  0  0  0  0
   -4.9494    0.9039    0.0000 O   0  0  0  0  0  0  0  0  0  0  0  0
   -3.9067    3.0027    0.0000 N   0  0  0  0  0  0  0  0  0  0  0  0
   -5.2030    3.7575    0.0000 C   0  0  0  0  0  0  0  0  0  0  0  0
   -5.1976    5.2575    0.0000 C   0  0  0  0  0  0  0  0  0  0  0  0
   -3.8958    6.0028    0.0000 N   0  0  0  0  0  0  0  0  0  0  0  0
   -2.5995    5.2481    0.0000 C   0  0  0  0  0  0  0  0  0  0  0  0
   -2.6050    3.7481    0.0000 C   0  0  0  0  0  0  0  0  0  0  0  0
   -3.8873    7.5036    0.0000 C   0  0  0  0  0  0  0  0  0  0  0  0
   -2.5838    8.2475    0.0000 C   0  0  0  0  0  0  0  0  0  0  0  0
   -2.5752    9.7483    0.0000 C   0  0  0  0  0  0  0  0  0  0  0  0
   -1.2735   10.4936    0.0000 C   0  0  0  0  0  0  0  0  0  0  0  0
   -1.2680   11.9936    0.0000 C   0  0  0  0  0  0  0  0  0  0  0  0
   -2.5643   12.7483    0.0000 C   0  0  0  0  0  0  0  0  0  0  0  0
   -3.8661   12.0031    0.0000 C   0  0  0  0  0  0  0  0  0  0  0  0
   -3.8715   10.5031    0.0000 C   0  0  0  0  0  0  0  0  0  0  0  0
    3.8911    1.5017    0.0000 O   0  0  0  0  0  0  0  0  0  0  0  0
    3.8894    2.7017    0.0000 C   0  0  0  0  0  0  0  0  0  0  0  0
    1.2995   -2.9981    0.0000 O   0  0  0  0  0  0  0  0  0  0  0  0
    2.3396   -3.5967    0.0000 C   0  0  0  0  0  0  0  0  0  0  0  0
   -2.5619   14.2492    0.0000 N   0  0  0  0  0  0  0  0  0  0  0  0
   -3.5998   14.8515    0.0000 O   0  0  0  0  0  0  0  0  0  0  0  0
   -1.5215   14.8472    0.0000 O   0  0  0  0  0  0  0  0  0  0  0  0
  1  2  2  0
  2  3  1  0
  3  4  1  0
  4  5  2  0
  5  6  1  0
  6  7  2  0
  7  8  1  0
  8  9  2  0
  4  9  1  0
  9 10  1  0
  1 10  1  0
  3 11  2  0
 12 13  2  0
 14 15  1  0
 15 16  1  0
 16 17  1  0
 17 18  1  0
 18 19  1  0
 14 19  1  0
 12 14  1  0
 20 21  1  0
 21 22  1  0
 22 23  2  0
 23 24  1  0
 24 25  2  0
 25 26  1  0
 26 27  2  0
 22 27  1  0
 17 20  1  0
  1 12  1  0
 28 29  1  0
  7 28  1  0
 30 31  1  0
  5 30  1  0
 32 33  2  0
 32 34  1  0
 25 32  1  0
M  CHG  2  32   1  34  -1
M  END
>  <Classification>  (752) 
0

>  <pchembl>  (752) 
4.08

>  <InChI_steorem>  (752) 
InChI=1S/C24H25N3O7/c1-32-18-13-20(33-2)23-19(28)15-22(34-21(23)14-18)24(29)26-11-9-25(10-12-26)8-7-16-3-5-17(6-4-16)27(30)31/h3-6,13-15H,7-12H2,1-2H3

>  <source>  (752) 
ChEMBL25

>  <source_id>  (752) 
25

>  <optional_reference>  (752) 
10.1016/j.ejmech.2015.12.010

>  <optional_origin>  (752) 
None

>  <target>  (752) 
MDR1

$$$$

     RDKit          2D

 26 29  0  0  0  0  0  0  0  0999 V2000
   -6.4810   -6.0117    0.0000 C   0  0  0  0  0  0  0  0  0  0  0  0
   -5.1815   -5.2608    0.0000 C   0  0  0  0  0  0  0  0  0  0  0  0
   -3.8807   -6.0076    0.0000 C   0  0  0  0  0  0  0  0  0  0  0  0
   -2.5835   -5.2544    0.0000 C   0  0  0  0  0  0  0  0  0  0  0  0
   -2.5870   -3.7544    0.0000 C   0  0  0  0  0  0  0  0  0  0  0  0
   -3.8880   -3.0076    0.0000 C   0  0  0  0  0  0  0  0  0  0  0  0
   -5.1852   -3.7608    0.0000 C   0  0  0  0  0  0  0  0  0  0  0  0
   -7.5208   -5.4128    0.0000 O   0  0  0  0  0  0  0  0  0  0  0  0
   -6.4802   -7.2117    0.0000 O   0  0  0  0  0  0  0  0  0  0  0  0
   -1.2907   -2.9981    0.0000 N   0  0  0  0  0  0  0  0  0  0  0  0
   -1.2964    1.4973    0.0000 N   0  0  0  0  0  0  0  0  0  0  0  0
   -2.6111    0.7486    0.0000 C   0  0  0  0  0  0  0  0  0  0  0  0
   -2.6111   -0.7486    0.0000 N   0  0  0  0  0  0  0  0  0  0  0  0
   -1.2964   -1.4973    0.0000 C   0  0  0  0  0  0  0  0  0  0  0  0
    0.0000   -0.7486    0.0000 C   0  0  0  0  0  0  0  0  0  0  0  0
    1.2964   -1.4973    0.0000 C   0  0  0  0  0  0  0  0  0  0  0  0
    2.5929   -0.7486    0.0000 C   0  0  0  0  0  0  0  0  0  0  0  0
    2.5929    0.7486    0.0000 C   0  0  0  0  0  0  0  0  0  0  0  0
    1.2964    1.4973    0.0000 C   0  0  0  0  0  0  0  0  0  0  0  0
    0.0000    0.7486    0.0000 C   0  0  0  0  0  0  0  0  0  0  0  0
   -6.5065    1.5203    0.0000 C   0  0  0  0  0  0  0  0  0  0  0  0
   -5.2125    0.7617    0.0000 C   0  0  0  0  0  0  0  0  0  0  0  0
   -3.9086    1.5029    0.0000 C   0  0  0  0  0  0  0  0  0  0  0  0
   -3.8985    3.0029    0.0000 C   0  0  0  0  0  0  0  0  0  0  0  0
   -5.1925    3.7616    0.0000 C   0  0  0  0  0  0  0  0  0  0  0  0
   -6.4965    3.0203    0.0000 N   0  0  0  0  0  0  0  0  0  0  0  0
  1  2  1  0
  2  3  2  0
  3  4  1  0
  4  5  2  0
  5  6  1  0
  6  7  2  0
  2  7  1  0
  1  8  2  0
  1  9  1  0
 11 12  2  0
 12 13  1  0
 13 14  2  0
 14 15  1  0
 15 16  2  0
 16 17  1  0
 17 18  2  0
 18 19  1  0
 19 20  2  0
 11 20  1  0
 15 20  1  0
 21 22  2  0
 22 23  1  0
 23 24  2  0
 24 25  1  0
 25 26  2  0
 21 26  1  0
 12 23  1  0
 10 14  1  0
  5 10  1  0
M  END
>  <Classification>  (753) 
1

>  <pchembl>  (753) 
5.43

>  <InChI_steorem>  (753) 
InChI=1S/C20H14N4O2/c25-20(26)14-5-7-15(8-6-14)22-19-16-3-1-2-4-17(16)23-18(24-19)13-9-11-21-12-10-13/h1-12H,(H,25,26)(H,22,23,24)

>  <source>  (753) 
ChEMBL25

>  <source_id>  (753) 
25

>  <optional_reference>  (753) 
10.1021/acs.jmedchem.7b00441

>  <optional_origin>  (753) 
None

>  <target>  (753) 
MDR1

$$$$

     RDKit          2D

 41 46  0  0  0  0  0  0  0  0999 V2000
    1.2990   -0.7500    0.0000 C   0  0  0  0  0  0  0  0  0  0  0  0
    1.2990    0.7500    0.0000 C   0  0  0  0  0  0  0  0  0  0  0  0
    0.0000    1.5000    0.0000 C   0  0  0  0  0  0  0  0  0  0  0  0
    0.0000   -1.5000    0.0000 C   0  0  0  0  0  0  0  0  0  0  0  0
   -1.2990   -0.7500    0.0000 C   0  0  0  0  0  0  0  0  0  0  0  0
   -1.2990    0.7500    0.0000 C   0  0  0  0  0  0  0  0  0  0  0  0
   -2.5981    1.5000    0.0000 C   0  0  0  0  0  0  0  0  0  0  0  0
   -3.8971    0.7500    0.0000 C   0  0  0  0  0  0  0  0  0  0  0  0
   -3.8971   -0.7500    0.0000 C   0  0  0  0  0  0  0  0  0  0  0  0
   -2.5981   -1.5000    0.0000 C   0  0  0  0  0  0  0  0  0  0  0  0
    0.0031   -3.0008    0.0000 O   0  0  0  0  0  0  0  0  0  0  0  0
    1.3039   -3.7494    0.0000 C   0  0  0  0  0  0  0  0  0  0  0  0
    2.3421   -3.1476    0.0000 C   0  0  0  0  0  0  0  0  0  0  0  0
    1.3064   -4.9494    0.0000 O   0  0  0  0  0  0  0  0  0  0  0  0
   -2.5950   -3.0008    0.0000 O   0  0  0  0  0  0  0  0  0  0  0  0
   -3.8927   -3.7548    0.0000 C   0  0  0  0  0  0  0  0  0  0  0  0
   -3.8896   -5.2556    0.0000 C   0  0  0  0  0  0  0  0  0  0  0  0
   -4.9334   -3.1572    0.0000 O   0  0  0  0  0  0  0  0  0  0  0  0
   -5.1856   -6.0110    0.0000 C   0  0  0  0  0  0  0  0  0  0  0  0
   -5.1794   -7.5110    0.0000 C   0  0  0  0  0  0  0  0  0  0  0  0
   -3.8773   -8.2556    0.0000 C   0  0  0  0  0  0  0  0  0  0  0  0
   -2.5814   -7.5003    0.0000 C   0  0  0  0  0  0  0  0  0  0  0  0
   -2.5875   -6.0003    0.0000 C   0  0  0  0  0  0  0  0  0  0  0  0
   -1.2990   -1.9500    0.0000 C   0  0  0  0  0  0  0  0  0  0  0  0
   -5.1984   -1.4978    0.0000 O   0  0  0  0  0  0  0  0  0  0  0  0
   -6.4971   -0.7455    0.0000 C   0  0  0  0  0  0  0  0  0  0  0  0
   -7.7984   -1.4932    0.0000 C   0  0  0  0  0  0  0  0  0  0  0  0
   -6.4950    0.4545    0.0000 O   0  0  0  0  0  0  0  0  0  0  0  0
   -9.0971   -0.7410    0.0000 C   0  0  0  0  0  0  0  0  0  0  0  0
  -10.3984   -1.4887    0.0000 C   0  0  0  0  0  0  0  0  0  0  0  0
  -11.6975   -0.7388    0.0000 C   0  0  0  0  0  0  0  0  0  0  0  0
  -12.9965   -1.4887    0.0000 C   0  0  0  0  0  0  0  0  0  0  0  0
  -12.9965   -2.9887    0.0000 C   0  0  0  0  0  0  0  0  0  0  0  0
  -11.6975   -3.7388    0.0000 C   0  0  0  0  0  0  0  0  0  0  0  0
  -10.3985   -2.9888    0.0000 C   0  0  0  0  0  0  0  0  0  0  0  0
    0.7042    2.4716    0.0000 C   0  0  0  0  0  0  0  0  0  0  0  0
   -1.2991    2.6642    0.0000 O   0  0  0  0  0  0  0  0  0  0  0  0
   -1.8481   -0.7205    0.0000 O   0  0  0  0  0  0  0  0  0  0  0  0
   -3.3481   -0.7205    0.0000 C   0  0  0  0  0  0  0  0  0  0  0  0
   -4.5421   -0.6009    0.0000 C   0  0  0  0  0  0  0  0  0  0  0  0
   -2.8185   -1.7973    0.0000 C   0  0  0  0  0  0  0  0  0  0  0  0
  1  2  1  0
  1  4  1  0
  2  3  1  0
  3  6  1  0
  5  4  1  0
  5  6  1  0
  5 10  1  0
  6  7  1  0
  7  8  1  0
  8  9  1  0
  9 10  1  0
  4 11  1  0
 11 12  1  0
 12 13  1  0
 12 14  2  0
 10 15  1  0
 15 16  1  0
 16 17  1  0
 16 18  2  0
 17 19  2  0
 19 20  1  0
 20 21  2  0
 21 22  1  0
 22 23  2  0
 23 17  1  0
  5 24  1  0
  9 25  1  0
 25 26  1  0
 26 27  1  0
 26 28  2  0
 27 29  2  3
 29 30  1  0
 30 31  2  0
 31 32  1  0
 32 33  2  0
 33 34  1  0
 34 35  2  0
 35 30  1  0
  3 36  1  0
  7 37  1  0
  3 37  1  0
  6 38  1  0
  8 39  1  0
 38 39  1  0
 39 40  1  0
 39 41  1  0
M  END
>  <Classification>  (754) 
1

>  <pchembl>  (754) 
6.3

>  <InChI_steorem>  (754) 
InChI=1S/C33H36O8/c1-20(34)37-23-18-19-31(4)33-27(40-31)25(30(2,3)41-33)26(38-24(35)17-16-21-12-8-6-9-13-21)28(32(23,33)5)39-29(36)22-14-10-7-11-15-22/h6-17,23,25-28H,18-19H2,1-5H3

>  <source>  (754) 
ChEMBL25

>  <source_id>  (754) 
25

>  <optional_reference>  (754) 
10.1021/acs.jmedchem.5b01429

>  <optional_origin>  (754) 
None

>  <target>  (754) 
MDR1

$$$$

     RDKit          2D

 46 50  0  0  0  0  0  0  0  0999 V2000
   -2.5800    0.7500    0.0000 C   0  0  0  0  0  0  0  0  0  0  0  0
   -2.5800    2.2400    0.0000 C   0  0  0  0  0  0  0  0  0  0  0  0
   -1.2900    3.0200    0.0000 C   0  0  0  0  0  0  0  0  0  0  0  0
   -1.2900    0.0100    0.0000 C   0  0  0  0  0  0  0  0  0  0  0  0
    0.0000    0.7400    0.0000 C   0  0  0  0  0  0  0  0  0  0  0  0
    0.0000    2.2900    0.0000 C   0  0  0  0  0  0  0  0  0  0  0  0
    1.3200    1.5200    0.0000 C   0  0  0  0  0  0  0  0  0  0  0  0
    3.2600    1.5200    0.0000 C   0  0  0  0  0  0  0  0  0  0  0  0
    2.5900    0.1900    0.0000 C   0  0  0  0  0  0  0  0  0  0  0  0
    1.1200   -0.1300    0.0000 C   0  0  0  0  0  0  0  0  0  0  0  0
   -1.2961   -1.4911    0.0000 O   0  0  0  0  0  0  0  0  0  0  0  0
   -2.5984   -2.2371    0.0000 C   0  0  0  0  0  0  0  0  0  0  0  0
   -3.6354   -1.6332    0.0000 C   0  0  0  0  0  0  0  0  0  0  0  0
   -2.6025   -3.2371    0.0000 O   0  0  0  0  0  0  0  0  0  0  0  0
    0.2791   -1.3762    0.0000 O   0  0  0  0  0  0  0  0  0  0  0  0
    0.9364   -2.7255    0.0000 C   0  0  0  0  0  0  0  0  0  0  0  0
    0.0974   -3.9699    0.0000 C   0  0  0  0  0  0  0  0  0  0  0  0
    1.9340   -2.7953    0.0000 O   0  0  0  0  0  0  0  0  0  0  0  0
    0.7524   -5.3193    0.0000 C   0  0  0  0  0  0  0  0  0  0  0  0
   -0.0887   -6.5613    0.0000 C   0  0  0  0  0  0  0  0  0  0  0  0
   -1.5848   -6.4539    0.0000 C   0  0  0  0  0  0  0  0  0  0  0  0
   -2.2399   -5.1045    0.0000 C   0  0  0  0  0  0  0  0  0  0  0  0
   -1.3988   -3.8625    0.0000 C   0  0  0  0  0  0  0  0  0  0  0  0
   -0.0872   -0.4568    0.0000 C   0  0  0  0  0  0  0  0  0  0  0  0
    3.5169   -0.9931    0.0000 O   0  0  0  0  0  0  0  0  0  0  0  0
   -0.2456    3.6110    0.0000 C   0  0  0  0  0  0  0  0  0  0  0  0
    1.1200    3.2400    0.0000 O   0  0  0  0  0  0  0  0  0  0  0  0
    2.5900    2.9100    0.0000 C   0  0  0  0  0  0  0  0  0  0  0  0
    1.2773    0.0143    0.0000 O   0  0  0  0  0  0  0  0  0  0  0  0
    3.7711    2.6979    0.0000 C   0  0  0  0  0  0  0  0  0  0  0  0
    2.1162    4.0125    0.0000 C   0  0  0  0  0  0  0  0  0  0  0  0
    5.0029   -0.7830    0.0000 C   0  0  0  0  0  0  0  0  0  0  0  0
    5.9286   -1.9644    0.0000 C   0  0  0  0  0  0  0  0  0  0  0  0
    5.4512    0.3301    0.0000 O   0  0  0  0  0  0  0  0  0  0  0  0
    7.4147   -1.7544    0.0000 C   0  0  0  0  0  0  0  0  0  0  0  0
    8.3403   -2.9357    0.0000 C   0  0  0  0  0  0  0  0  0  0  0  0
    9.8259   -2.7280    0.0000 C   0  0  0  0  0  0  0  0  0  0  0  0
   10.7487   -3.9106    0.0000 C   0  0  0  0  0  0  0  0  0  0  0  0
   10.1859   -5.3010    0.0000 C   0  0  0  0  0  0  0  0  0  0  0  0
    8.7004   -5.5088    0.0000 C   0  0  0  0  0  0  0  0  0  0  0  0
    7.7776   -4.3262    0.0000 C   0  0  0  0  0  0  0  0  0  0  0  0
    2.2105   -1.1611    0.0000 S   0  0  0  0  0  0  0  0  0  0  0  0
    3.3974   -0.9844    0.0000 C   0  0  0  0  0  0  0  0  0  0  0  0
    1.8437   -2.0914    0.0000 O   0  0  0  0  0  0  0  0  0  0  0  0
    2.9571   -2.1005    0.0000 O   0  0  0  0  0  0  0  0  0  0  0  0
   -2.3510    3.5807    0.0000 O   0  0  0  0  0  0  0  0  0  0  0  0
  1  2  1  0
  1  4  1  0
  2  3  1  0
  3  6  1  0
  5  4  1  0
  5  6  1  0
  5 10  1  0
  6  7  1  0
  7  8  1  0
  8  9  1  0
  9 10  1  0
  4 11  1  0
 11 12  1  0
 12 13  1  0
 12 14  2  0
 10 15  1  0
 15 16  1  0
 16 17  1  0
 16 18  2  0
 17 19  2  0
 19 20  1  0
 20 21  2  0
 21 22  1  0
 22 23  2  0
 23 17  1  0
  5 24  1  0
  9 25  1  0
  3 26  1  0
  6 27  1  0
  8 28  1  0
 27 28  1  0
  7 29  1  0
 28 30  1  0
 28 31  1  0
 25 32  1  0
 32 33  1  0
 32 34  2  0
 33 35  2  3
 35 36  1  0
 36 37  2  0
 37 38  1  0
 38 39  2  0
 39 40  1  0
 40 41  2  0
 41 36  1  0
 29 42  1  0
 42 43  1  0
 42 44  2  0
 42 45  2  0
  3 46  1  0
M  END
>  <Classification>  (755) 
1

>  <pchembl>  (755) 
6.22

>  <InChI_steorem>  (755) 
InChI=1S/C34H40O11S/c1-21(35)41-24-19-20-32(4,38)34-28(44-46(6,39)40)26(31(2,3)45-34)27(42-25(36)18-17-22-13-9-7-10-14-22)29(33(24,34)5)43-30(37)23-15-11-8-12-16-23/h7-18,24,26-29,38H,19-20H2,1-6H3

>  <source>  (755) 
ChEMBL25

>  <source_id>  (755) 
25

>  <optional_reference>  (755) 
10.1021/acs.jmedchem.5b01429

>  <optional_origin>  (755) 
None

>  <target>  (755) 
MDR1

$$$$

     RDKit          2D

 46 50  0  0  0  0  0  0  0  0999 V2000
   -2.5800    0.7500    0.0000 C   0  0  0  0  0  0  0  0  0  0  0  0
   -2.5800    2.2400    0.0000 C   0  0  0  0  0  0  0  0  0  0  0  0
   -1.2900    3.0200    0.0000 C   0  0  0  0  0  0  0  0  0  0  0  0
   -1.2900    0.0100    0.0000 C   0  0  0  0  0  0  0  0  0  0  0  0
    0.0000    0.7400    0.0000 C   0  0  0  0  0  0  0  0  0  0  0  0
    0.0000    2.2900    0.0000 C   0  0  0  0  0  0  0  0  0  0  0  0
    1.3200    1.5200    0.0000 C   0  0  0  0  0  0  0  0  0  0  0  0
    3.2600    1.5200    0.0000 C   0  0  0  0  0  0  0  0  0  0  0  0
    2.5900    0.1900    0.0000 C   0  0  0  0  0  0  0  0  0  0  0  0
    1.1200   -0.1300    0.0000 C   0  0  0  0  0  0  0  0  0  0  0  0
   -2.2596   -1.1360    0.0000 O   0  0  0  0  0  0  0  0  0  0  0  0
   -3.7367   -0.8703    0.0000 C   0  0  0  0  0  0  0  0  0  0  0  0
   -4.1429    0.2588    0.0000 C   0  0  0  0  0  0  0  0  0  0  0  0
   -4.3826   -1.6338    0.0000 O   0  0  0  0  0  0  0  0  0  0  0  0
    0.7561   -1.5887    0.0000 O   0  0  0  0  0  0  0  0  0  0  0  0
   -0.4580   -2.4710    0.0000 C   0  0  0  0  0  0  0  0  0  0  0  0
   -0.3019   -3.9637    0.0000 C   0  0  0  0  0  0  0  0  0  0  0  0
   -1.3715   -2.0640    0.0000 O   0  0  0  0  0  0  0  0  0  0  0  0
   -1.5141   -4.8473    0.0000 C   0  0  0  0  0  0  0  0  0  0  0  0
   -1.3550   -6.3388    0.0000 C   0  0  0  0  0  0  0  0  0  0  0  0
    0.0162   -6.9468    0.0000 C   0  0  0  0  0  0  0  0  0  0  0  0
    1.2284   -6.0633    0.0000 C   0  0  0  0  0  0  0  0  0  0  0  0
    1.0693   -4.5718    0.0000 C   0  0  0  0  0  0  0  0  0  0  0  0
   -0.0872   -0.4568    0.0000 C   0  0  0  0  0  0  0  0  0  0  0  0
    3.8656   -0.6047    0.0000 O   0  0  0  0  0  0  0  0  0  0  0  0
   -0.2456    3.6110    0.0000 C   0  0  0  0  0  0  0  0  0  0  0  0
    1.1200    3.2400    0.0000 O   0  0  0  0  0  0  0  0  0  0  0  0
    2.5900    2.9100    0.0000 C   0  0  0  0  0  0  0  0  0  0  0  0
    1.2773    0.0143    0.0000 O   0  0  0  0  0  0  0  0  0  0  0  0
    3.7711    2.6979    0.0000 C   0  0  0  0  0  0  0  0  0  0  0  0
    2.1162    4.0125    0.0000 C   0  0  0  0  0  0  0  0  0  0  0  0
    5.1902    0.1009    0.0000 C   0  0  0  0  0  0  0  0  0  0  0  0
    6.4641   -0.6926    0.0000 C   0  0  0  0  0  0  0  0  0  0  0  0
    5.2308    1.3002    0.0000 O   0  0  0  0  0  0  0  0  0  0  0  0
    7.7887    0.0130    0.0000 C   0  0  0  0  0  0  0  0  0  0  0  0
    9.0626   -0.7805    0.0000 C   0  0  0  0  0  0  0  0  0  0  0  0
   10.3875   -0.0772    0.0000 C   0  0  0  0  0  0  0  0  0  0  0  0
   11.6591   -0.8728    0.0000 C   0  0  0  0  0  0  0  0  0  0  0  0
   11.6058   -2.3719    0.0000 C   0  0  0  0  0  0  0  0  0  0  0  0
   10.2810   -3.0753    0.0000 C   0  0  0  0  0  0  0  0  0  0  0  0
    9.0094   -2.2796    0.0000 C   0  0  0  0  0  0  0  0  0  0  0  0
    2.2105   -1.1611    0.0000 C   0  0  0  0  0  0  0  0  0  0  0  0
    1.6600   -2.5573    0.0000 C   0  0  0  0  0  0  0  0  0  0  0  0
    3.3974   -0.9844    0.0000 O   0  0  0  0  0  0  0  0  0  0  0  0
   -2.3510    3.5807    0.0000 O   0  0  0  0  0  0  0  0  0  0  0  0
    2.4062   -3.4971    0.0000 Br  0  0  0  0  0  0  0  0  0  0  0  0
  1  2  1  0
  1  4  1  0
  2  3  1  0
  3  6  1  0
  5  4  1  0
  5  6  1  0
  5 10  1  0
  6  7  1  0
  7  8  1  0
  8  9  1  0
  9 10  1  0
  4 11  1  0
 11 12  1  0
 12 13  1  0
 12 14  2  0
 10 15  1  0
 15 16  1  0
 16 17  1  0
 16 18  2  0
 17 19  2  0
 19 20  1  0
 20 21  2  0
 21 22  1  0
 22 23  2  0
 23 17  1  0
  5 24  1  0
  9 25  1  0
  3 26  1  0
  6 27  1  0
  8 28  1  0
 27 28  1  0
  7 29  1  0
 28 30  1  0
 28 31  1  0
 25 32  1  0
 32 33  1  0
 32 34  2  0
 33 35  2  3
 35 36  1  0
 36 37  2  0
 37 38  1  0
 38 39  2  0
 39 40  1  0
 40 41  2  0
 41 36  1  0
 29 42  1  0
 42 43  1  0
 42 44  2  0
  3 45  1  0
 43 46  1  0
M  END
>  <Classification>  (756) 
1

>  <pchembl>  (756) 
6.51

>  <InChI_steorem>  (756) 
InChI=1S/C35H39BrO10/c1-21(37)42-24-18-19-33(4,41)35-29(44-26(39)20-36)27(32(2,3)46-35)28(43-25(38)17-16-22-12-8-6-9-13-22)30(34(24,35)5)45-31(40)23-14-10-7-11-15-23/h6-17,24,27-30,41H,18-20H2,1-5H3

>  <source>  (756) 
ChEMBL25

>  <source_id>  (756) 
25

>  <optional_reference>  (756) 
10.1021/acs.jmedchem.5b01429

>  <optional_origin>  (756) 
None

>  <target>  (756) 
MDR1

$$$$

     RDKit          2D

 46 50  0  0  0  0  0  0  0  0999 V2000
   -2.5800    0.7500    0.0000 C   0  0  0  0  0  0  0  0  0  0  0  0
   -2.5800    2.2400    0.0000 C   0  0  0  0  0  0  0  0  0  0  0  0
   -1.2900    3.0200    0.0000 C   0  0  0  0  0  0  0  0  0  0  0  0
   -1.2900    0.0100    0.0000 C   0  0  0  0  0  0  0  0  0  0  0  0
    0.0000    0.7400    0.0000 C   0  0  0  0  0  0  0  0  0  0  0  0
    0.0000    2.2900    0.0000 C   0  0  0  0  0  0  0  0  0  0  0  0
    1.3200    1.5200    0.0000 C   0  0  0  0  0  0  0  0  0  0  0  0
    3.2600    1.5200    0.0000 C   0  0  0  0  0  0  0  0  0  0  0  0
    2.5900    0.1900    0.0000 C   0  0  0  0  0  0  0  0  0  0  0  0
    1.1200   -0.1300    0.0000 C   0  0  0  0  0  0  0  0  0  0  0  0
   -2.2596   -1.1360    0.0000 O   0  0  0  0  0  0  0  0  0  0  0  0
   -3.7367   -0.8703    0.0000 C   0  0  0  0  0  0  0  0  0  0  0  0
   -4.1429    0.2588    0.0000 C   0  0  0  0  0  0  0  0  0  0  0  0
   -4.3826   -1.6338    0.0000 O   0  0  0  0  0  0  0  0  0  0  0  0
    0.7561   -1.5887    0.0000 O   0  0  0  0  0  0  0  0  0  0  0  0
   -0.4580   -2.4710    0.0000 C   0  0  0  0  0  0  0  0  0  0  0  0
   -0.3019   -3.9637    0.0000 C   0  0  0  0  0  0  0  0  0  0  0  0
   -1.3715   -2.0640    0.0000 O   0  0  0  0  0  0  0  0  0  0  0  0
   -1.5141   -4.8473    0.0000 C   0  0  0  0  0  0  0  0  0  0  0  0
   -1.3550   -6.3388    0.0000 C   0  0  0  0  0  0  0  0  0  0  0  0
    0.0162   -6.9468    0.0000 C   0  0  0  0  0  0  0  0  0  0  0  0
    1.2284   -6.0633    0.0000 C   0  0  0  0  0  0  0  0  0  0  0  0
    1.0693   -4.5718    0.0000 C   0  0  0  0  0  0  0  0  0  0  0  0
   -0.0872   -0.4568    0.0000 C   0  0  0  0  0  0  0  0  0  0  0  0
    3.8656   -0.6047    0.0000 O   0  0  0  0  0  0  0  0  0  0  0  0
   -0.2456    3.6110    0.0000 C   0  0  0  0  0  0  0  0  0  0  0  0
    1.1200    3.2400    0.0000 O   0  0  0  0  0  0  0  0  0  0  0  0
    2.5900    2.9100    0.0000 C   0  0  0  0  0  0  0  0  0  0  0  0
    1.2773    0.0143    0.0000 O   0  0  0  0  0  0  0  0  0  0  0  0
    3.7711    2.6979    0.0000 C   0  0  0  0  0  0  0  0  0  0  0  0
    2.1162    4.0125    0.0000 C   0  0  0  0  0  0  0  0  0  0  0  0
    5.1902    0.1009    0.0000 C   0  0  0  0  0  0  0  0  0  0  0  0
    6.4641   -0.6926    0.0000 C   0  0  0  0  0  0  0  0  0  0  0  0
    5.2308    1.3002    0.0000 O   0  0  0  0  0  0  0  0  0  0  0  0
    7.7887    0.0130    0.0000 C   0  0  0  0  0  0  0  0  0  0  0  0
    9.0626   -0.7805    0.0000 C   0  0  0  0  0  0  0  0  0  0  0  0
   10.3875   -0.0772    0.0000 C   0  0  0  0  0  0  0  0  0  0  0  0
   11.6591   -0.8728    0.0000 C   0  0  0  0  0  0  0  0  0  0  0  0
   11.6058   -2.3719    0.0000 C   0  0  0  0  0  0  0  0  0  0  0  0
   10.2810   -3.0753    0.0000 C   0  0  0  0  0  0  0  0  0  0  0  0
    9.0094   -2.2796    0.0000 C   0  0  0  0  0  0  0  0  0  0  0  0
    2.2105   -1.1611    0.0000 C   0  0  0  0  0  0  0  0  0  0  0  0
    1.6600   -2.5573    0.0000 C   0  0  0  0  0  0  0  0  0  0  0  0
    3.3974   -0.9844    0.0000 O   0  0  0  0  0  0  0  0  0  0  0  0
   -2.3510    3.5807    0.0000 O   0  0  0  0  0  0  0  0  0  0  0  0
    2.4062   -3.4971    0.0000 C   0  0  0  0  0  0  0  0  0  0  0  0
  1  2  1  0
  1  4  1  0
  2  3  1  0
  3  6  1  0
  5  4  1  0
  5  6  1  0
  5 10  1  0
  6  7  1  0
  7  8  1  0
  8  9  1  0
  9 10  1  0
  4 11  1  0
 11 12  1  0
 12 13  1  0
 12 14  2  0
 10 15  1  0
 15 16  1  0
 16 17  1  0
 16 18  2  0
 17 19  2  0
 19 20  1  0
 20 21  2  0
 21 22  1  0
 22 23  2  0
 23 17  1  0
  5 24  1  0
  9 25  1  0
  3 26  1  0
  6 27  1  0
  8 28  1  0
 27 28  1  0
  7 29  1  0
 28 30  1  0
 28 31  1  0
 25 32  1  0
 32 33  1  0
 32 34  2  0
 33 35  2  3
 35 36  1  0
 36 37  2  0
 37 38  1  0
 38 39  2  0
 39 40  1  0
 40 41  2  0
 41 36  1  0
 29 42  1  0
 42 43  1  0
 42 44  2  0
  3 45  1  0
 43 46  1  0
M  END
>  <Classification>  (757) 
1

>  <pchembl>  (757) 
6.27

>  <InChI_steorem>  (757) 
InChI=1S/C36H42O10/c1-7-26(38)44-30-28-29(43-27(39)19-18-23-14-10-8-11-15-23)31(45-32(40)24-16-12-9-13-17-24)35(6)25(42-22(2)37)20-21-34(5,41)36(30,35)46-33(28,3)4/h8-19,25,28-31,41H,7,20-21H2,1-6H3

>  <source>  (757) 
ChEMBL25

>  <source_id>  (757) 
25

>  <optional_reference>  (757) 
10.1021/acs.jmedchem.5b01429

>  <optional_origin>  (757) 
None

>  <target>  (757) 
MDR1

$$$$

     RDKit          2D

 46 50  0  0  0  0  0  0  0  0999 V2000
   -2.5800    0.7500    0.0000 C   0  0  0  0  0  0  0  0  0  0  0  0
   -2.5800    2.2400    0.0000 C   0  0  0  0  0  0  0  0  0  0  0  0
   -1.2900    3.0200    0.0000 C   0  0  0  0  0  0  0  0  0  0  0  0
   -1.2900    0.0100    0.0000 C   0  0  0  0  0  0  0  0  0  0  0  0
    0.0000    0.7400    0.0000 C   0  0  0  0  0  0  0  0  0  0  0  0
    0.0000    2.2900    0.0000 C   0  0  0  0  0  0  0  0  0  0  0  0
    1.3200    1.5200    0.0000 C   0  0  0  0  0  0  0  0  0  0  0  0
    3.2600    1.5200    0.0000 C   0  0  0  0  0  0  0  0  0  0  0  0
    2.5900    0.1900    0.0000 C   0  0  0  0  0  0  0  0  0  0  0  0
    1.1200   -0.1300    0.0000 C   0  0  0  0  0  0  0  0  0  0  0  0
   -2.2596   -1.1360    0.0000 O   0  0  0  0  0  0  0  0  0  0  0  0
   -3.7367   -0.8703    0.0000 C   0  0  0  0  0  0  0  0  0  0  0  0
   -4.1429    0.2588    0.0000 C   0  0  0  0  0  0  0  0  0  0  0  0
   -4.3826   -1.6338    0.0000 O   0  0  0  0  0  0  0  0  0  0  0  0
    0.7561   -1.5887    0.0000 O   0  0  0  0  0  0  0  0  0  0  0  0
   -0.4580   -2.4710    0.0000 C   0  0  0  0  0  0  0  0  0  0  0  0
   -0.3019   -3.9637    0.0000 C   0  0  0  0  0  0  0  0  0  0  0  0
   -1.3715   -2.0640    0.0000 O   0  0  0  0  0  0  0  0  0  0  0  0
   -1.5141   -4.8473    0.0000 C   0  0  0  0  0  0  0  0  0  0  0  0
   -1.3550   -6.3388    0.0000 C   0  0  0  0  0  0  0  0  0  0  0  0
    0.0162   -6.9468    0.0000 C   0  0  0  0  0  0  0  0  0  0  0  0
    1.2284   -6.0633    0.0000 C   0  0  0  0  0  0  0  0  0  0  0  0
    1.0693   -4.5718    0.0000 C   0  0  0  0  0  0  0  0  0  0  0  0
   -0.0872   -0.4568    0.0000 C   0  0  0  0  0  0  0  0  0  0  0  0
    3.8656   -0.6047    0.0000 O   0  0  0  0  0  0  0  0  0  0  0  0
   -0.2456    3.6110    0.0000 C   0  0  0  0  0  0  0  0  0  0  0  0
    1.1200    3.2400    0.0000 O   0  0  0  0  0  0  0  0  0  0  0  0
    2.5900    2.9100    0.0000 C   0  0  0  0  0  0  0  0  0  0  0  0
    1.2773    0.0143    0.0000 O   0  0  0  0  0  0  0  0  0  0  0  0
    3.7711    2.6979    0.0000 C   0  0  0  0  0  0  0  0  0  0  0  0
    2.1162    4.0125    0.0000 C   0  0  0  0  0  0  0  0  0  0  0  0
    5.1902    0.1009    0.0000 C   0  0  0  0  0  0  0  0  0  0  0  0
    6.4641   -0.6926    0.0000 C   0  0  0  0  0  0  0  0  0  0  0  0
    5.2308    1.3002    0.0000 O   0  0  0  0  0  0  0  0  0  0  0  0
    7.7887    0.0130    0.0000 C   0  0  0  0  0  0  0  0  0  0  0  0
    9.0626   -0.7805    0.0000 C   0  0  0  0  0  0  0  0  0  0  0  0
   10.3875   -0.0772    0.0000 C   0  0  0  0  0  0  0  0  0  0  0  0
   11.6591   -0.8728    0.0000 C   0  0  0  0  0  0  0  0  0  0  0  0
   11.6058   -2.3719    0.0000 C   0  0  0  0  0  0  0  0  0  0  0  0
   10.2810   -3.0753    0.0000 C   0  0  0  0  0  0  0  0  0  0  0  0
    9.0094   -2.2796    0.0000 C   0  0  0  0  0  0  0  0  0  0  0  0
    2.2105   -1.1611    0.0000 C   0  0  0  0  0  0  0  0  0  0  0  0
    1.6600   -2.5573    0.0000 C   0  0  0  0  0  0  0  0  0  0  0  0
    3.3974   -0.9844    0.0000 O   0  0  0  0  0  0  0  0  0  0  0  0
   -2.3510    3.5807    0.0000 O   0  0  0  0  0  0  0  0  0  0  0  0
    2.4062   -3.4971    0.0000 Cl  0  0  0  0  0  0  0  0  0  0  0  0
  1  2  1  0
  1  4  1  0
  2  3  1  0
  3  6  1  0
  5  4  1  0
  5  6  1  0
  5 10  1  0
  6  7  1  0
  7  8  1  0
  8  9  1  0
  9 10  1  0
  4 11  1  0
 11 12  1  0
 12 13  1  0
 12 14  2  0
 10 15  1  0
 15 16  1  0
 16 17  1  0
 16 18  2  0
 17 19  2  0
 19 20  1  0
 20 21  2  0
 21 22  1  0
 22 23  2  0
 23 17  1  0
  5 24  1  0
  9 25  1  0
  3 26  1  0
  6 27  1  0
  8 28  1  0
 27 28  1  0
  7 29  1  0
 28 30  1  0
 28 31  1  0
 25 32  1  0
 32 33  1  0
 32 34  2  0
 33 35  2  3
 35 36  1  0
 36 37  2  0
 37 38  1  0
 38 39  2  0
 39 40  1  0
 40 41  2  0
 41 36  1  0
 29 42  1  0
 42 43  1  0
 42 44  2  0
  3 45  1  0
 43 46  1  0
M  END
>  <Classification>  (758) 
1

>  <pchembl>  (758) 
5.82

>  <InChI_steorem>  (758) 
InChI=1S/C35H39ClO10/c1-21(37)42-24-18-19-33(4,41)35-29(44-26(39)20-36)27(32(2,3)46-35)28(43-25(38)17-16-22-12-8-6-9-13-22)30(34(24,35)5)45-31(40)23-14-10-7-11-15-23/h6-17,24,27-30,41H,18-20H2,1-5H3

>  <source>  (758) 
ChEMBL25

>  <source_id>  (758) 
25

>  <optional_reference>  (758) 
10.1021/acs.jmedchem.5b01429

>  <optional_origin>  (758) 
None

>  <target>  (758) 
MDR1

$$$$

     RDKit          2D

 47 51  0  0  0  0  0  0  0  0999 V2000
    2.2790   -0.4642    0.0000 C   0  0  0  0  0  0  0  0  0  0  0  0
    2.9799    0.8507    0.0000 C   0  0  0  0  0  0  0  0  0  0  0  0
    2.2085    2.1458    0.0000 C   0  0  0  0  0  0  0  0  0  0  0  0
    0.7926   -0.5104    0.0000 C   0  0  0  0  0  0  0  0  0  0  0  0
   -0.0024    0.7406    0.0000 C   0  0  0  0  0  0  0  0  0  0  0  0
    0.7267    2.1084    0.0000 C   0  0  0  0  0  0  0  0  0  0  0  0
   -0.8003    2.0498    0.0000 C   0  0  0  0  0  0  0  0  0  0  0  0
   -2.5123    2.9624    0.0000 C   0  0  0  0  0  0  0  0  0  0  0  0
   -2.5467    1.4736    0.0000 C   0  0  0  0  0  0  0  0  0  0  0  0
   -1.4000    0.4997    0.0000 C   0  0  0  0  0  0  0  0  0  0  0  0
    0.0919   -1.8379    0.0000 O   0  0  0  0  0  0  0  0  0  0  0  0
    0.8902   -3.1088    0.0000 C   0  0  0  0  0  0  0  0  0  0  0  0
    2.0893   -3.0637    0.0000 C   0  0  0  0  0  0  0  0  0  0  0  0
    0.4234   -3.9932    0.0000 O   0  0  0  0  0  0  0  0  0  0  0  0
   -1.7650   -0.9587    0.0000 O   0  0  0  0  0  0  0  0  0  0  0  0
   -1.1086   -2.3084    0.0000 C   0  0  0  0  0  0  0  0  0  0  0  0
   -1.9485   -3.5522    0.0000 C   0  0  0  0  0  0  0  0  0  0  0  0
   -0.1111   -2.3790    0.0000 O   0  0  0  0  0  0  0  0  0  0  0  0
   -3.4451   -3.4499    0.0000 C   0  0  0  0  0  0  0  0  0  0  0  0
   -4.2820   -4.6947    0.0000 C   0  0  0  0  0  0  0  0  0  0  0  0
   -3.6224   -6.0419    0.0000 C   0  0  0  0  0  0  0  0  0  0  0  0
   -2.1259   -6.1443    0.0000 C   0  0  0  0  0  0  0  0  0  0  0  0
   -1.2890   -4.8995    0.0000 C   0  0  0  0  0  0  0  0  0  0  0  0
   -0.4884   -0.3566    0.0000 C   0  0  0  0  0  0  0  0  0  0  0  0
   -4.0462    1.3723    0.0000 O   0  0  0  0  0  0  0  0  0  0  0  0
    1.5648    3.1586    0.0000 C   0  0  0  0  0  0  0  0  0  0  0  0
    0.1852    3.4736    0.0000 O   0  0  0  0  0  0  0  0  0  0  0  0
   -1.2672    3.8739    0.0000 C   0  0  0  0  0  0  0  0  0  0  0  0
   -1.4709    0.7010    0.0000 O   0  0  0  0  0  0  0  0  0  0  0  0
   -2.4093    4.2423    0.0000 C   0  0  0  0  0  0  0  0  0  0  0  0
   -0.3305    4.6239    0.0000 C   0  0  0  0  0  0  0  0  0  0  0  0
   -4.8832    2.6181    0.0000 C   0  0  0  0  0  0  0  0  0  0  0  0
   -6.3806    2.5171    0.0000 C   0  0  0  0  0  0  0  0  0  0  0  0
   -4.3548    3.6955    0.0000 O   0  0  0  0  0  0  0  0  0  0  0  0
   -7.2176    3.7628    0.0000 C   0  0  0  0  0  0  0  0  0  0  0  0
   -8.7150    3.6618    0.0000 C   0  0  0  0  0  0  0  0  0  0  0  0
   -9.5533    4.9057    0.0000 C   0  0  0  0  0  0  0  0  0  0  0  0
  -11.0497    4.8017    0.0000 C   0  0  0  0  0  0  0  0  0  0  0  0
  -11.7079    3.4538    0.0000 C   0  0  0  0  0  0  0  0  0  0  0  0
  -10.8696    2.2099    0.0000 C   0  0  0  0  0  0  0  0  0  0  0  0
   -9.3732    2.3139    0.0000 C   0  0  0  0  0  0  0  0  0  0  0  0
   -2.8473    0.1028    0.0000 C   0  0  0  0  0  0  0  0  0  0  0  0
   -3.8116    0.8170    0.0000 O   0  0  0  0  0  0  0  0  0  0  0  0
    3.4085    2.1415    0.0000 O   0  0  0  0  0  0  0  0  0  0  0  0
   -3.0183   -1.3883    0.0000 N   0  0  0  0  0  0  0  0  0  0  0  0
   -2.0547   -2.1034    0.0000 C   0  0  0  0  0  0  0  0  0  0  0  0
   -3.9358   -1.7861    0.0000 C   0  0  0  0  0  0  0  0  0  0  0  0
  1  2  1  0
  1  4  1  0
  2  3  1  0
  3  6  1  0
  5  4  1  0
  5  6  1  0
  5 10  1  0
  6  7  1  0
  7  8  1  0
  8  9  1  0
  9 10  1  0
  4 11  1  0
 11 12  1  0
 12 13  1  0
 12 14  2  0
 10 15  1  0
 15 16  1  0
 16 17  1  0
 16 18  2  0
 17 19  2  0
 19 20  1  0
 20 21  2  0
 21 22  1  0
 22 23  2  0
 23 17  1  0
  5 24  1  0
  9 25  1  0
  3 26  1  0
  6 27  1  0
  8 28  1  0
 27 28  1  0
  7 29  1  0
 28 30  1  0
 28 31  1  0
 25 32  1  0
 32 33  1  0
 32 34  2  0
 33 35  2  3
 35 36  1  0
 36 37  2  0
 37 38  1  0
 38 39  2  0
 39 40  1  0
 40 41  2  0
 41 36  1  0
 29 42  1  0
 42 43  2  0
  3 44  1  0
 42 45  1  0
 45 46  1  0
 45 47  1  0
M  END
>  <Classification>  (759) 
1

>  <pchembl>  (759) 
5.92

>  <InChI_steorem>  (759) 
InChI=1S/C36H43NO10/c1-22(38)43-25-20-21-34(4,42)36-29(46-32(41)37(6)7)27(33(2,3)47-36)28(44-26(39)19-18-23-14-10-8-11-15-23)30(35(25,36)5)45-31(40)24-16-12-9-13-17-24/h8-19,25,27-30,42H,20-21H2,1-7H3

>  <source>  (759) 
ChEMBL25

>  <source_id>  (759) 
25

>  <optional_reference>  (759) 
10.1021/acs.jmedchem.5b01429

>  <optional_origin>  (759) 
None

>  <target>  (759) 
MDR1

$$$$

     RDKit          2D

 47 51  0  0  0  0  0  0  0  0999 V2000
   -2.5800    0.7500    0.0000 C   0  0  0  0  0  0  0  0  0  0  0  0
   -2.5800    2.2400    0.0000 C   0  0  0  0  0  0  0  0  0  0  0  0
   -1.2900    3.0200    0.0000 C   0  0  0  0  0  0  0  0  0  0  0  0
   -1.2900    0.0100    0.0000 C   0  0  0  0  0  0  0  0  0  0  0  0
    0.0000    0.7400    0.0000 C   0  0  0  0  0  0  0  0  0  0  0  0
    0.0000    2.2900    0.0000 C   0  0  0  0  0  0  0  0  0  0  0  0
    1.3200    1.5200    0.0000 C   0  0  0  0  0  0  0  0  0  0  0  0
    3.2600    1.5200    0.0000 C   0  0  0  0  0  0  0  0  0  0  0  0
    2.5900    0.1900    0.0000 C   0  0  0  0  0  0  0  0  0  0  0  0
    1.1200   -0.1300    0.0000 C   0  0  0  0  0  0  0  0  0  0  0  0
   -1.8091   -1.3985    0.0000 O   0  0  0  0  0  0  0  0  0  0  0  0
   -3.2881   -1.6541    0.0000 C   0  0  0  0  0  0  0  0  0  0  0  0
   -4.0560   -0.7319    0.0000 C   0  0  0  0  0  0  0  0  0  0  0  0
   -3.6339   -2.5924    0.0000 O   0  0  0  0  0  0  0  0  0  0  0  0
    1.2769   -1.6252    0.0000 O   0  0  0  0  0  0  0  0  0  0  0  0
    2.6477   -2.2362    0.0000 C   0  0  0  0  0  0  0  0  0  0  0  0
    2.8049   -3.7288    0.0000 C   0  0  0  0  0  0  0  0  0  0  0  0
    3.4568   -1.6486    0.0000 O   0  0  0  0  0  0  0  0  0  0  0  0
    4.1740   -4.3415    0.0000 C   0  0  0  0  0  0  0  0  0  0  0  0
    4.3281   -5.8336    0.0000 C   0  0  0  0  0  0  0  0  0  0  0  0
    3.1129   -6.7130    0.0000 C   0  0  0  0  0  0  0  0  0  0  0  0
    1.7437   -6.1004    0.0000 C   0  0  0  0  0  0  0  0  0  0  0  0
    1.5897   -4.6083    0.0000 C   0  0  0  0  0  0  0  0  0  0  0  0
   -0.0872   -0.4568    0.0000 C   0  0  0  0  0  0  0  0  0  0  0  0
    3.8656   -0.6047    0.0000 O   0  0  0  0  0  0  0  0  0  0  0  0
   -0.2456    3.6110    0.0000 C   0  0  0  0  0  0  0  0  0  0  0  0
    1.1200    3.2400    0.0000 O   0  0  0  0  0  0  0  0  0  0  0  0
    2.5900    2.9100    0.0000 C   0  0  0  0  0  0  0  0  0  0  0  0
    1.2773    0.0143    0.0000 O   0  0  0  0  0  0  0  0  0  0  0  0
    3.7711    2.6979    0.0000 C   0  0  0  0  0  0  0  0  0  0  0  0
    2.1162    4.0125    0.0000 C   0  0  0  0  0  0  0  0  0  0  0  0
    5.1902    0.1009    0.0000 C   0  0  0  0  0  0  0  0  0  0  0  0
    6.4641   -0.6926    0.0000 C   0  0  0  0  0  0  0  0  0  0  0  0
    5.2308    1.3002    0.0000 O   0  0  0  0  0  0  0  0  0  0  0  0
    7.7887    0.0130    0.0000 C   0  0  0  0  0  0  0  0  0  0  0  0
    9.0626   -0.7805    0.0000 C   0  0  0  0  0  0  0  0  0  0  0  0
   10.3875   -0.0772    0.0000 C   0  0  0  0  0  0  0  0  0  0  0  0
   11.6591   -0.8728    0.0000 C   0  0  0  0  0  0  0  0  0  0  0  0
   11.6058   -2.3719    0.0000 C   0  0  0  0  0  0  0  0  0  0  0  0
   10.2810   -3.0753    0.0000 C   0  0  0  0  0  0  0  0  0  0  0  0
    9.0094   -2.2796    0.0000 C   0  0  0  0  0  0  0  0  0  0  0  0
    2.2105   -1.1611    0.0000 C   0  0  0  0  0  0  0  0  0  0  0  0
    1.6600   -2.5573    0.0000 C   0  0  0  0  0  0  0  0  0  0  0  0
    3.3974   -0.9844    0.0000 O   0  0  0  0  0  0  0  0  0  0  0  0
   -2.3510    3.5807    0.0000 O   0  0  0  0  0  0  0  0  0  0  0  0
    0.1758   -2.7797    0.0000 C   0  0  0  0  0  0  0  0  0  0  0  0
   -0.2644   -3.8961    0.0000 C   0  0  0  0  0  0  0  0  0  0  0  0
  1  2  1  0
  1  4  1  0
  2  3  1  0
  3  6  1  0
  5  4  1  0
  5  6  1  0
  5 10  1  0
  6  7  1  0
  7  8  1  0
  8  9  1  0
  9 10  1  0
  4 11  1  0
 11 12  1  0
 12 13  1  0
 12 14  2  0
 10 15  1  0
 15 16  1  0
 16 17  1  0
 16 18  2  0
 17 19  2  0
 19 20  1  0
 20 21  2  0
 21 22  1  0
 22 23  2  0
 23 17  1  0
  5 24  1  0
  9 25  1  0
  3 26  1  0
  6 27  1  0
  8 28  1  0
 27 28  1  0
  7 29  1  0
 28 30  1  0
 28 31  1  0
 25 32  1  0
 32 33  1  0
 32 34  2  0
 33 35  2  3
 35 36  1  0
 36 37  2  0
 37 38  1  0
 38 39  2  0
 39 40  1  0
 40 41  2  0
 41 36  1  0
 29 42  1  0
 42 43  1  0
 42 44  2  0
  3 45  1  0
 43 46  1  0
 46 47  1  0
M  END
>  <Classification>  (760) 
1

>  <pchembl>  (760) 
6.5

>  <InChI_steorem>  (760) 
InChI=1S/C37H44O10/c1-7-14-27(39)45-31-29-30(44-28(40)20-19-24-15-10-8-11-16-24)32(46-33(41)25-17-12-9-13-18-25)36(6)26(43-23(2)38)21-22-35(5,42)37(31,36)47-34(29,3)4/h8-13,15-20,26,29-32,42H,7,14,21-22H2,1-6H3

>  <source>  (760) 
ChEMBL25

>  <source_id>  (760) 
25

>  <optional_reference>  (760) 
10.1021/acs.jmedchem.5b01429

>  <optional_origin>  (760) 
None

>  <target>  (760) 
MDR1

$$$$

     RDKit          2D

 47 52  0  0  0  0  0  0  0  0999 V2000
    2.2790   -0.4642    0.0000 C   0  0  0  0  0  0  0  0  0  0  0  0
    2.9799    0.8507    0.0000 C   0  0  0  0  0  0  0  0  0  0  0  0
    2.2085    2.1458    0.0000 C   0  0  0  0  0  0  0  0  0  0  0  0
    0.7926   -0.5104    0.0000 C   0  0  0  0  0  0  0  0  0  0  0  0
   -0.0024    0.7406    0.0000 C   0  0  0  0  0  0  0  0  0  0  0  0
    0.7267    2.1084    0.0000 C   0  0  0  0  0  0  0  0  0  0  0  0
   -0.8003    2.0498    0.0000 C   0  0  0  0  0  0  0  0  0  0  0  0
   -2.5123    2.9624    0.0000 C   0  0  0  0  0  0  0  0  0  0  0  0
   -2.5467    1.4736    0.0000 C   0  0  0  0  0  0  0  0  0  0  0  0
   -1.4000    0.4997    0.0000 C   0  0  0  0  0  0  0  0  0  0  0  0
    0.0919   -1.8379    0.0000 O   0  0  0  0  0  0  0  0  0  0  0  0
    0.8902   -3.1088    0.0000 C   0  0  0  0  0  0  0  0  0  0  0  0
    2.0893   -3.0637    0.0000 C   0  0  0  0  0  0  0  0  0  0  0  0
    0.4234   -3.9932    0.0000 O   0  0  0  0  0  0  0  0  0  0  0  0
   -1.7650   -0.9587    0.0000 O   0  0  0  0  0  0  0  0  0  0  0  0
   -1.1086   -2.3084    0.0000 C   0  0  0  0  0  0  0  0  0  0  0  0
   -1.9485   -3.5522    0.0000 C   0  0  0  0  0  0  0  0  0  0  0  0
   -0.1111   -2.3790    0.0000 O   0  0  0  0  0  0  0  0  0  0  0  0
   -3.4451   -3.4499    0.0000 C   0  0  0  0  0  0  0  0  0  0  0  0
   -4.2820   -4.6947    0.0000 C   0  0  0  0  0  0  0  0  0  0  0  0
   -3.6224   -6.0419    0.0000 C   0  0  0  0  0  0  0  0  0  0  0  0
   -2.1259   -6.1443    0.0000 C   0  0  0  0  0  0  0  0  0  0  0  0
   -1.2890   -4.8995    0.0000 C   0  0  0  0  0  0  0  0  0  0  0  0
   -0.4884   -0.3566    0.0000 C   0  0  0  0  0  0  0  0  0  0  0  0
   -4.0462    1.3723    0.0000 O   0  0  0  0  0  0  0  0  0  0  0  0
    1.5648    3.1586    0.0000 C   0  0  0  0  0  0  0  0  0  0  0  0
    0.1852    3.4736    0.0000 O   0  0  0  0  0  0  0  0  0  0  0  0
   -1.2672    3.8739    0.0000 C   0  0  0  0  0  0  0  0  0  0  0  0
   -1.4709    0.7010    0.0000 O   0  0  0  0  0  0  0  0  0  0  0  0
   -2.4093    4.2423    0.0000 C   0  0  0  0  0  0  0  0  0  0  0  0
   -0.3305    4.6239    0.0000 C   0  0  0  0  0  0  0  0  0  0  0  0
   -4.8832    2.6181    0.0000 C   0  0  0  0  0  0  0  0  0  0  0  0
   -6.3806    2.5171    0.0000 C   0  0  0  0  0  0  0  0  0  0  0  0
   -4.3548    3.6955    0.0000 O   0  0  0  0  0  0  0  0  0  0  0  0
   -7.2176    3.7628    0.0000 C   0  0  0  0  0  0  0  0  0  0  0  0
   -8.7150    3.6618    0.0000 C   0  0  0  0  0  0  0  0  0  0  0  0
   -9.5533    4.9057    0.0000 C   0  0  0  0  0  0  0  0  0  0  0  0
  -11.0497    4.8017    0.0000 C   0  0  0  0  0  0  0  0  0  0  0  0
  -11.7079    3.4538    0.0000 C   0  0  0  0  0  0  0  0  0  0  0  0
  -10.8696    2.2099    0.0000 C   0  0  0  0  0  0  0  0  0  0  0  0
   -9.3732    2.3139    0.0000 C   0  0  0  0  0  0  0  0  0  0  0  0
   -2.8473    0.1028    0.0000 C   0  0  0  0  0  0  0  0  0  0  0  0
   -3.0183   -1.3883    0.0000 C   0  0  0  0  0  0  0  0  0  0  0  0
   -3.8116    0.8170    0.0000 O   0  0  0  0  0  0  0  0  0  0  0  0
    3.4085    2.1415    0.0000 O   0  0  0  0  0  0  0  0  0  0  0  0
   -3.8987   -2.5044    0.0000 C   0  0  0  0  0  0  0  0  0  0  0  0
   -2.4081   -2.6722    0.0000 C   0  0  0  0  0  0  0  0  0  0  0  0
  1  2  1  0
  1  4  1  0
  2  3  1  0
  3  6  1  0
  5  4  1  0
  5  6  1  0
  5 10  1  0
  6  7  1  0
  7  8  1  0
  8  9  1  0
  9 10  1  0
  4 11  1  0
 11 12  1  0
 12 13  1  0
 12 14  2  0
 10 15  1  0
 15 16  1  0
 16 17  1  0
 16 18  2  0
 17 19  2  0
 19 20  1  0
 20 21  2  0
 21 22  1  0
 22 23  2  0
 23 17  1  0
  5 24  1  0
  9 25  1  0
  3 26  1  0
  6 27  1  0
  8 28  1  0
 27 28  1  0
  7 29  1  0
 28 30  1  0
 28 31  1  0
 25 32  1  0
 32 33  1  0
 32 34  2  0
 33 35  2  3
 35 36  1  0
 36 37  2  0
 37 38  1  0
 38 39  2  0
 39 40  1  0
 40 41  2  0
 41 36  1  0
 29 42  1  0
 42 43  1  0
 42 44  2  0
  3 45  1  0
 46 43  1  0
 47 46  1  0
 43 47  1  0
M  END
>  <Classification>  (761) 
1

>  <pchembl>  (761) 
6.62

>  <InChI_steorem>  (761) 
InChI=1S/C37H42O10/c1-22(38)43-26-20-21-35(4,42)37-30(45-33(41)25-17-18-25)28(34(2,3)47-37)29(44-27(39)19-16-23-12-8-6-9-13-23)31(36(26,37)5)46-32(40)24-14-10-7-11-15-24/h6-16,19,25-26,28-31,42H,17-18,20-21H2,1-5H3

>  <source>  (761) 
ChEMBL25

>  <source_id>  (761) 
25

>  <optional_reference>  (761) 
10.1021/acs.jmedchem.5b01429

>  <optional_origin>  (761) 
None

>  <target>  (761) 
MDR1

$$$$

     RDKit          2D

 48 52  0  0  0  0  0  0  0  0999 V2000
   -2.5800    0.7500    0.0000 C   0  0  0  0  0  0  0  0  0  0  0  0
   -2.5800    2.2400    0.0000 C   0  0  0  0  0  0  0  0  0  0  0  0
   -1.2900    3.0200    0.0000 C   0  0  0  0  0  0  0  0  0  0  0  0
   -1.2900    0.0100    0.0000 C   0  0  0  0  0  0  0  0  0  0  0  0
    0.0000    0.7400    0.0000 C   0  0  0  0  0  0  0  0  0  0  0  0
    0.0000    2.2900    0.0000 C   0  0  0  0  0  0  0  0  0  0  0  0
    1.3200    1.5200    0.0000 C   0  0  0  0  0  0  0  0  0  0  0  0
    3.2600    1.5200    0.0000 C   0  0  0  0  0  0  0  0  0  0  0  0
    2.5900    0.1900    0.0000 C   0  0  0  0  0  0  0  0  0  0  0  0
    1.1200   -0.1300    0.0000 C   0  0  0  0  0  0  0  0  0  0  0  0
   -1.2961   -1.4911    0.0000 O   0  0  0  0  0  0  0  0  0  0  0  0
   -2.5984   -2.2371    0.0000 C   0  0  0  0  0  0  0  0  0  0  0  0
   -3.6354   -1.6332    0.0000 C   0  0  0  0  0  0  0  0  0  0  0  0
   -2.6025   -3.2371    0.0000 O   0  0  0  0  0  0  0  0  0  0  0  0
    0.2791   -1.3762    0.0000 O   0  0  0  0  0  0  0  0  0  0  0  0
    0.9364   -2.7255    0.0000 C   0  0  0  0  0  0  0  0  0  0  0  0
    0.0974   -3.9699    0.0000 C   0  0  0  0  0  0  0  0  0  0  0  0
    1.9340   -2.7953    0.0000 O   0  0  0  0  0  0  0  0  0  0  0  0
    0.7524   -5.3193    0.0000 C   0  0  0  0  0  0  0  0  0  0  0  0
   -0.0887   -6.5613    0.0000 C   0  0  0  0  0  0  0  0  0  0  0  0
   -1.5848   -6.4539    0.0000 C   0  0  0  0  0  0  0  0  0  0  0  0
   -2.2399   -5.1045    0.0000 C   0  0  0  0  0  0  0  0  0  0  0  0
   -1.3988   -3.8625    0.0000 C   0  0  0  0  0  0  0  0  0  0  0  0
   -0.0872   -0.4568    0.0000 C   0  0  0  0  0  0  0  0  0  0  0  0
    3.5169   -0.9931    0.0000 O   0  0  0  0  0  0  0  0  0  0  0  0
   -0.2451    3.6100    0.0000 C   0  0  0  0  0  0  0  0  0  0  0  0
    1.1200    3.2400    0.0000 O   0  0  0  0  0  0  0  0  0  0  0  0
    2.5900    2.9100    0.0000 C   0  0  0  0  0  0  0  0  0  0  0  0
    1.2773    0.0143    0.0000 O   0  0  0  0  0  0  0  0  0  0  0  0
    3.7711    2.6979    0.0000 C   0  0  0  0  0  0  0  0  0  0  0  0
    2.1162    4.0125    0.0000 C   0  0  0  0  0  0  0  0  0  0  0  0
    5.0029   -0.7830    0.0000 C   0  0  0  0  0  0  0  0  0  0  0  0
    5.9286   -1.9644    0.0000 C   0  0  0  0  0  0  0  0  0  0  0  0
    5.4512    0.3301    0.0000 O   0  0  0  0  0  0  0  0  0  0  0  0
    7.4147   -1.7544    0.0000 C   0  0  0  0  0  0  0  0  0  0  0  0
    8.3403   -2.9357    0.0000 C   0  0  0  0  0  0  0  0  0  0  0  0
    9.8259   -2.7280    0.0000 C   0  0  0  0  0  0  0  0  0  0  0  0
   10.7487   -3.9106    0.0000 C   0  0  0  0  0  0  0  0  0  0  0  0
   10.1859   -5.3010    0.0000 C   0  0  0  0  0  0  0  0  0  0  0  0
    8.7004   -5.5088    0.0000 C   0  0  0  0  0  0  0  0  0  0  0  0
    7.7776   -4.3262    0.0000 C   0  0  0  0  0  0  0  0  0  0  0  0
    2.2105   -1.1611    0.0000 C   0  0  0  0  0  0  0  0  0  0  0  0
    3.3974   -0.9844    0.0000 C   0  0  0  0  0  0  0  0  0  0  0  0
    1.8437   -2.0914    0.0000 O   0  0  0  0  0  0  0  0  0  0  0  0
   -2.6000    3.7104    0.0000 O   0  0  0  0  0  0  0  0  0  0  0  0
   -3.8891    2.9419    0.0000 C   0  0  0  0  0  0  0  0  0  0  0  0
   -3.8719    1.7420    0.0000 C   0  0  0  0  0  0  0  0  0  0  0  0
   -4.9371    3.5266    0.0000 O   0  0  0  0  0  0  0  0  0  0  0  0
  1  2  1  0
  1  4  1  0
  2  3  1  0
  3  6  1  0
  5  4  1  0
  5  6  1  0
  5 10  1  0
  6  7  1  0
  7  8  1  0
  8  9  1  0
  9 10  1  0
  4 11  1  0
 11 12  1  0
 12 13  1  0
 12 14  2  0
 10 15  1  0
 15 16  1  0
 16 17  1  0
 16 18  2  0
 17 19  2  0
 19 20  1  0
 20 21  2  0
 21 22  1  0
 22 23  2  0
 23 17  1  0
  5 24  1  0
  9 25  1  0
  3 26  1  0
  6 27  1  0
  8 28  1  0
 27 28  1  0
  7 29  1  0
 28 30  1  0
 28 31  1  0
 25 32  1  0
 32 33  1  0
 32 34  2  0
 33 35  2  3
 35 36  1  0
 36 37  2  0
 37 38  1  0
 38 39  2  0
 39 40  1  0
 40 41  2  0
 41 36  1  0
 29 42  1  0
 42 43  1  0
 42 44  2  0
  3 45  1  0
 45 46  1  0
 46 47  1  0
 46 48  2  0
M  END
>  <Classification>  (762) 
1

>  <pchembl>  (762) 
6.28

>  <InChI_steorem>  (762) 
InChI=1S/C37H42O11/c1-22(38)43-27-20-21-35(6,47-24(3)40)37-31(44-23(2)39)29(34(4,5)48-37)30(45-28(41)19-18-25-14-10-8-11-15-25)32(36(27,37)7)46-33(42)26-16-12-9-13-17-26/h8-19,27,29-32H,20-21H2,1-7H3

>  <source>  (762) 
ChEMBL25

>  <source_id>  (762) 
25

>  <optional_reference>  (762) 
10.1021/acs.jmedchem.5b01429

>  <optional_origin>  (762) 
None

>  <target>  (762) 
MDR1

$$$$

     RDKit          2D

 48 52  0  0  0  0  0  0  0  0999 V2000
   -2.5800    0.7500    0.0000 C   0  0  0  0  0  0  0  0  0  0  0  0
   -2.5800    2.2400    0.0000 C   0  0  0  0  0  0  0  0  0  0  0  0
   -1.2900    3.0200    0.0000 C   0  0  0  0  0  0  0  0  0  0  0  0
   -1.2900    0.0100    0.0000 C   0  0  0  0  0  0  0  0  0  0  0  0
    0.0000    0.7400    0.0000 C   0  0  0  0  0  0  0  0  0  0  0  0
    0.0000    2.2900    0.0000 C   0  0  0  0  0  0  0  0  0  0  0  0
    1.3200    1.5200    0.0000 C   0  0  0  0  0  0  0  0  0  0  0  0
    3.2600    1.5200    0.0000 C   0  0  0  0  0  0  0  0  0  0  0  0
    2.5900    0.1900    0.0000 C   0  0  0  0  0  0  0  0  0  0  0  0
    1.1200   -0.1300    0.0000 C   0  0  0  0  0  0  0  0  0  0  0  0
   -2.2596   -1.1360    0.0000 O   0  0  0  0  0  0  0  0  0  0  0  0
   -3.7367   -0.8703    0.0000 C   0  0  0  0  0  0  0  0  0  0  0  0
   -4.5109   -1.7872    0.0000 C   0  0  0  0  0  0  0  0  0  0  0  0
   -4.0761    0.0703    0.0000 O   0  0  0  0  0  0  0  0  0  0  0  0
    0.7561   -1.5887    0.0000 O   0  0  0  0  0  0  0  0  0  0  0  0
   -0.4580   -2.4710    0.0000 C   0  0  0  0  0  0  0  0  0  0  0  0
   -0.3019   -3.9637    0.0000 C   0  0  0  0  0  0  0  0  0  0  0  0
   -1.3715   -2.0640    0.0000 O   0  0  0  0  0  0  0  0  0  0  0  0
   -1.5141   -4.8473    0.0000 C   0  0  0  0  0  0  0  0  0  0  0  0
   -1.3550   -6.3388    0.0000 C   0  0  0  0  0  0  0  0  0  0  0  0
    0.0162   -6.9468    0.0000 C   0  0  0  0  0  0  0  0  0  0  0  0
    1.2284   -6.0633    0.0000 C   0  0  0  0  0  0  0  0  0  0  0  0
    1.0693   -4.5718    0.0000 C   0  0  0  0  0  0  0  0  0  0  0  0
   -0.0872   -0.4568    0.0000 C   0  0  0  0  0  0  0  0  0  0  0  0
    3.8656   -0.6047    0.0000 O   0  0  0  0  0  0  0  0  0  0  0  0
   -0.2456    3.6110    0.0000 C   0  0  0  0  0  0  0  0  0  0  0  0
    1.1200    3.2400    0.0000 O   0  0  0  0  0  0  0  0  0  0  0  0
    2.5900    2.9100    0.0000 C   0  0  0  0  0  0  0  0  0  0  0  0
    1.2773    0.0143    0.0000 O   0  0  0  0  0  0  0  0  0  0  0  0
    3.7711    2.6979    0.0000 C   0  0  0  0  0  0  0  0  0  0  0  0
    2.1162    4.0125    0.0000 C   0  0  0  0  0  0  0  0  0  0  0  0
    5.1902    0.1009    0.0000 C   0  0  0  0  0  0  0  0  0  0  0  0
    6.4641   -0.6926    0.0000 C   0  0  0  0  0  0  0  0  0  0  0  0
    5.2308    1.3002    0.0000 O   0  0  0  0  0  0  0  0  0  0  0  0
    7.7887    0.0130    0.0000 C   0  0  0  0  0  0  0  0  0  0  0  0
    9.0626   -0.7805    0.0000 C   0  0  0  0  0  0  0  0  0  0  0  0
   10.3875   -0.0772    0.0000 C   0  0  0  0  0  0  0  0  0  0  0  0
   11.6591   -0.8728    0.0000 C   0  0  0  0  0  0  0  0  0  0  0  0
   11.6058   -2.3719    0.0000 C   0  0  0  0  0  0  0  0  0  0  0  0
   10.2810   -3.0753    0.0000 C   0  0  0  0  0  0  0  0  0  0  0  0
    9.0094   -2.2796    0.0000 C   0  0  0  0  0  0  0  0  0  0  0  0
    2.2105   -1.1611    0.0000 C   0  0  0  0  0  0  0  0  0  0  0  0
    1.6600   -2.5573    0.0000 C   0  0  0  0  0  0  0  0  0  0  0  0
    3.3974   -0.9844    0.0000 O   0  0  0  0  0  0  0  0  0  0  0  0
   -2.3510    3.5807    0.0000 O   0  0  0  0  0  0  0  0  0  0  0  0
    2.5932   -3.7327    0.0000 C   0  0  0  0  0  0  0  0  0  0  0  0
    2.1531   -4.8491    0.0000 C   0  0  0  0  0  0  0  0  0  0  0  0
    0.6709   -2.7045    0.0000 C   0  0  0  0  0  0  0  0  0  0  0  0
  1  2  1  0
  1  4  1  0
  2  3  1  0
  3  6  1  0
  5  4  1  0
  5  6  1  0
  5 10  1  0
  6  7  1  0
  7  8  1  0
  8  9  1  0
  9 10  1  0
  4 11  1  0
 11 12  1  0
 12 13  1  0
 12 14  2  0
 10 15  1  0
 15 16  1  0
 16 17  1  0
 16 18  2  0
 17 19  2  0
 19 20  1  0
 20 21  2  0
 21 22  1  0
 22 23  2  0
 23 17  1  0
  5 24  1  0
  9 25  1  0
  3 26  1  0
  6 27  1  0
  8 28  1  0
 27 28  1  0
  7 29  1  0
 28 30  1  0
 28 31  1  0
 25 32  1  0
 32 33  1  0
 32 34  2  0
 33 35  2  3
 35 36  1  0
 36 37  2  0
 37 38  1  0
 38 39  2  0
 39 40  1  0
 40 41  2  0
 41 36  1  0
 29 42  1  0
 42 43  1  0
 42 44  2  0
  3 45  1  0
 43 46  1  0
 46 47  1  0
 43 48  1  0
M  END
>  <Classification>  (763) 
1

>  <pchembl>  (763) 
6.39

>  <InChI_steorem>  (763) 
InChI=1S/C38H46O10/c1-8-23(2)33(41)46-31-29-30(45-28(40)20-19-25-15-11-9-12-16-25)32(47-34(42)26-17-13-10-14-18-26)37(7)27(44-24(3)39)21-22-36(6,43)38(31,37)48-35(29,4)5/h9-20,23,27,29-32,43H,8,21-22H2,1-7H3

>  <source>  (763) 
ChEMBL25

>  <source_id>  (763) 
25

>  <optional_reference>  (763) 
10.1021/acs.jmedchem.5b01429

>  <optional_origin>  (763) 
None

>  <target>  (763) 
MDR1

$$$$

     RDKit          2D

 50 55  0  0  0  0  0  0  0  0999 V2000
    0.6039    1.4213    0.0000 C   0  0  0  0  0  0  0  0  0  0  0  0
    0.2956    2.8790    0.0000 C   0  0  0  0  0  0  0  0  0  0  0  0
   -1.1279    3.3753    0.0000 C   0  0  0  0  0  0  0  0  0  0  0  0
   -0.5051    0.4304    0.0000 C   0  0  0  0  0  0  0  0  0  0  0  0
   -1.9182    0.8777    0.0000 C   0  0  0  0  0  0  0  0  0  0  0  0
   -2.2389    2.3942    0.0000 C   0  0  0  0  0  0  0  0  0  0  0  0
   -3.3710    1.3677    0.0000 C   0  0  0  0  0  0  0  0  0  0  0  0
   -5.2691    0.9664    0.0000 C   0  0  0  0  0  0  0  0  0  0  0  0
   -4.3384   -0.1962    0.0000 C   0  0  0  0  0  0  0  0  0  0  0  0
   -2.8340   -0.2052    0.0000 C   0  0  0  0  0  0  0  0  0  0  0  0
   -0.1886   -1.0370    0.0000 O   0  0  0  0  0  0  0  0  0  0  0  0
    0.9963   -1.9582    0.0000 C   0  0  0  0  0  0  0  0  0  0  0  0
    0.8317   -3.1468    0.0000 C   0  0  0  0  0  0  0  0  0  0  0  0
    1.9228   -1.5820    0.0000 O   0  0  0  0  0  0  0  0  0  0  0  0
   -2.1761   -1.5570    0.0000 O   0  0  0  0  0  0  0  0  0  0  0  0
   -0.8058   -2.1690    0.0000 C   0  0  0  0  0  0  0  0  0  0  0  0
    0.4100   -1.2890    0.0000 C   0  0  0  0  0  0  0  0  0  0  0  0
   -0.7027   -3.1637    0.0000 O   0  0  0  0  0  0  0  0  0  0  0  0
    0.7785    0.1650    0.0000 C   0  0  0  0  0  0  0  0  0  0  0  0
    2.2220    0.5729    0.0000 C   0  0  0  0  0  0  0  0  0  0  0  0
    3.2970   -0.4732    0.0000 C   0  0  0  0  0  0  0  0  0  0  0  0
    2.9286   -1.9272    0.0000 C   0  0  0  0  0  0  0  0  0  0  0  0
    1.4851   -2.3351    0.0000 C   0  0  0  0  0  0  0  0  0  0  0  0
   -1.5853   -0.2752    0.0000 C   0  0  0  0  0  0  0  0  0  0  0  0
   -5.4220   -1.2377    0.0000 O   0  0  0  0  0  0  0  0  0  0  0  0
   -2.2719    3.7374    0.0000 O   0  0  0  0  0  0  0  0  0  0  0  0
   -0.2059    4.1433    0.0000 C   0  0  0  0  0  0  0  0  0  0  0  0
   -3.5312    3.0919    0.0000 O   0  0  0  0  0  0  0  0  0  0  0  0
   -4.9011    2.4649    0.0000 C   0  0  0  0  0  0  0  0  0  0  0  0
   -3.0177   -0.0965    0.0000 O   0  0  0  0  0  0  0  0  0  0  0  0
   -6.0128    2.0131    0.0000 C   0  0  0  0  0  0  0  0  0  0  0  0
   -4.6657    3.6416    0.0000 C   0  0  0  0  0  0  0  0  0  0  0  0
   -6.8639   -0.8214    0.0000 C   0  0  0  0  0  0  0  0  0  0  0  0
   -7.9461   -1.8613    0.0000 C   0  0  0  0  0  0  0  0  0  0  0  0
   -7.1517    0.3436    0.0000 O   0  0  0  0  0  0  0  0  0  0  0  0
   -9.3880   -1.4450    0.0000 C   0  0  0  0  0  0  0  0  0  0  0  0
   -9.7494    0.0117    0.0000 C   0  0  0  0  0  0  0  0  0  0  0  0
  -11.1899    0.4299    0.0000 C   0  0  0  0  0  0  0  0  0  0  0  0
  -11.5481    1.8865    0.0000 C   0  0  0  0  0  0  0  0  0  0  0  0
  -10.4658    2.9250    0.0000 C   0  0  0  0  0  0  0  0  0  0  0  0
   -9.0252    2.5069    0.0000 C   0  0  0  0  0  0  0  0  0  0  0  0
   -8.6670    1.0503    0.0000 C   0  0  0  0  0  0  0  0  0  0  0  0
   -3.6876   -1.4396    0.0000 C   0  0  0  0  0  0  0  0  0  0  0  0
   -2.8601   -2.6917    0.0000 C   0  0  0  0  0  0  0  0  0  0  0  0
   -4.8853   -1.5123    0.0000 O   0  0  0  0  0  0  0  0  0  0  0  0
   -3.9468   -3.7257    0.0000 C   0  0  0  0  0  0  0  0  0  0  0  0
   -3.5948   -5.1838    0.0000 C   0  0  0  0  0  0  0  0  0  0  0  0
   -2.1560   -5.6080    0.0000 C   0  0  0  0  0  0  0  0  0  0  0  0
   -1.0693   -4.5741    0.0000 C   0  0  0  0  0  0  0  0  0  0  0  0
   -1.4213   -3.1160    0.0000 C   0  0  0  0  0  0  0  0  0  0  0  0
  1  2  1  0
  1  4  1  0
  2  3  1  0
  3  6  1  0
  5  4  1  0
  5  6  1  0
  5 10  1  0
  6  7  1  0
  7  8  1  0
  8  9  1  0
  9 10  1  0
  4 11  1  0
 11 12  1  0
 12 13  1  0
 12 14  2  0
 10 15  1  0
 15 16  1  0
 16 17  1  0
 16 18  2  0
 17 19  2  0
 19 20  1  0
 20 21  2  0
 21 22  1  0
 22 23  2  0
 23 17  1  0
  5 24  1  0
  9 25  1  0
  3 26  1  0
  3 27  1  0
  6 28  1  0
  8 29  1  0
 28 29  1  0
  7 30  1  0
 29 31  1  0
 29 32  1  0
 25 33  1  0
 33 34  1  0
 33 35  2  0
 34 36  2  3
 36 37  1  0
 37 38  2  0
 38 39  1  0
 39 40  2  0
 40 41  1  0
 41 42  2  0
 42 37  1  0
 30 43  1  0
 43 44  1  0
 43 45  2  0
 44 46  2  0
 46 47  1  0
 47 48  2  0
 48 49  1  0
 49 50  2  0
 50 44  1  0
M  END
>  <Classification>  (764) 
1

>  <pchembl>  (764) 
6.6

>  <InChI_steorem>  (764) 
InChI=1S/C40H42O10/c1-25(41)46-29-23-24-38(4,45)40-33(48-35(43)27-17-11-7-12-18-27)31(37(2,3)50-40)32(47-30(42)22-21-26-15-9-6-10-16-26)34(39(29,40)5)49-36(44)28-19-13-8-14-20-28/h6-22,29,31-34,45H,23-24H2,1-5H3

>  <source>  (764) 
ChEMBL25

>  <source_id>  (764) 
25

>  <optional_reference>  (764) 
10.1021/acs.jmedchem.5b01429

>  <optional_origin>  (764) 
None

>  <target>  (764) 
MDR1

$$$$

     RDKit          2D

 50 55  0  0  0  0  0  0  0  0999 V2000
    0.6039    1.4213    0.0000 C   0  0  0  0  0  0  0  0  0  0  0  0
    0.2956    2.8790    0.0000 C   0  0  0  0  0  0  0  0  0  0  0  0
   -1.1279    3.3753    0.0000 C   0  0  0  0  0  0  0  0  0  0  0  0
   -0.5051    0.4304    0.0000 C   0  0  0  0  0  0  0  0  0  0  0  0
   -1.9182    0.8777    0.0000 C   0  0  0  0  0  0  0  0  0  0  0  0
   -2.2389    2.3942    0.0000 C   0  0  0  0  0  0  0  0  0  0  0  0
   -3.3710    1.3677    0.0000 C   0  0  0  0  0  0  0  0  0  0  0  0
   -5.2691    0.9664    0.0000 C   0  0  0  0  0  0  0  0  0  0  0  0
   -4.3384   -0.1962    0.0000 C   0  0  0  0  0  0  0  0  0  0  0  0
   -2.8340   -0.2052    0.0000 C   0  0  0  0  0  0  0  0  0  0  0  0
   -0.1886   -1.0370    0.0000 O   0  0  0  0  0  0  0  0  0  0  0  0
    0.9963   -1.9582    0.0000 C   0  0  0  0  0  0  0  0  0  0  0  0
    0.8317   -3.1468    0.0000 C   0  0  0  0  0  0  0  0  0  0  0  0
    1.9228   -1.5820    0.0000 O   0  0  0  0  0  0  0  0  0  0  0  0
   -2.1761   -1.5570    0.0000 O   0  0  0  0  0  0  0  0  0  0  0  0
   -0.8058   -2.1690    0.0000 C   0  0  0  0  0  0  0  0  0  0  0  0
    0.4100   -1.2890    0.0000 C   0  0  0  0  0  0  0  0  0  0  0  0
   -0.7027   -3.1637    0.0000 O   0  0  0  0  0  0  0  0  0  0  0  0
    0.7785    0.1650    0.0000 C   0  0  0  0  0  0  0  0  0  0  0  0
    2.2220    0.5729    0.0000 C   0  0  0  0  0  0  0  0  0  0  0  0
    3.2970   -0.4732    0.0000 C   0  0  0  0  0  0  0  0  0  0  0  0
    2.9286   -1.9272    0.0000 C   0  0  0  0  0  0  0  0  0  0  0  0
    1.4851   -2.3351    0.0000 C   0  0  0  0  0  0  0  0  0  0  0  0
   -1.5853   -0.2752    0.0000 C   0  0  0  0  0  0  0  0  0  0  0  0
   -5.4220   -1.2377    0.0000 O   0  0  0  0  0  0  0  0  0  0  0  0
   -2.2719    3.7374    0.0000 O   0  0  0  0  0  0  0  0  0  0  0  0
   -0.2059    4.1433    0.0000 C   0  0  0  0  0  0  0  0  0  0  0  0
   -3.5312    3.0919    0.0000 O   0  0  0  0  0  0  0  0  0  0  0  0
   -4.9011    2.4649    0.0000 C   0  0  0  0  0  0  0  0  0  0  0  0
   -3.0177   -0.0965    0.0000 O   0  0  0  0  0  0  0  0  0  0  0  0
   -6.0128    2.0131    0.0000 C   0  0  0  0  0  0  0  0  0  0  0  0
   -4.6657    3.6416    0.0000 C   0  0  0  0  0  0  0  0  0  0  0  0
   -6.8639   -0.8214    0.0000 C   0  0  0  0  0  0  0  0  0  0  0  0
   -7.9461   -1.8613    0.0000 C   0  0  0  0  0  0  0  0  0  0  0  0
   -7.1517    0.3436    0.0000 O   0  0  0  0  0  0  0  0  0  0  0  0
   -9.3880   -1.4450    0.0000 C   0  0  0  0  0  0  0  0  0  0  0  0
   -9.7494    0.0117    0.0000 C   0  0  0  0  0  0  0  0  0  0  0  0
  -11.1899    0.4299    0.0000 C   0  0  0  0  0  0  0  0  0  0  0  0
  -11.5481    1.8865    0.0000 C   0  0  0  0  0  0  0  0  0  0  0  0
  -10.4658    2.9250    0.0000 C   0  0  0  0  0  0  0  0  0  0  0  0
   -9.0252    2.5069    0.0000 C   0  0  0  0  0  0  0  0  0  0  0  0
   -8.6670    1.0503    0.0000 C   0  0  0  0  0  0  0  0  0  0  0  0
   -3.6876   -1.4396    0.0000 C   0  0  0  0  0  0  0  0  0  0  0  0
   -2.8601   -2.6917    0.0000 C   0  0  0  0  0  0  0  0  0  0  0  0
   -4.8853   -1.5123    0.0000 O   0  0  0  0  0  0  0  0  0  0  0  0
   -3.9468   -3.7257    0.0000 C   0  0  0  0  0  0  0  0  0  0  0  0
   -3.5948   -5.1838    0.0000 N   0  0  0  0  0  0  0  0  0  0  0  0
   -2.1560   -5.6080    0.0000 C   0  0  0  0  0  0  0  0  0  0  0  0
   -1.0693   -4.5741    0.0000 C   0  0  0  0  0  0  0  0  0  0  0  0
   -1.4213   -3.1160    0.0000 N   0  0  0  0  0  0  0  0  0  0  0  0
  1  2  1  0
  1  4  1  0
  2  3  1  0
  3  6  1  0
  5  4  1  0
  5  6  1  0
  5 10  1  0
  6  7  1  0
  7  8  1  0
  8  9  1  0
  9 10  1  0
  4 11  1  0
 11 12  1  0
 12 13  1  0
 12 14  2  0
 10 15  1  0
 15 16  1  0
 16 17  1  0
 16 18  2  0
 17 19  2  0
 19 20  1  0
 20 21  2  0
 21 22  1  0
 22 23  2  0
 23 17  1  0
  5 24  1  0
  9 25  1  0
  3 26  1  0
  3 27  1  0
  6 28  1  0
  8 29  1  0
 28 29  1  0
  7 30  1  0
 29 31  1  0
 29 32  1  0
 25 33  1  0
 33 34  1  0
 33 35  2  0
 34 36  2  3
 36 37  1  0
 37 38  2  0
 38 39  1  0
 39 40  2  0
 40 41  1  0
 41 42  2  0
 42 37  1  0
 30 43  1  0
 43 44  1  0
 43 45  2  0
 44 46  2  0
 46 47  1  0
 47 48  2  0
 48 49  1  0
 49 50  2  0
 50 44  1  0
M  END
>  <Classification>  (765) 
1

>  <pchembl>  (765) 
6.38

>  <InChI_steorem>  (765) 
InChI=1S/C38H40N2O10/c1-23(41)46-27-18-19-36(4,45)38-31(48-34(44)26-22-39-20-21-40-26)29(35(2,3)50-38)30(47-28(42)17-16-24-12-8-6-9-13-24)32(37(27,38)5)49-33(43)25-14-10-7-11-15-25/h6-17,20-22,27,29-32,45H,18-19H2,1-5H3

>  <source>  (765) 
ChEMBL25

>  <source_id>  (765) 
25

>  <optional_reference>  (765) 
10.1021/acs.jmedchem.5b01429

>  <optional_origin>  (765) 
None

>  <target>  (765) 
MDR1

$$$$

     RDKit          2D

 50 55  0  0  0  0  0  0  0  0999 V2000
    0.6039    1.4213    0.0000 C   0  0  0  0  0  0  0  0  0  0  0  0
    0.2956    2.8790    0.0000 C   0  0  0  0  0  0  0  0  0  0  0  0
   -1.1279    3.3753    0.0000 C   0  0  0  0  0  0  0  0  0  0  0  0
   -0.5051    0.4304    0.0000 C   0  0  0  0  0  0  0  0  0  0  0  0
   -1.9182    0.8777    0.0000 C   0  0  0  0  0  0  0  0  0  0  0  0
   -2.2389    2.3942    0.0000 C   0  0  0  0  0  0  0  0  0  0  0  0
   -3.3710    1.3677    0.0000 C   0  0  0  0  0  0  0  0  0  0  0  0
   -5.2691    0.9664    0.0000 C   0  0  0  0  0  0  0  0  0  0  0  0
   -4.3384   -0.1962    0.0000 C   0  0  0  0  0  0  0  0  0  0  0  0
   -2.8340   -0.2052    0.0000 C   0  0  0  0  0  0  0  0  0  0  0  0
   -0.1886   -1.0370    0.0000 O   0  0  0  0  0  0  0  0  0  0  0  0
    0.9963   -1.9582    0.0000 C   0  0  0  0  0  0  0  0  0  0  0  0
    0.8317   -3.1468    0.0000 C   0  0  0  0  0  0  0  0  0  0  0  0
    1.9228   -1.5820    0.0000 O   0  0  0  0  0  0  0  0  0  0  0  0
   -2.1761   -1.5570    0.0000 O   0  0  0  0  0  0  0  0  0  0  0  0
   -0.8058   -2.1690    0.0000 C   0  0  0  0  0  0  0  0  0  0  0  0
    0.4100   -1.2890    0.0000 C   0  0  0  0  0  0  0  0  0  0  0  0
   -0.7027   -3.1637    0.0000 O   0  0  0  0  0  0  0  0  0  0  0  0
    0.7785    0.1650    0.0000 C   0  0  0  0  0  0  0  0  0  0  0  0
    2.2220    0.5729    0.0000 C   0  0  0  0  0  0  0  0  0  0  0  0
    3.2970   -0.4732    0.0000 C   0  0  0  0  0  0  0  0  0  0  0  0
    2.9286   -1.9272    0.0000 C   0  0  0  0  0  0  0  0  0  0  0  0
    1.4851   -2.3351    0.0000 C   0  0  0  0  0  0  0  0  0  0  0  0
   -1.5853   -0.2752    0.0000 C   0  0  0  0  0  0  0  0  0  0  0  0
   -5.4220   -1.2377    0.0000 O   0  0  0  0  0  0  0  0  0  0  0  0
   -2.2719    3.7374    0.0000 C   0  0  0  0  0  0  0  0  0  0  0  0
   -3.5312    3.0919    0.0000 O   0  0  0  0  0  0  0  0  0  0  0  0
   -4.9011    2.4649    0.0000 C   0  0  0  0  0  0  0  0  0  0  0  0
   -3.0177   -0.0965    0.0000 O   0  0  0  0  0  0  0  0  0  0  0  0
   -6.0128    2.0131    0.0000 C   0  0  0  0  0  0  0  0  0  0  0  0
   -4.6657    3.6416    0.0000 C   0  0  0  0  0  0  0  0  0  0  0  0
   -6.8639   -0.8214    0.0000 C   0  0  0  0  0  0  0  0  0  0  0  0
   -7.9461   -1.8613    0.0000 C   0  0  0  0  0  0  0  0  0  0  0  0
   -7.1517    0.3436    0.0000 O   0  0  0  0  0  0  0  0  0  0  0  0
   -9.3880   -1.4450    0.0000 C   0  0  0  0  0  0  0  0  0  0  0  0
  -10.4702   -2.4849    0.0000 C   0  0  0  0  0  0  0  0  0  0  0  0
  -11.9119   -2.0709    0.0000 C   0  0  0  0  0  0  0  0  0  0  0  0
  -12.9914   -3.1124    0.0000 C   0  0  0  0  0  0  0  0  0  0  0  0
  -12.6291   -4.5680    0.0000 C   0  0  0  0  0  0  0  0  0  0  0  0
  -11.1874   -4.9821    0.0000 C   0  0  0  0  0  0  0  0  0  0  0  0
  -10.1080   -3.9405    0.0000 C   0  0  0  0  0  0  0  0  0  0  0  0
   -3.6876   -1.4396    0.0000 C   0  0  0  0  0  0  0  0  0  0  0  0
   -4.8853   -1.5123    0.0000 O   0  0  0  0  0  0  0  0  0  0  0  0
   -0.2059    4.1433    0.0000 O   0  0  0  0  0  0  0  0  0  0  0  0
   -2.8601   -2.6917    0.0000 C   0  0  0  0  0  0  0  0  0  0  0  0
   -3.9468   -3.7257    0.0000 C   0  0  0  0  0  0  0  0  0  0  0  0
   -3.5948   -5.1838    0.0000 C   0  0  0  0  0  0  0  0  0  0  0  0
   -2.1560   -5.6080    0.0000 C   0  0  0  0  0  0  0  0  0  0  0  0
   -1.0693   -4.5741    0.0000 N   0  0  0  0  0  0  0  0  0  0  0  0
   -1.4213   -3.1160    0.0000 C   0  0  0  0  0  0  0  0  0  0  0  0
  1  2  1  0
  1  4  1  0
  2  3  1  0
  3  6  1  0
  5  4  1  0
  5  6  1  0
  5 10  1  0
  6  7  1  0
  7  8  1  0
  8  9  1  0
  9 10  1  0
  4 11  1  0
 11 12  1  0
 12 13  1  0
 12 14  2  0
 10 15  1  0
 15 16  1  0
 16 17  1  0
 16 18  2  0
 17 19  2  0
 19 20  1  0
 20 21  2  0
 21 22  1  0
 22 23  2  0
 23 17  1  0
  5 24  1  0
  9 25  1  0
  3 26  1  0
  6 27  1  0
  8 28  1  0
 27 28  1  0
  7 29  1  0
 28 30  1  0
 28 31  1  0
 25 32  1  0
 32 33  1  0
 32 34  2  0
 33 35  2  3
 35 36  1  0
 36 37  2  0
 37 38  1  0
 38 39  2  0
 39 40  1  0
 40 41  2  0
 41 36  1  0
 29 42  1  0
 42 43  2  0
  3 44  1  0
 45 46  2  0
 46 47  1  0
 47 48  2  0
 48 49  1  0
 49 50  2  0
 50 45  1  0
 42 45  1  0
M  END
>  <Classification>  (766) 
1

>  <pchembl>  (766) 
6.89

>  <InChI_steorem>  (766) 
InChI=1S/C39H41NO10/c1-24(41)46-28-20-21-37(4,45)39-32(48-35(44)27-17-12-22-40-23-27)30(36(2,3)50-39)31(47-29(42)19-18-25-13-8-6-9-14-25)33(38(28,39)5)49-34(43)26-15-10-7-11-16-26/h6-19,22-23,28,30-33,45H,20-21H2,1-5H3

>  <source>  (766) 
ChEMBL25

>  <source_id>  (766) 
25

>  <optional_reference>  (766) 
10.1021/acs.jmedchem.5b01429

>  <optional_origin>  (766) 
None

>  <target>  (766) 
MDR1

$$$$

     RDKit          2D

 41 45  0  0  0  0  0  0  0  0999 V2000
   -2.5800    0.7500    0.0000 C   0  0  0  0  0  0  0  0  0  0  0  0
   -2.5800    2.2400    0.0000 C   0  0  0  0  0  0  0  0  0  0  0  0
   -1.2900    3.0200    0.0000 C   0  0  0  0  0  0  0  0  0  0  0  0
   -1.2900    0.0100    0.0000 C   0  0  0  0  0  0  0  0  0  0  0  0
    0.0000    0.7400    0.0000 C   0  0  0  0  0  0  0  0  0  0  0  0
    0.0000    2.2900    0.0000 C   0  0  0  0  0  0  0  0  0  0  0  0
    1.3200    1.5200    0.0000 C   0  0  0  0  0  0  0  0  0  0  0  0
    3.2600    1.5200    0.0000 C   0  0  0  0  0  0  0  0  0  0  0  0
    2.5900    0.1900    0.0000 C   0  0  0  0  0  0  0  0  0  0  0  0
    1.1200   -0.1300    0.0000 C   0  0  0  0  0  0  0  0  0  0  0  0
   -1.2961   -1.4911    0.0000 O   0  0  0  0  0  0  0  0  0  0  0  0
   -2.5984   -2.2371    0.0000 C   0  0  0  0  0  0  0  0  0  0  0  0
   -3.6354   -1.6332    0.0000 C   0  0  0  0  0  0  0  0  0  0  0  0
   -2.6025   -3.2371    0.0000 O   0  0  0  0  0  0  0  0  0  0  0  0
    0.7561   -1.5887    0.0000 O   0  0  0  0  0  0  0  0  0  0  0  0
    1.8352   -2.6317    0.0000 C   0  0  0  0  0  0  0  0  0  0  0  0
    1.4724   -4.0880    0.0000 C   0  0  0  0  0  0  0  0  0  0  0  0
    2.7965   -2.3562    0.0000 O   0  0  0  0  0  0  0  0  0  0  0  0
    2.5494   -5.1321    0.0000 C   0  0  0  0  0  0  0  0  0  0  0  0
    2.1839   -6.5869    0.0000 C   0  0  0  0  0  0  0  0  0  0  0  0
    0.7412   -6.9977    0.0000 C   0  0  0  0  0  0  0  0  0  0  0  0
   -0.3359   -5.9537    0.0000 C   0  0  0  0  0  0  0  0  0  0  0  0
    0.0297   -4.4989    0.0000 C   0  0  0  0  0  0  0  0  0  0  0  0
   -0.0872   -0.4568    0.0000 C   0  0  0  0  0  0  0  0  0  0  0  0
    3.5169   -0.9931    0.0000 O   0  0  0  0  0  0  0  0  0  0  0  0
    1.1200    3.2400    0.0000 O   0  0  0  0  0  0  0  0  0  0  0  0
    2.5900    2.9100    0.0000 C   0  0  0  0  0  0  0  0  0  0  0  0
    1.0068    0.3616    0.0000 O   0  0  0  0  0  0  0  0  0  0  0  0
    3.7711    2.6979    0.0000 C   0  0  0  0  0  0  0  0  0  0  0  0
    2.1162    4.0125    0.0000 C   0  0  0  0  0  0  0  0  0  0  0  0
    5.0029   -0.7830    0.0000 C   0  0  0  0  0  0  0  0  0  0  0  0
    5.9286   -1.9644    0.0000 C   0  0  0  0  0  0  0  0  0  0  0  0
    5.4512    0.3301    0.0000 O   0  0  0  0  0  0  0  0  0  0  0  0
    7.4147   -1.7544    0.0000 C   0  0  0  0  0  0  0  0  0  0  0  0
    8.3403   -2.9357    0.0000 C   0  0  0  0  0  0  0  0  0  0  0  0
    9.8259   -2.7280    0.0000 C   0  0  0  0  0  0  0  0  0  0  0  0
   10.7487   -3.9106    0.0000 C   0  0  0  0  0  0  0  0  0  0  0  0
   10.1859   -5.3010    0.0000 C   0  0  0  0  0  0  0  0  0  0  0  0
    8.7004   -5.5088    0.0000 C   0  0  0  0  0  0  0  0  0  0  0  0
    7.7776   -4.3262    0.0000 C   0  0  0  0  0  0  0  0  0  0  0  0
   -1.3073    4.2199    0.0000 C   0  0  0  0  0  0  0  0  0  0  0  0
  1  2  1  0
  1  4  1  0
  2  3  1  0
  3  6  1  0
  5  4  1  0
  5  6  1  0
  5 10  1  0
  6  7  1  0
  7  8  1  0
  8  9  1  0
  9 10  1  0
  4 11  1  0
 11 12  1  0
 12 13  1  0
 12 14  2  0
 10 15  1  0
 15 16  1  0
 16 17  1  0
 16 18  2  0
 17 19  2  0
 19 20  1  0
 20 21  2  0
 21 22  1  0
 22 23  2  0
 23 17  1  0
  5 24  1  0
  9 25  1  0
  6 26  1  0
  8 27  1  0
 26 27  1  0
  7 28  1  0
 27 29  1  0
 27 30  1  0
 25 31  1  0
 31 32  1  0
 31 33  2  0
 32 34  1  0
 34 35  1  0
 35 36  2  0
 36 37  1  0
 37 38  2  0
 38 39  1  0
 39 40  2  0
 40 35  1  0
  3 41  1  0
M  END
>  <Classification>  (767) 
1

>  <pchembl>  (767) 
6.4

>  <InChI_steorem>  (767) 
InChI=1S/C33H40O8/c1-20-16-18-24(38-21(2)34)32(5)29(40-30(37)23-14-10-7-11-15-23)27(26-28(36)33(20,32)41-31(26,3)4)39-25(35)19-17-22-12-8-6-9-13-22/h6-15,20,24,26-29,36H,16-19H2,1-5H3

>  <source>  (767) 
ChEMBL25

>  <source_id>  (767) 
25

>  <optional_reference>  (767) 
10.1021/acs.jmedchem.5b01429

>  <optional_origin>  (767) 
None

>  <target>  (767) 
MDR1

$$$$

     RDKit          2D

 42 46  0  0  0  0  0  0  0  0999 V2000
   -2.5800    0.7500    0.0000 C   0  0  0  0  0  0  0  0  0  0  0  0
   -2.5800    2.2400    0.0000 C   0  0  0  0  0  0  0  0  0  0  0  0
   -1.2900    3.0200    0.0000 C   0  0  0  0  0  0  0  0  0  0  0  0
   -1.2900    0.0100    0.0000 C   0  0  0  0  0  0  0  0  0  0  0  0
    0.0000    0.7400    0.0000 C   0  0  0  0  0  0  0  0  0  0  0  0
    0.0000    2.2900    0.0000 C   0  0  0  0  0  0  0  0  0  0  0  0
    1.3200    1.5200    0.0000 C   0  0  0  0  0  0  0  0  0  0  0  0
    3.2600    1.5200    0.0000 C   0  0  0  0  0  0  0  0  0  0  0  0
    2.5900    0.1900    0.0000 C   0  0  0  0  0  0  0  0  0  0  0  0
    1.1200   -0.1300    0.0000 C   0  0  0  0  0  0  0  0  0  0  0  0
   -1.2961   -1.4911    0.0000 O   0  0  0  0  0  0  0  0  0  0  0  0
   -2.5984   -2.2371    0.0000 C   0  0  0  0  0  0  0  0  0  0  0  0
   -3.6354   -1.6332    0.0000 C   0  0  0  0  0  0  0  0  0  0  0  0
   -2.6025   -3.2371    0.0000 O   0  0  0  0  0  0  0  0  0  0  0  0
    0.7561   -1.5887    0.0000 O   0  0  0  0  0  0  0  0  0  0  0  0
    1.8352   -2.6317    0.0000 C   0  0  0  0  0  0  0  0  0  0  0  0
    1.4724   -4.0880    0.0000 C   0  0  0  0  0  0  0  0  0  0  0  0
    2.7965   -2.3562    0.0000 O   0  0  0  0  0  0  0  0  0  0  0  0
    2.5494   -5.1321    0.0000 C   0  0  0  0  0  0  0  0  0  0  0  0
    2.1839   -6.5869    0.0000 C   0  0  0  0  0  0  0  0  0  0  0  0
    0.7412   -6.9977    0.0000 C   0  0  0  0  0  0  0  0  0  0  0  0
   -0.3359   -5.9537    0.0000 C   0  0  0  0  0  0  0  0  0  0  0  0
    0.0297   -4.4989    0.0000 C   0  0  0  0  0  0  0  0  0  0  0  0
   -0.0872   -0.4568    0.0000 C   0  0  0  0  0  0  0  0  0  0  0  0
    3.5169   -0.9931    0.0000 O   0  0  0  0  0  0  0  0  0  0  0  0
   -0.2456    3.6110    0.0000 Cl  0  0  0  0  0  0  0  0  0  0  0  0
   -2.3510    3.5807    0.0000 C   0  0  0  0  0  0  0  0  0  0  0  0
    1.1200    3.2400    0.0000 O   0  0  0  0  0  0  0  0  0  0  0  0
    2.5900    2.9100    0.0000 C   0  0  0  0  0  0  0  0  0  0  0  0
    1.0068    0.3616    0.0000 Cl  0  0  0  0  0  0  0  0  0  0  0  0
    3.7711    2.6979    0.0000 C   0  0  0  0  0  0  0  0  0  0  0  0
    2.1162    4.0125    0.0000 C   0  0  0  0  0  0  0  0  0  0  0  0
    5.0029   -0.7830    0.0000 C   0  0  0  0  0  0  0  0  0  0  0  0
    5.9286   -1.9644    0.0000 C   0  0  0  0  0  0  0  0  0  0  0  0
    5.4512    0.3301    0.0000 O   0  0  0  0  0  0  0  0  0  0  0  0
    7.4147   -1.7544    0.0000 C   0  0  0  0  0  0  0  0  0  0  0  0
    8.3403   -2.9357    0.0000 C   0  0  0  0  0  0  0  0  0  0  0  0
    9.8259   -2.7280    0.0000 C   0  0  0  0  0  0  0  0  0  0  0  0
   10.7487   -3.9106    0.0000 C   0  0  0  0  0  0  0  0  0  0  0  0
   10.1859   -5.3010    0.0000 C   0  0  0  0  0  0  0  0  0  0  0  0
    8.7004   -5.5088    0.0000 C   0  0  0  0  0  0  0  0  0  0  0  0
    7.7776   -4.3262    0.0000 C   0  0  0  0  0  0  0  0  0  0  0  0
  1  2  1  0
  1  4  1  0
  2  3  1  0
  3  6  1  0
  5  4  1  0
  5  6  1  0
  5 10  1  0
  6  7  1  0
  7  8  1  0
  8  9  1  0
  9 10  1  0
  4 11  1  0
 11 12  1  0
 12 13  1  0
 12 14  2  0
 10 15  1  0
 15 16  1  0
 16 17  1  0
 16 18  2  0
 17 19  2  0
 19 20  1  0
 20 21  2  0
 21 22  1  0
 22 23  2  0
 23 17  1  0
  5 24  1  0
  9 25  1  0
  3 26  1  0
  3 27  1  0
  6 28  1  0
  8 29  1  0
 28 29  1  0
  7 30  1  0
 29 31  1  0
 29 32  1  0
 25 33  1  0
 33 34  1  0
 33 35  2  0
 34 36  2  3
 36 37  1  0
 37 38  2  0
 38 39  1  0
 39 40  2  0
 40 41  1  0
 41 42  2  0
 42 37  1  0
M  END
>  <Classification>  (768) 
1

>  <pchembl>  (768) 
5.87

>  <InChI_steorem>  (768) 
InChI=1S/C33H36Cl2O7/c1-20(36)39-23-18-19-31(4,35)33-27(34)25(30(2,3)42-33)26(40-24(37)17-16-21-12-8-6-9-13-21)28(32(23,33)5)41-29(38)22-14-10-7-11-15-22/h6-17,23,25-28H,18-19H2,1-5H3

>  <source>  (768) 
ChEMBL25

>  <source_id>  (768) 
25

>  <optional_reference>  (768) 
10.1021/acs.jmedchem.5b01429

>  <optional_origin>  (768) 
None

>  <target>  (768) 
MDR1

$$$$

     RDKit          2D

 42 46  0  0  0  0  0  0  0  0999 V2000
   -2.5800    0.7500    0.0000 C   0  0  0  0  0  0  0  0  0  0  0  0
   -2.5800    2.2400    0.0000 C   0  0  0  0  0  0  0  0  0  0  0  0
   -1.2900    3.0200    0.0000 C   0  0  0  0  0  0  0  0  0  0  0  0
   -1.2900    0.0100    0.0000 C   0  0  0  0  0  0  0  0  0  0  0  0
    0.0000    0.7400    0.0000 C   0  0  0  0  0  0  0  0  0  0  0  0
    0.0000    2.2900    0.0000 C   0  0  0  0  0  0  0  0  0  0  0  0
    1.3200    1.5200    0.0000 C   0  0  0  0  0  0  0  0  0  0  0  0
    3.2600    1.5200    0.0000 C   0  0  0  0  0  0  0  0  0  0  0  0
    2.5900    0.1900    0.0000 C   0  0  0  0  0  0  0  0  0  0  0  0
    1.1200   -0.1300    0.0000 C   0  0  0  0  0  0  0  0  0  0  0  0
   -1.2961   -1.4911    0.0000 O   0  0  0  0  0  0  0  0  0  0  0  0
   -2.5984   -2.2371    0.0000 C   0  0  0  0  0  0  0  0  0  0  0  0
   -3.6354   -1.6332    0.0000 C   0  0  0  0  0  0  0  0  0  0  0  0
   -2.6025   -3.2371    0.0000 O   0  0  0  0  0  0  0  0  0  0  0  0
    0.7561   -1.5887    0.0000 O   0  0  0  0  0  0  0  0  0  0  0  0
    1.8352   -2.6317    0.0000 C   0  0  0  0  0  0  0  0  0  0  0  0
    1.4724   -4.0880    0.0000 C   0  0  0  0  0  0  0  0  0  0  0  0
    2.7965   -2.3562    0.0000 O   0  0  0  0  0  0  0  0  0  0  0  0
    2.5494   -5.1321    0.0000 C   0  0  0  0  0  0  0  0  0  0  0  0
    2.1839   -6.5869    0.0000 C   0  0  0  0  0  0  0  0  0  0  0  0
    0.7412   -6.9977    0.0000 C   0  0  0  0  0  0  0  0  0  0  0  0
   -0.3359   -5.9537    0.0000 C   0  0  0  0  0  0  0  0  0  0  0  0
    0.0297   -4.4989    0.0000 C   0  0  0  0  0  0  0  0  0  0  0  0
   -0.0872   -0.4568    0.0000 C   0  0  0  0  0  0  0  0  0  0  0  0
    3.5169   -0.9931    0.0000 O   0  0  0  0  0  0  0  0  0  0  0  0
   -0.2456    3.6110    0.0000 O   0  0  0  0  0  0  0  0  0  0  0  0
   -2.3510    3.5807    0.0000 C   0  0  0  0  0  0  0  0  0  0  0  0
    1.1200    3.2400    0.0000 O   0  0  0  0  0  0  0  0  0  0  0  0
    2.5900    2.9100    0.0000 C   0  0  0  0  0  0  0  0  0  0  0  0
    1.0068    0.3616    0.0000 O   0  0  0  0  0  0  0  0  0  0  0  0
    3.7711    2.6979    0.0000 C   0  0  0  0  0  0  0  0  0  0  0  0
    2.1162    4.0125    0.0000 C   0  0  0  0  0  0  0  0  0  0  0  0
    5.0029   -0.7830    0.0000 C   0  0  0  0  0  0  0  0  0  0  0  0
    5.9286   -1.9644    0.0000 C   0  0  0  0  0  0  0  0  0  0  0  0
    5.4512    0.3301    0.0000 O   0  0  0  0  0  0  0  0  0  0  0  0
    7.4147   -1.7544    0.0000 C   0  0  0  0  0  0  0  0  0  0  0  0
    8.3403   -2.9357    0.0000 C   0  0  0  0  0  0  0  0  0  0  0  0
    9.8259   -2.7280    0.0000 C   0  0  0  0  0  0  0  0  0  0  0  0
   10.7487   -3.9106    0.0000 C   0  0  0  0  0  0  0  0  0  0  0  0
   10.1859   -5.3010    0.0000 C   0  0  0  0  0  0  0  0  0  0  0  0
    8.7004   -5.5088    0.0000 C   0  0  0  0  0  0  0  0  0  0  0  0
    7.7776   -4.3262    0.0000 C   0  0  0  0  0  0  0  0  0  0  0  0
  1  2  1  0
  1  4  1  0
  2  3  1  0
  3  6  1  0
  5  4  1  0
  5  6  1  0
  5 10  1  0
  6  7  1  0
  7  8  1  0
  8  9  1  0
  9 10  1  0
  4 11  1  0
 11 12  1  0
 12 13  1  0
 12 14  2  0
 10 15  1  0
 15 16  1  0
 16 17  1  0
 16 18  2  0
 17 19  2  0
 19 20  1  0
 20 21  2  0
 21 22  1  0
 22 23  2  0
 23 17  1  0
  5 24  1  0
  9 25  1  0
  3 26  1  0
  3 27  1  0
  6 28  1  0
  8 29  1  0
 28 29  1  0
  7 30  1  0
 29 31  1  0
 29 32  1  0
 25 33  1  0
 33 34  1  0
 33 35  2  0
 34 36  1  0
 36 37  1  0
 37 38  2  0
 38 39  1  0
 39 40  2  0
 40 41  1  0
 41 42  2  0
 42 37  1  0
M  END
>  <Classification>  (769) 
1

>  <pchembl>  (769) 
6.33

>  <InChI_steorem>  (769) 
InChI=1S/C33H40O9/c1-20(34)39-23-18-19-31(4,38)33-27(36)25(30(2,3)42-33)26(40-24(35)17-16-21-12-8-6-9-13-21)28(32(23,33)5)41-29(37)22-14-10-7-11-15-22/h6-15,23,25-28,36,38H,16-19H2,1-5H3

>  <source>  (769) 
ChEMBL25

>  <source_id>  (769) 
25

>  <optional_reference>  (769) 
10.1021/acs.jmedchem.5b01429

>  <optional_origin>  (769) 
None

>  <target>  (769) 
MDR1

$$$$

     RDKit          2D

 42 46  0  0  0  0  0  0  0  0999 V2000
   -2.5800    0.7500    0.0000 C   0  0  0  0  0  0  0  0  0  0  0  0
   -2.5800    2.2400    0.0000 C   0  0  0  0  0  0  0  0  0  0  0  0
   -1.2900    3.0200    0.0000 C   0  0  0  0  0  0  0  0  0  0  0  0
   -1.2900    0.0100    0.0000 C   0  0  0  0  0  0  0  0  0  0  0  0
    0.0000    0.7400    0.0000 C   0  0  0  0  0  0  0  0  0  0  0  0
    0.0000    2.2900    0.0000 C   0  0  0  0  0  0  0  0  0  0  0  0
    1.3200    1.5200    0.0000 C   0  0  0  0  0  0  0  0  0  0  0  0
    3.2600    1.5200    0.0000 C   0  0  0  0  0  0  0  0  0  0  0  0
    2.5900    0.1900    0.0000 C   0  0  0  0  0  0  0  0  0  0  0  0
    1.1200   -0.1300    0.0000 C   0  0  0  0  0  0  0  0  0  0  0  0
   -1.2961   -1.4911    0.0000 O   0  0  0  0  0  0  0  0  0  0  0  0
   -2.5984   -2.2371    0.0000 C   0  0  0  0  0  0  0  0  0  0  0  0
   -3.6354   -1.6332    0.0000 C   0  0  0  0  0  0  0  0  0  0  0  0
   -2.6025   -3.2371    0.0000 O   0  0  0  0  0  0  0  0  0  0  0  0
    0.7561   -1.5887    0.0000 O   0  0  0  0  0  0  0  0  0  0  0  0
    1.8352   -2.6317    0.0000 C   0  0  0  0  0  0  0  0  0  0  0  0
    1.4724   -4.0880    0.0000 C   0  0  0  0  0  0  0  0  0  0  0  0
    2.7965   -2.3562    0.0000 O   0  0  0  0  0  0  0  0  0  0  0  0
    2.5494   -5.1321    0.0000 C   0  0  0  0  0  0  0  0  0  0  0  0
    2.1839   -6.5869    0.0000 C   0  0  0  0  0  0  0  0  0  0  0  0
    0.7412   -6.9977    0.0000 C   0  0  0  0  0  0  0  0  0  0  0  0
   -0.3359   -5.9537    0.0000 C   0  0  0  0  0  0  0  0  0  0  0  0
    0.0297   -4.4989    0.0000 C   0  0  0  0  0  0  0  0  0  0  0  0
   -0.0872   -0.4568    0.0000 C   0  0  0  0  0  0  0  0  0  0  0  0
    3.5169   -0.9931    0.0000 O   0  0  0  0  0  0  0  0  0  0  0  0
   -0.2456    3.6110    0.0000 O   0  0  0  0  0  0  0  0  0  0  0  0
   -2.3510    3.5807    0.0000 C   0  0  0  0  0  0  0  0  0  0  0  0
    1.1200    3.2400    0.0000 O   0  0  0  0  0  0  0  0  0  0  0  0
    2.5900    2.9100    0.0000 C   0  0  0  0  0  0  0  0  0  0  0  0
    1.0068    0.3616    0.0000 O   0  0  0  0  0  0  0  0  0  0  0  0
    3.7711    2.6979    0.0000 C   0  0  0  0  0  0  0  0  0  0  0  0
    2.1162    4.0125    0.0000 C   0  0  0  0  0  0  0  0  0  0  0  0
    5.0029   -0.7830    0.0000 C   0  0  0  0  0  0  0  0  0  0  0  0
    5.9286   -1.9644    0.0000 C   0  0  0  0  0  0  0  0  0  0  0  0
    5.4512    0.3301    0.0000 O   0  0  0  0  0  0  0  0  0  0  0  0
    7.4147   -1.7544    0.0000 C   0  0  0  0  0  0  0  0  0  0  0  0
    8.3403   -2.9357    0.0000 C   0  0  0  0  0  0  0  0  0  0  0  0
    9.8259   -2.7280    0.0000 C   0  0  0  0  0  0  0  0  0  0  0  0
   10.7487   -3.9106    0.0000 C   0  0  0  0  0  0  0  0  0  0  0  0
   10.1859   -5.3010    0.0000 C   0  0  0  0  0  0  0  0  0  0  0  0
    8.7004   -5.5088    0.0000 C   0  0  0  0  0  0  0  0  0  0  0  0
    7.7776   -4.3262    0.0000 C   0  0  0  0  0  0  0  0  0  0  0  0
  1  2  1  0
  1  4  1  0
  2  3  1  0
  3  6  1  0
  5  4  1  0
  5  6  1  0
  5 10  1  0
  6  7  1  0
  7  8  1  0
  8  9  1  0
  9 10  1  0
  4 11  1  0
 11 12  1  0
 12 13  1  0
 12 14  2  0
 10 15  1  0
 15 16  1  0
 16 17  1  0
 16 18  2  0
 17 19  2  0
 19 20  1  0
 20 21  2  0
 21 22  1  0
 22 23  2  0
 23 17  1  0
  5 24  1  0
  9 25  1  0
  3 26  1  0
  3 27  1  0
  6 28  1  0
  8 29  1  0
 28 29  1  0
  7 30  2  0
 29 31  1  0
 29 32  1  0
 25 33  1  0
 33 34  1  0
 33 35  2  0
 34 36  2  3
 36 37  1  0
 37 38  2  0
 38 39  1  0
 39 40  2  0
 40 41  1  0
 41 42  2  0
 42 37  1  0
M  END
>  <Classification>  (770) 
1

>  <pchembl>  (770) 
6.2

>  <InChI_steorem>  (770) 
InChI=1S/C33H36O9/c1-20(34)39-23-18-19-31(4,38)33-27(36)25(30(2,3)42-33)26(40-24(35)17-16-21-12-8-6-9-13-21)28(32(23,33)5)41-29(37)22-14-10-7-11-15-22/h6-17,23,25-26,28,38H,18-19H2,1-5H3

>  <source>  (770) 
ChEMBL25

>  <source_id>  (770) 
25

>  <optional_reference>  (770) 
10.1021/acs.jmedchem.5b01429

>  <optional_origin>  (770) 
None

>  <target>  (770) 
MDR1

$$$$

     RDKit          2D

 50 54  0  0  0  0  0  0  0  0999 V2000
   -2.5800    0.7500    0.0000 C   0  0  0  0  0  0  0  0  0  0  0  0
   -2.5800    2.2400    0.0000 C   0  0  0  0  0  0  0  0  0  0  0  0
   -1.2900    3.0200    0.0000 C   0  0  0  0  0  0  0  0  0  0  0  0
   -1.2900    0.0100    0.0000 C   0  0  0  0  0  0  0  0  0  0  0  0
    0.0000    0.7400    0.0000 C   0  0  0  0  0  0  0  0  0  0  0  0
    0.0000    2.2900    0.0000 C   0  0  0  0  0  0  0  0  0  0  0  0
    1.3200    1.5200    0.0000 C   0  0  0  0  0  0  0  0  0  0  0  0
    3.2600    1.5200    0.0000 C   0  0  0  0  0  0  0  0  0  0  0  0
    2.5900    0.1900    0.0000 C   0  0  0  0  0  0  0  0  0  0  0  0
    1.1200   -0.1300    0.0000 C   0  0  0  0  0  0  0  0  0  0  0  0
   -2.2596   -1.1360    0.0000 O   0  0  0  0  0  0  0  0  0  0  0  0
   -1.7529   -2.5487    0.0000 C   0  0  0  0  0  0  0  0  0  0  0  0
   -2.5289   -3.4641    0.0000 C   0  0  0  0  0  0  0  0  0  0  0  0
   -0.7691   -2.7276    0.0000 O   0  0  0  0  0  0  0  0  0  0  0  0
    0.7561   -1.5887    0.0000 O   0  0  0  0  0  0  0  0  0  0  0  0
    1.4134   -2.9379    0.0000 C   0  0  0  0  0  0  0  0  0  0  0  0
    0.5744   -4.1823    0.0000 C   0  0  0  0  0  0  0  0  0  0  0  0
    2.4109   -3.0078    0.0000 O   0  0  0  0  0  0  0  0  0  0  0  0
    1.2293   -5.5318    0.0000 C   0  0  0  0  0  0  0  0  0  0  0  0
    0.3883   -6.7738    0.0000 C   0  0  0  0  0  0  0  0  0  0  0  0
   -1.1079   -6.6664    0.0000 C   0  0  0  0  0  0  0  0  0  0  0  0
   -1.7630   -5.3170    0.0000 C   0  0  0  0  0  0  0  0  0  0  0  0
   -0.9219   -4.0750    0.0000 C   0  0  0  0  0  0  0  0  0  0  0  0
   -0.0872   -0.4568    0.0000 C   0  0  0  0  0  0  0  0  0  0  0  0
    4.0605   -0.1205    0.0000 O   0  0  0  0  0  0  0  0  0  0  0  0
   -0.2456    3.6110    0.0000 O   0  0  0  0  0  0  0  0  0  0  0  0
   -2.3510    3.5807    0.0000 C   0  0  0  0  0  0  0  0  0  0  0  0
    1.1200    3.2400    0.0000 O   0  0  0  0  0  0  0  0  0  0  0  0
    2.5900    2.9100    0.0000 C   0  0  0  0  0  0  0  0  0  0  0  0
    1.2773    0.0143    0.0000 O   0  0  0  0  0  0  0  0  0  0  0  0
    3.7711    2.6979    0.0000 C   0  0  0  0  0  0  0  0  0  0  0  0
    2.1162    4.0125    0.0000 C   0  0  0  0  0  0  0  0  0  0  0  0
    5.0639    0.9956    0.0000 C   0  0  0  0  0  0  0  0  0  0  0  0
    6.5323    0.6857    0.0000 C   0  0  0  0  0  0  0  0  0  0  0  0
    4.6918    2.1365    0.0000 O   0  0  0  0  0  0  0  0  0  0  0  0
    7.5357    1.8018    0.0000 C   0  0  0  0  0  0  0  0  0  0  0  0
    9.0042    1.4918    0.0000 C   0  0  0  0  0  0  0  0  0  0  0  0
   10.0087    2.6059    0.0000 C   0  0  0  0  0  0  0  0  0  0  0  0
   11.4757    2.2931    0.0000 C   0  0  0  0  0  0  0  0  0  0  0  0
   11.9383    0.8662    0.0000 C   0  0  0  0  0  0  0  0  0  0  0  0
   10.9339   -0.2479    0.0000 C   0  0  0  0  0  0  0  0  0  0  0  0
    9.4669    0.0649    0.0000 C   0  0  0  0  0  0  0  0  0  0  0  0
    2.7477   -0.2862    0.0000 C   0  0  0  0  0  0  0  0  0  0  0  0
    3.2235   -1.7096    0.0000 C   0  0  0  0  0  0  0  0  0  0  0  0
    3.5434    0.6120    0.0000 O   0  0  0  0  0  0  0  0  0  0  0  0
    4.6939   -2.0102    0.0000 C   0  0  0  0  0  0  0  0  0  0  0  0
    5.6901   -0.8877    0.0000 C   0  0  0  0  0  0  0  0  0  0  0  0
    5.3740    0.0610    0.0000 O   0  0  0  0  0  0  0  0  0  0  0  0
    7.1606   -1.1883    0.0000 O   0  0  0  0  0  0  0  0  0  0  0  0
    7.9571   -0.2908    0.0000 C   0  0  0  0  0  0  0  0  0  0  0  0
  1  2  1  0
  1  4  1  0
  2  3  1  0
  3  6  1  0
  5  4  1  0
  5  6  1  0
  5 10  1  0
  6  7  1  0
  7  8  1  0
  8  9  1  0
  9 10  1  0
  4 11  1  0
 11 12  1  0
 12 13  1  0
 12 14  2  0
 10 15  1  0
 15 16  1  0
 16 17  1  0
 16 18  2  0
 17 19  2  0
 19 20  1  0
 20 21  2  0
 21 22  1  0
 22 23  2  0
 23 17  1  0
  5 24  1  0
  9 25  1  0
  3 26  1  0
  3 27  1  0
  6 28  1  0
  8 29  1  0
 28 29  1  0
  7 30  1  0
 29 31  1  0
 29 32  1  0
 25 33  1  0
 33 34  1  0
 33 35  2  0
 34 36  2  3
 36 37  1  0
 37 38  2  0
 38 39  1  0
 39 40  2  0
 40 41  1  0
 41 42  2  0
 42 37  1  0
 30 43  1  0
 43 44  1  0
 43 45  2  0
 44 46  1  0
 46 47  1  0
 47 48  2  0
 47 49  1  0
 49 50  1  0
M  END
>  <Classification>  (771) 
1

>  <pchembl>  (771) 
6.64

>  <InChI_steorem>  (771) 
InChI=1S/C38H44O12/c1-23(39)46-26-21-22-36(4,44)38-32(48-29(42)20-19-27(40)45-6)30(35(2,3)50-38)31(47-28(41)18-17-24-13-9-7-10-14-24)33(37(26,38)5)49-34(43)25-15-11-8-12-16-25/h7-18,26,30-33,44H,19-22H2,1-6H3

>  <source>  (771) 
ChEMBL25

>  <source_id>  (771) 
25

>  <optional_reference>  (771) 
10.1021/acs.jmedchem.5b01429

>  <optional_origin>  (771) 
None

>  <target>  (771) 
MDR1

$$$$

     RDKit          2D

 51 55  0  0  0  0  0  0  0  0999 V2000
   -0.6608    4.2627    0.0000 C   0  0  0  0  0  0  0  0  0  0  0  0
   -0.1512    5.6628    0.0000 C   0  0  0  0  0  0  0  0  0  0  0  0
    1.3278    5.9546    0.0000 C   0  0  0  0  0  0  0  0  0  0  0  0
    0.2983    3.1261    0.0000 C   0  0  0  0  0  0  0  0  0  0  0  0
    1.7602    3.3709    0.0000 C   0  0  0  0  0  0  0  0  0  0  0  0
    2.2903    4.8274    0.0000 C   0  0  0  0  0  0  0  0  0  0  0  0
    3.2673    3.6524    0.0000 C   0  0  0  0  0  0  0  0  0  0  0  0
    5.0903    2.9889    0.0000 C   0  0  0  0  0  0  0  0  0  0  0  0
    4.0058    1.9682    0.0000 C   0  0  0  0  0  0  0  0  0  0  0  0
    2.5151    2.1703    0.0000 C   0  0  0  0  0  0  0  0  0  0  0  0
   -0.6713    1.9801    0.0000 O   0  0  0  0  0  0  0  0  0  0  0  0
   -0.1647    0.5674    0.0000 C   0  0  0  0  0  0  0  0  0  0  0  0
   -0.9406   -0.3480    0.0000 C   0  0  0  0  0  0  0  0  0  0  0  0
    0.8192    0.3885    0.0000 O   0  0  0  0  0  0  0  0  0  0  0  0
    1.6742    0.9241    0.0000 O   0  0  0  0  0  0  0  0  0  0  0  0
    1.8304   -0.5686    0.0000 C   0  0  0  0  0  0  0  0  0  0  0  0
    0.6163   -1.4510    0.0000 C   0  0  0  0  0  0  0  0  0  0  0  0
    2.7439   -0.9755    0.0000 O   0  0  0  0  0  0  0  0  0  0  0  0
    0.7703   -2.9431    0.0000 C   0  0  0  0  0  0  0  0  0  0  0  0
   -0.4449   -3.8225    0.0000 C   0  0  0  0  0  0  0  0  0  0  0  0
   -1.8140   -3.2099    0.0000 C   0  0  0  0  0  0  0  0  0  0  0  0
   -1.9681   -1.7178    0.0000 C   0  0  0  0  0  0  0  0  0  0  0  0
   -0.7529   -0.8384    0.0000 C   0  0  0  0  0  0  0  0  0  0  0  0
    1.2689    2.2761    0.0000 C   0  0  0  0  0  0  0  0  0  0  0  0
    4.4722    0.5395    0.0000 O   0  0  0  0  0  0  0  0  0  0  0  0
    2.5113    6.1527    0.0000 O   0  0  0  0  0  0  0  0  0  0  0  0
    0.5226    6.8443    0.0000 C   0  0  0  0  0  0  0  0  0  0  0  0
    3.6677    5.3371    0.0000 O   0  0  0  0  0  0  0  0  0  0  0  0
    4.9361    4.5242    0.0000 C   0  0  0  0  0  0  0  0  0  0  0  0
    2.7122    2.2521    0.0000 O   0  0  0  0  0  0  0  0  0  0  0  0
    5.9735    3.9210    0.0000 C   0  0  0  0  0  0  0  0  0  0  0  0
    4.8680    5.7223    0.0000 C   0  0  0  0  0  0  0  0  0  0  0  0
    5.9405    0.2286    0.0000 C   0  0  0  0  0  0  0  0  0  0  0  0
    6.4063   -1.1981    0.0000 C   0  0  0  0  0  0  0  0  0  0  0  0
    6.7424    1.1213    0.0000 O   0  0  0  0  0  0  0  0  0  0  0  0
    7.8745   -1.5090    0.0000 C   0  0  0  0  0  0  0  0  0  0  0  0
    8.3403   -2.9357    0.0000 C   0  0  0  0  0  0  0  0  0  0  0  0
    9.8259   -2.7280    0.0000 C   0  0  0  0  0  0  0  0  0  0  0  0
   10.7487   -3.9106    0.0000 C   0  0  0  0  0  0  0  0  0  0  0  0
   10.1859   -5.3010    0.0000 C   0  0  0  0  0  0  0  0  0  0  0  0
    8.7004   -5.5088    0.0000 C   0  0  0  0  0  0  0  0  0  0  0  0
    7.7776   -4.3262    0.0000 C   0  0  0  0  0  0  0  0  0  0  0  0
    3.6454    1.0767    0.0000 C   0  0  0  0  0  0  0  0  0  0  0  0
    3.0949   -0.3195    0.0000 C   0  0  0  0  0  0  0  0  0  0  0  0
    4.8323    1.2534    0.0000 O   0  0  0  0  0  0  0  0  0  0  0  0
    3.5699   -1.7432    0.0000 C   0  0  0  0  0  0  0  0  0  0  0  0
    5.0401   -2.0447    0.0000 C   0  0  0  0  0  0  0  0  0  0  0  0
    5.7036   -1.2966    0.0000 O   0  0  0  0  0  0  0  0  0  0  0  0
    5.5150   -3.4684    0.0000 O   0  0  0  0  0  0  0  0  0  0  0  0
    6.9852   -3.7699    0.0000 C   0  0  0  0  0  0  0  0  0  0  0  0
    7.3649   -4.9083    0.0000 C   0  0  0  0  0  0  0  0  0  0  0  0
  1  2  1  0
  1  4  1  0
  2  3  1  0
  3  6  1  0
  5  4  1  0
  5  6  1  0
  5 10  1  0
  6  7  1  0
  7  8  1  0
  8  9  1  0
  9 10  1  0
  4 11  1  0
 11 12  1  0
 12 13  1  0
 12 14  2  0
 10 15  1  0
 15 16  1  0
 16 17  1  0
 16 18  2  0
 17 19  2  0
 19 20  1  0
 20 21  2  0
 21 22  1  0
 22 23  2  0
 23 17  1  0
  5 24  1  0
  9 25  1  0
  3 26  1  0
  3 27  1  0
  6 28  1  0
  8 29  1  0
 28 29  1  0
  7 30  1  0
 29 31  1  0
 29 32  1  0
 25 33  1  0
 33 34  1  0
 33 35  2  0
 34 36  2  3
 36 37  1  0
 37 38  2  0
 38 39  1  0
 39 40  2  0
 40 41  1  0
 41 42  2  0
 42 37  1  0
 30 43  1  0
 43 44  1  0
 43 45  2  0
 44 46  1  0
 46 47  1  0
 47 48  2  0
 47 49  1  0
 49 50  1  0
 50 51  1  0
M  END
>  <Classification>  (772) 
1

>  <pchembl>  (772) 
6.58

>  <InChI_steorem>  (772) 
InChI=1S/C39H46O12/c1-7-46-28(41)20-21-30(43)49-33-31-32(48-29(42)19-18-25-14-10-8-11-15-25)34(50-35(44)26-16-12-9-13-17-26)38(6)27(47-24(2)40)22-23-37(5,45)39(33,38)51-36(31,3)4/h8-19,27,31-34,45H,7,20-23H2,1-6H3

>  <source>  (772) 
ChEMBL25

>  <source_id>  (772) 
25

>  <optional_reference>  (772) 
10.1021/acs.jmedchem.5b01429

>  <optional_origin>  (772) 
None

>  <target>  (772) 
MDR1

$$$$

     RDKit          2D

 51 55  0  0  0  0  0  0  0  0999 V2000
   -2.5800    0.7500    0.0000 C   0  0  0  0  0  0  0  0  0  0  0  0
   -2.5800    2.2400    0.0000 C   0  0  0  0  0  0  0  0  0  0  0  0
   -1.2900    3.0200    0.0000 C   0  0  0  0  0  0  0  0  0  0  0  0
   -1.2900    0.0100    0.0000 C   0  0  0  0  0  0  0  0  0  0  0  0
    0.0000    0.7400    0.0000 C   0  0  0  0  0  0  0  0  0  0  0  0
    0.0000    2.2900    0.0000 C   0  0  0  0  0  0  0  0  0  0  0  0
    1.3200    1.5200    0.0000 C   0  0  0  0  0  0  0  0  0  0  0  0
    3.2600    1.5200    0.0000 C   0  0  0  0  0  0  0  0  0  0  0  0
    2.5900    0.1900    0.0000 C   0  0  0  0  0  0  0  0  0  0  0  0
    1.1200   -0.1300    0.0000 C   0  0  0  0  0  0  0  0  0  0  0  0
   -2.2596   -1.1360    0.0000 O   0  0  0  0  0  0  0  0  0  0  0  0
   -1.7529   -2.5487    0.0000 C   0  0  0  0  0  0  0  0  0  0  0  0
   -2.5289   -3.4641    0.0000 C   0  0  0  0  0  0  0  0  0  0  0  0
   -0.7691   -2.7276    0.0000 O   0  0  0  0  0  0  0  0  0  0  0  0
    1.2769   -1.6252    0.0000 O   0  0  0  0  0  0  0  0  0  0  0  0
    2.6477   -2.2362    0.0000 C   0  0  0  0  0  0  0  0  0  0  0  0
    2.8049   -3.7288    0.0000 C   0  0  0  0  0  0  0  0  0  0  0  0
    3.4568   -1.6486    0.0000 O   0  0  0  0  0  0  0  0  0  0  0  0
    4.1740   -4.3415    0.0000 C   0  0  0  0  0  0  0  0  0  0  0  0
    4.3281   -5.8336    0.0000 C   0  0  0  0  0  0  0  0  0  0  0  0
    3.1129   -6.7130    0.0000 C   0  0  0  0  0  0  0  0  0  0  0  0
    1.7437   -6.1004    0.0000 C   0  0  0  0  0  0  0  0  0  0  0  0
    1.5897   -4.6083    0.0000 C   0  0  0  0  0  0  0  0  0  0  0  0
   -0.0872   -0.4568    0.0000 C   0  0  0  0  0  0  0  0  0  0  0  0
    3.8656   -0.6047    0.0000 O   0  0  0  0  0  0  0  0  0  0  0  0
   -0.2456    3.6110    0.0000 O   0  0  0  0  0  0  0  0  0  0  0  0
   -2.3510    3.5807    0.0000 C   0  0  0  0  0  0  0  0  0  0  0  0
    1.1200    3.2400    0.0000 O   0  0  0  0  0  0  0  0  0  0  0  0
    2.5900    2.9100    0.0000 C   0  0  0  0  0  0  0  0  0  0  0  0
    1.2773    0.0143    0.0000 O   0  0  0  0  0  0  0  0  0  0  0  0
    3.7711    2.6979    0.0000 C   0  0  0  0  0  0  0  0  0  0  0  0
    2.1162    4.0125    0.0000 C   0  0  0  0  0  0  0  0  0  0  0  0
    5.1902    0.1009    0.0000 C   0  0  0  0  0  0  0  0  0  0  0  0
    6.4641   -0.6926    0.0000 C   0  0  0  0  0  0  0  0  0  0  0  0
    5.2308    1.3002    0.0000 O   0  0  0  0  0  0  0  0  0  0  0  0
    7.7887    0.0130    0.0000 C   0  0  0  0  0  0  0  0  0  0  0  0
    9.0626   -0.7805    0.0000 C   0  0  0  0  0  0  0  0  0  0  0  0
   10.3875   -0.0772    0.0000 C   0  0  0  0  0  0  0  0  0  0  0  0
   11.6591   -0.8728    0.0000 C   0  0  0  0  0  0  0  0  0  0  0  0
   11.6058   -2.3719    0.0000 C   0  0  0  0  0  0  0  0  0  0  0  0
   10.2810   -3.0753    0.0000 C   0  0  0  0  0  0  0  0  0  0  0  0
    9.0094   -2.2796    0.0000 C   0  0  0  0  0  0  0  0  0  0  0  0
    2.2105   -1.1611    0.0000 C   0  0  0  0  0  0  0  0  0  0  0  0
    2.1708   -2.6614    0.0000 C   0  0  0  0  0  0  0  0  0  0  0  0
    3.3974   -0.9844    0.0000 O   0  0  0  0  0  0  0  0  0  0  0  0
    0.8521   -3.3780    0.0000 C   0  0  0  0  0  0  0  0  0  0  0  0
    0.8123   -4.8783    0.0000 C   0  0  0  0  0  0  0  0  0  0  0  0
   -0.5064   -5.5949    0.0000 C   0  0  0  0  0  0  0  0  0  0  0  0
   -1.5295   -4.9679    0.0000 O   0  0  0  0  0  0  0  0  0  0  0  0
   -0.5461   -7.0952    0.0000 O   0  0  0  0  0  0  0  0  0  0  0  0
   -1.6005   -7.6681    0.0000 C   0  0  0  0  0  0  0  0  0  0  0  0
  1  2  1  0
  1  4  1  0
  2  3  1  0
  3  6  1  0
  5  4  1  0
  5  6  1  0
  5 10  1  0
  6  7  1  0
  7  8  1  0
  8  9  1  0
  9 10  1  0
  4 11  1  0
 11 12  1  0
 12 13  1  0
 12 14  2  0
 10 15  1  0
 15 16  1  0
 16 17  1  0
 16 18  2  0
 17 19  2  0
 19 20  1  0
 20 21  2  0
 21 22  1  0
 22 23  2  0
 23 17  1  0
  5 24  1  0
  9 25  1  0
  3 26  1  0
  3 27  1  0
  6 28  1  0
  8 29  1  0
 28 29  1  0
  7 30  1  0
 29 31  1  0
 29 32  1  0
 25 33  1  0
 33 34  1  0
 33 35  2  0
 34 36  2  3
 36 37  1  0
 37 38  2  0
 38 39  1  0
 39 40  2  0
 40 41  1  0
 41 42  2  0
 42 37  1  0
 30 43  1  0
 43 44  1  0
 43 45  2  0
 44 46  1  0
 46 47  1  0
 47 48  1  0
 48 49  2  0
 48 50  1  0
 50 51  1  0
M  END
>  <Classification>  (773) 
1

>  <pchembl>  (773) 
6.21

>  <InChI_steorem>  (773) 
InChI=1S/C39H46O12/c1-24(40)47-27-22-23-37(4,45)39-33(49-29(42)19-13-18-28(41)46-6)31(36(2,3)51-39)32(48-30(43)21-20-25-14-9-7-10-15-25)34(38(27,39)5)50-35(44)26-16-11-8-12-17-26/h7-12,14-17,20-21,27,31-34,45H,13,18-19,22-23H2,1-6H3

>  <source>  (773) 
ChEMBL25

>  <source_id>  (773) 
25

>  <optional_reference>  (773) 
10.1021/acs.jmedchem.5b01429

>  <optional_origin>  (773) 
None

>  <target>  (773) 
MDR1

$$$$

     RDKit          2D

 52 56  0  0  0  0  0  0  0  0999 V2000
   -2.5800    0.7500    0.0000 C   0  0  0  0  0  0  0  0  0  0  0  0
   -2.5800    2.2400    0.0000 C   0  0  0  0  0  0  0  0  0  0  0  0
   -1.2900    3.0200    0.0000 C   0  0  0  0  0  0  0  0  0  0  0  0
   -1.2900    0.0100    0.0000 C   0  0  0  0  0  0  0  0  0  0  0  0
    0.0000    0.7400    0.0000 C   0  0  0  0  0  0  0  0  0  0  0  0
    0.0000    2.2900    0.0000 C   0  0  0  0  0  0  0  0  0  0  0  0
    1.3200    1.5200    0.0000 C   0  0  0  0  0  0  0  0  0  0  0  0
    3.2600    1.5200    0.0000 C   0  0  0  0  0  0  0  0  0  0  0  0
    2.5900    0.1900    0.0000 C   0  0  0  0  0  0  0  0  0  0  0  0
    1.1200   -0.1300    0.0000 C   0  0  0  0  0  0  0  0  0  0  0  0
   -2.2596   -1.1360    0.0000 O   0  0  0  0  0  0  0  0  0  0  0  0
   -1.7529   -2.5487    0.0000 C   0  0  0  0  0  0  0  0  0  0  0  0
   -2.5289   -3.4641    0.0000 C   0  0  0  0  0  0  0  0  0  0  0  0
   -0.7691   -2.7276    0.0000 O   0  0  0  0  0  0  0  0  0  0  0  0
    0.7561   -1.5887    0.0000 O   0  0  0  0  0  0  0  0  0  0  0  0
    1.8352   -2.6317    0.0000 C   0  0  0  0  0  0  0  0  0  0  0  0
    1.4724   -4.0880    0.0000 C   0  0  0  0  0  0  0  0  0  0  0  0
    2.7965   -2.3562    0.0000 O   0  0  0  0  0  0  0  0  0  0  0  0
    2.5494   -5.1321    0.0000 C   0  0  0  0  0  0  0  0  0  0  0  0
    2.1839   -6.5869    0.0000 C   0  0  0  0  0  0  0  0  0  0  0  0
    0.7412   -6.9977    0.0000 C   0  0  0  0  0  0  0  0  0  0  0  0
   -0.3359   -5.9537    0.0000 C   0  0  0  0  0  0  0  0  0  0  0  0
    0.0297   -4.4989    0.0000 C   0  0  0  0  0  0  0  0  0  0  0  0
   -0.0872   -0.4568    0.0000 C   0  0  0  0  0  0  0  0  0  0  0  0
    3.5169   -0.9931    0.0000 O   0  0  0  0  0  0  0  0  0  0  0  0
   -0.2456    3.6110    0.0000 O   0  0  0  0  0  0  0  0  0  0  0  0
   -2.3510    3.5807    0.0000 C   0  0  0  0  0  0  0  0  0  0  0  0
    1.1200    3.2400    0.0000 O   0  0  0  0  0  0  0  0  0  0  0  0
    2.5900    2.9100    0.0000 C   0  0  0  0  0  0  0  0  0  0  0  0
   -0.0053    0.8042    0.0000 O   0  0  0  0  0  0  0  0  0  0  0  0
    3.7711    2.6979    0.0000 C   0  0  0  0  0  0  0  0  0  0  0  0
    2.1162    4.0125    0.0000 C   0  0  0  0  0  0  0  0  0  0  0  0
    5.0029   -0.7830    0.0000 C   0  0  0  0  0  0  0  0  0  0  0  0
    5.9286   -1.9644    0.0000 C   0  0  0  0  0  0  0  0  0  0  0  0
    5.4512    0.3301    0.0000 O   0  0  0  0  0  0  0  0  0  0  0  0
    7.4147   -1.7544    0.0000 C   0  0  0  0  0  0  0  0  0  0  0  0
    8.3403   -2.9357    0.0000 C   0  0  0  0  0  0  0  0  0  0  0  0
    9.8259   -2.7280    0.0000 C   0  0  0  0  0  0  0  0  0  0  0  0
   10.7487   -3.9106    0.0000 C   0  0  0  0  0  0  0  0  0  0  0  0
   10.1859   -5.3010    0.0000 C   0  0  0  0  0  0  0  0  0  0  0  0
    8.7004   -5.5088    0.0000 C   0  0  0  0  0  0  0  0  0  0  0  0
    7.7776   -4.3262    0.0000 C   0  0  0  0  0  0  0  0  0  0  0  0
   -1.2822    1.5928    0.0000 C   0  0  0  0  0  0  0  0  0  0  0  0
   -2.7675    1.3771    0.0000 C   0  0  0  0  0  0  0  0  0  0  0  0
   -1.2463    2.7923    0.0000 O   0  0  0  0  0  0  0  0  0  0  0  0
   -3.6977    2.5549    0.0000 C   0  0  0  0  0  0  0  0  0  0  0  0
   -5.1829    2.3391    0.0000 C   0  0  0  0  0  0  0  0  0  0  0  0
   -5.5530    1.4101    0.0000 O   0  0  0  0  0  0  0  0  0  0  0  0
   -6.1131    3.5169    0.0000 O   0  0  0  0  0  0  0  0  0  0  0  0
   -7.5984    3.3012    0.0000 C   0  0  0  0  0  0  0  0  0  0  0  0
   -8.5285    4.4790    0.0000 C   0  0  0  0  0  0  0  0  0  0  0  0
   -9.7161    4.3065    0.0000 O   0  0  0  0  0  0  0  0  0  0  0  0
  1  2  1  0
  1  4  1  0
  2  3  1  0
  3  6  1  0
  5  4  1  0
  5  6  1  0
  5 10  1  0
  6  7  1  0
  7  8  1  0
  8  9  1  0
  9 10  1  0
  4 11  1  0
 11 12  1  0
 12 13  1  0
 12 14  2  0
 10 15  1  0
 15 16  1  0
 16 17  1  0
 16 18  2  0
 17 19  2  0
 19 20  1  0
 20 21  2  0
 21 22  1  0
 22 23  2  0
 23 17  1  0
  5 24  1  0
  9 25  1  0
  3 26  1  0
  3 27  1  0
  6 28  1  0
  8 29  1  0
 28 29  1  0
  7 30  1  0
 29 31  1  0
 29 32  1  0
 25 33  1  0
 33 34  1  0
 33 35  2  0
 34 36  2  3
 36 37  1  0
 37 38  2  0
 38 39  1  0
 39 40  2  0
 40 41  1  0
 41 42  2  0
 42 37  1  0
 30 43  1  0
 43 44  1  0
 43 45  2  0
 44 46  1  0
 46 47  1  0
 47 48  2  0
 47 49  1  0
 49 50  1  0
 50 51  1  0
 51 52  1  0
M  END
>  <Classification>  (774) 
1

>  <pchembl>  (774) 
6.3

>  <InChI_steorem>  (774) 
InChI=1S/C39H46O13/c1-24(41)48-27-20-21-37(4,46)39-33(50-30(44)19-18-28(42)47-23-22-40)31(36(2,3)52-39)32(49-29(43)17-16-25-12-8-6-9-13-25)34(38(27,39)5)51-35(45)26-14-10-7-11-15-26/h6-17,27,31-34,40,46H,18-23H2,1-5H3

>  <source>  (774) 
ChEMBL25

>  <source_id>  (774) 
25

>  <optional_reference>  (774) 
10.1021/acs.jmedchem.5b01429

>  <optional_origin>  (774) 
None

>  <target>  (774) 
MDR1

$$$$

     RDKit          2D

 53 57  0  0  0  0  0  0  0  0999 V2000
   -2.5800    0.7500    0.0000 C   0  0  0  0  0  0  0  0  0  0  0  0
   -2.5800    2.2400    0.0000 C   0  0  0  0  0  0  0  0  0  0  0  0
   -1.2900    3.0200    0.0000 C   0  0  0  0  0  0  0  0  0  0  0  0
   -1.2900    0.0100    0.0000 C   0  0  0  0  0  0  0  0  0  0  0  0
    0.0000    0.7400    0.0000 C   0  0  0  0  0  0  0  0  0  0  0  0
    0.0000    2.2900    0.0000 C   0  0  0  0  0  0  0  0  0  0  0  0
    1.3200    1.5200    0.0000 C   0  0  0  0  0  0  0  0  0  0  0  0
    3.2600    1.5200    0.0000 C   0  0  0  0  0  0  0  0  0  0  0  0
    2.5900    0.1900    0.0000 C   0  0  0  0  0  0  0  0  0  0  0  0
    1.1200   -0.1300    0.0000 C   0  0  0  0  0  0  0  0  0  0  0  0
   -1.2961   -1.4911    0.0000 O   0  0  0  0  0  0  0  0  0  0  0  0
   -2.5984   -2.2371    0.0000 C   0  0  0  0  0  0  0  0  0  0  0  0
   -3.6354   -1.6332    0.0000 C   0  0  0  0  0  0  0  0  0  0  0  0
   -2.6025   -3.2371    0.0000 O   0  0  0  0  0  0  0  0  0  0  0  0
    0.2791   -1.3762    0.0000 O   0  0  0  0  0  0  0  0  0  0  0  0
    0.9364   -2.7255    0.0000 C   0  0  0  0  0  0  0  0  0  0  0  0
    0.0974   -3.9699    0.0000 C   0  0  0  0  0  0  0  0  0  0  0  0
    1.9340   -2.7953    0.0000 O   0  0  0  0  0  0  0  0  0  0  0  0
    0.7524   -5.3193    0.0000 C   0  0  0  0  0  0  0  0  0  0  0  0
   -0.0887   -6.5613    0.0000 C   0  0  0  0  0  0  0  0  0  0  0  0
   -1.5848   -6.4539    0.0000 C   0  0  0  0  0  0  0  0  0  0  0  0
   -2.2399   -5.1045    0.0000 C   0  0  0  0  0  0  0  0  0  0  0  0
   -1.3988   -3.8625    0.0000 C   0  0  0  0  0  0  0  0  0  0  0  0
   -0.0872   -0.4568    0.0000 C   0  0  0  0  0  0  0  0  0  0  0  0
    3.5169   -0.9931    0.0000 O   0  0  0  0  0  0  0  0  0  0  0  0
   -2.6000    3.7104    0.0000 O   0  0  0  0  0  0  0  0  0  0  0  0
   -0.2451    3.6100    0.0000 C   0  0  0  0  0  0  0  0  0  0  0  0
    1.1200    3.2400    0.0000 O   0  0  0  0  0  0  0  0  0  0  0  0
    2.5900    2.9100    0.0000 C   0  0  0  0  0  0  0  0  0  0  0  0
    1.2773    0.0143    0.0000 O   0  0  0  0  0  0  0  0  0  0  0  0
    3.7711    2.6979    0.0000 C   0  0  0  0  0  0  0  0  0  0  0  0
    2.1162    4.0125    0.0000 C   0  0  0  0  0  0  0  0  0  0  0  0
    5.0029   -0.7830    0.0000 C   0  0  0  0  0  0  0  0  0  0  0  0
    5.9286   -1.9644    0.0000 C   0  0  0  0  0  0  0  0  0  0  0  0
    5.4512    0.3301    0.0000 O   0  0  0  0  0  0  0  0  0  0  0  0
    7.4147   -1.7544    0.0000 C   0  0  0  0  0  0  0  0  0  0  0  0
    8.3403   -2.9357    0.0000 C   0  0  0  0  0  0  0  0  0  0  0  0
    9.8259   -2.7280    0.0000 C   0  0  0  0  0  0  0  0  0  0  0  0
   10.7487   -3.9106    0.0000 C   0  0  0  0  0  0  0  0  0  0  0  0
   10.1859   -5.3010    0.0000 C   0  0  0  0  0  0  0  0  0  0  0  0
    8.7004   -5.5088    0.0000 C   0  0  0  0  0  0  0  0  0  0  0  0
    7.7776   -4.3262    0.0000 C   0  0  0  0  0  0  0  0  0  0  0  0
    2.2105   -1.1611    0.0000 C   0  0  0  0  0  0  0  0  0  0  0  0
    3.3974   -0.9844    0.0000 C   0  0  0  0  0  0  0  0  0  0  0  0
    1.8437   -2.0914    0.0000 O   0  0  0  0  0  0  0  0  0  0  0  0
   -3.8891    2.9419    0.0000 C   0  0  0  0  0  0  0  0  0  0  0  0
   -5.1997    3.6732    0.0000 C   0  0  0  0  0  0  0  0  0  0  0  0
   -3.8720    1.7420    0.0000 O   0  0  0  0  0  0  0  0  0  0  0  0
   -6.4889    2.9046    0.0000 N   0  0  0  0  0  0  0  0  0  0  0  0
   -7.7995    3.6359    0.0000 C   0  0  0  0  0  0  0  0  0  0  0  0
   -9.0886    2.8674    0.0000 C   0  0  0  0  0  0  0  0  0  0  0  0
  -10.1365    3.4521    0.0000 C   0  0  0  0  0  0  0  0  0  0  0  0
   -9.0714    1.6675    0.0000 C   0  0  0  0  0  0  0  0  0  0  0  0
  1  2  1  0
  1  4  1  0
  2  3  1  0
  3  6  1  0
  5  4  1  0
  5  6  1  0
  5 10  1  0
  6  7  1  0
  7  8  1  0
  8  9  1  0
  9 10  1  0
  4 11  1  0
 11 12  1  0
 12 13  1  0
 12 14  2  0
 10 15  1  0
 15 16  1  0
 16 17  1  0
 16 18  2  0
 17 19  2  0
 19 20  1  0
 20 21  2  0
 21 22  1  0
 22 23  2  0
 23 17  1  0
  5 24  1  0
  9 25  1  0
  3 26  1  0
  3 27  1  0
  6 28  1  0
  8 29  1  0
 28 29  1  0
  7 30  1  0
 29 31  1  0
 29 32  1  0
 25 33  1  0
 33 34  1  0
 33 35  2  0
 34 36  2  3
 36 37  1  0
 37 38  2  0
 38 39  1  0
 39 40  2  0
 40 41  1  0
 41 42  2  0
 42 37  1  0
 30 43  1  0
 43 44  1  0
 43 45  2  0
 26 46  1  0
 46 47  1  0
 46 48  2  0
 47 49  1  0
 49 50  1  0
 50 51  1  0
 51 52  1  0
 51 53  1  0
M  END
>  <Classification>  (775) 
1

>  <pchembl>  (775) 
6.2

>  <InChI_steorem>  (775) 
InChI=1S/C41H51NO11/c1-25(2)23-42-24-32(46)52-39(7)22-21-30(48-26(3)43)40(8)36(51-37(47)29-17-13-10-14-18-29)34(50-31(45)20-19-28-15-11-9-12-16-28)33-35(49-27(4)44)41(39,40)53-38(33,5)6/h9-20,25,30,33-36,42H,21-24H2,1-8H3

>  <source>  (775) 
ChEMBL25

>  <source_id>  (775) 
25

>  <optional_reference>  (775) 
10.1021/acs.jmedchem.5b01429

>  <optional_origin>  (775) 
None

>  <target>  (775) 
MDR1

$$$$

     RDKit          2D

 54 59  0  0  0  0  0  0  0  0999 V2000
   -2.5800    0.7500    0.0000 C   0  0  0  0  0  0  0  0  0  0  0  0
   -2.5800    2.2400    0.0000 C   0  0  0  0  0  0  0  0  0  0  0  0
   -1.2900    3.0200    0.0000 C   0  0  0  0  0  0  0  0  0  0  0  0
   -1.2900    0.0100    0.0000 C   0  0  0  0  0  0  0  0  0  0  0  0
    0.0000    0.7400    0.0000 C   0  0  0  0  0  0  0  0  0  0  0  0
    0.0000    2.2900    0.0000 C   0  0  0  0  0  0  0  0  0  0  0  0
    1.3200    1.5200    0.0000 C   0  0  0  0  0  0  0  0  0  0  0  0
    3.2600    1.5200    0.0000 C   0  0  0  0  0  0  0  0  0  0  0  0
    2.5900    0.1900    0.0000 C   0  0  0  0  0  0  0  0  0  0  0  0
    1.1200   -0.1300    0.0000 C   0  0  0  0  0  0  0  0  0  0  0  0
   -1.2961   -1.4911    0.0000 O   0  0  0  0  0  0  0  0  0  0  0  0
   -2.5984   -2.2371    0.0000 C   0  0  0  0  0  0  0  0  0  0  0  0
   -3.6354   -1.6332    0.0000 C   0  0  0  0  0  0  0  0  0  0  0  0
   -2.6025   -3.2371    0.0000 O   0  0  0  0  0  0  0  0  0  0  0  0
    0.2791   -1.3762    0.0000 O   0  0  0  0  0  0  0  0  0  0  0  0
    0.9364   -2.7255    0.0000 C   0  0  0  0  0  0  0  0  0  0  0  0
    0.0974   -3.9699    0.0000 C   0  0  0  0  0  0  0  0  0  0  0  0
    1.9340   -2.7953    0.0000 O   0  0  0  0  0  0  0  0  0  0  0  0
    0.7524   -5.3193    0.0000 C   0  0  0  0  0  0  0  0  0  0  0  0
   -0.0887   -6.5613    0.0000 C   0  0  0  0  0  0  0  0  0  0  0  0
   -1.5848   -6.4539    0.0000 C   0  0  0  0  0  0  0  0  0  0  0  0
   -2.2399   -5.1045    0.0000 C   0  0  0  0  0  0  0  0  0  0  0  0
   -1.3988   -3.8625    0.0000 C   0  0  0  0  0  0  0  0  0  0  0  0
   -0.0872   -0.4568    0.0000 C   0  0  0  0  0  0  0  0  0  0  0  0
    3.5169   -0.9931    0.0000 O   0  0  0  0  0  0  0  0  0  0  0  0
   -2.6000    3.7104    0.0000 O   0  0  0  0  0  0  0  0  0  0  0  0
   -0.2451    3.6100    0.0000 C   0  0  0  0  0  0  0  0  0  0  0  0
    1.1200    3.2400    0.0000 O   0  0  0  0  0  0  0  0  0  0  0  0
    2.5900    2.9100    0.0000 C   0  0  0  0  0  0  0  0  0  0  0  0
    1.2773    0.0143    0.0000 O   0  0  0  0  0  0  0  0  0  0  0  0
    3.7711    2.6979    0.0000 C   0  0  0  0  0  0  0  0  0  0  0  0
    2.1162    4.0125    0.0000 C   0  0  0  0  0  0  0  0  0  0  0  0
    5.0029   -0.7830    0.0000 C   0  0  0  0  0  0  0  0  0  0  0  0
    5.9286   -1.9644    0.0000 C   0  0  0  0  0  0  0  0  0  0  0  0
    5.4512    0.3301    0.0000 O   0  0  0  0  0  0  0  0  0  0  0  0
    7.4147   -1.7544    0.0000 C   0  0  0  0  0  0  0  0  0  0  0  0
    8.3403   -2.9357    0.0000 C   0  0  0  0  0  0  0  0  0  0  0  0
    9.8259   -2.7280    0.0000 C   0  0  0  0  0  0  0  0  0  0  0  0
   10.7487   -3.9106    0.0000 C   0  0  0  0  0  0  0  0  0  0  0  0
   10.1859   -5.3010    0.0000 C   0  0  0  0  0  0  0  0  0  0  0  0
    8.7004   -5.5088    0.0000 C   0  0  0  0  0  0  0  0  0  0  0  0
    7.7776   -4.3262    0.0000 C   0  0  0  0  0  0  0  0  0  0  0  0
    2.2105   -1.1611    0.0000 C   0  0  0  0  0  0  0  0  0  0  0  0
    3.3974   -0.9844    0.0000 C   0  0  0  0  0  0  0  0  0  0  0  0
    1.8437   -2.0914    0.0000 O   0  0  0  0  0  0  0  0  0  0  0  0
   -3.8891    2.9419    0.0000 C   0  0  0  0  0  0  0  0  0  0  0  0
   -5.1997    3.6732    0.0000 C   0  0  0  0  0  0  0  0  0  0  0  0
   -3.8720    1.7420    0.0000 O   0  0  0  0  0  0  0  0  0  0  0  0
   -6.4889    2.9046    0.0000 N   0  0  0  0  0  0  0  0  0  0  0  0
   -7.7998    3.6336    0.0000 C   0  0  0  0  0  0  0  0  0  0  0  0
   -9.0867    2.8629    0.0000 C   0  0  0  0  0  0  0  0  0  0  0  0
   -9.0626    1.3631    0.0000 O   0  0  0  0  0  0  0  0  0  0  0  0
   -7.7517    0.6340    0.0000 C   0  0  0  0  0  0  0  0  0  0  0  0
   -6.4649    1.4047    0.0000 C   0  0  0  0  0  0  0  0  0  0  0  0
  1  2  1  0
  1  4  1  0
  2  3  1  0
  3  6  1  0
  5  4  1  0
  5  6  1  0
  5 10  1  0
  6  7  1  0
  7  8  1  0
  8  9  1  0
  9 10  1  0
  4 11  1  0
 11 12  1  0
 12 13  1  0
 12 14  2  0
 10 15  1  0
 15 16  1  0
 16 17  1  0
 16 18  2  0
 17 19  2  0
 19 20  1  0
 20 21  2  0
 21 22  1  0
 22 23  2  0
 23 17  1  0
  5 24  1  0
  9 25  1  0
  3 26  1  0
  3 27  1  0
  6 28  1  0
  8 29  1  0
 28 29  1  0
  7 30  1  0
 29 31  1  0
 29 32  1  0
 25 33  1  0
 33 34  1  0
 33 35  2  0
 34 36  2  3
 36 37  1  0
 37 38  2  0
 38 39  1  0
 39 40  2  0
 40 41  1  0
 41 42  2  0
 42 37  1  0
 30 43  1  0
 43 44  1  0
 43 45  2  0
 26 46  1  0
 46 47  1  0
 46 48  2  0
 47 49  1  0
 49 50  1  0
 49 54  1  0
 50 51  1  0
 51 52  1  0
 52 53  1  0
 53 54  1  0
M  END
>  <Classification>  (776) 
1

>  <pchembl>  (776) 
6.51

>  <InChI_steorem>  (776) 
InChI=1S/C41H49NO12/c1-26(43)49-30-19-20-39(5,53-32(46)25-42-21-23-48-24-22-42)41-35(50-27(2)44)33(38(3,4)54-41)34(51-31(45)18-17-28-13-9-7-10-14-28)36(40(30,41)6)52-37(47)29-15-11-8-12-16-29/h7-18,30,33-36H,19-25H2,1-6H3

>  <source>  (776) 
ChEMBL25

>  <source_id>  (776) 
25

>  <optional_reference>  (776) 
10.1021/acs.jmedchem.5b01429

>  <optional_origin>  (776) 
None

>  <target>  (776) 
MDR1

$$$$

     RDKit          2D

 56 61  0  0  0  0  0  0  0  0999 V2000
   -2.5800    0.7500    0.0000 C   0  0  0  0  0  0  0  0  0  0  0  0
   -2.5800    2.2400    0.0000 C   0  0  0  0  0  0  0  0  0  0  0  0
   -1.2900    3.0200    0.0000 C   0  0  0  0  0  0  0  0  0  0  0  0
   -1.2900    0.0100    0.0000 C   0  0  0  0  0  0  0  0  0  0  0  0
    0.0000    0.7400    0.0000 C   0  0  0  0  0  0  0  0  0  0  0  0
    0.0000    2.2900    0.0000 C   0  0  0  0  0  0  0  0  0  0  0  0
    1.3200    1.5200    0.0000 C   0  0  0  0  0  0  0  0  0  0  0  0
    3.2600    1.5200    0.0000 C   0  0  0  0  0  0  0  0  0  0  0  0
    2.5900    0.1900    0.0000 C   0  0  0  0  0  0  0  0  0  0  0  0
    1.1200   -0.1300    0.0000 C   0  0  0  0  0  0  0  0  0  0  0  0
   -2.2596   -1.1360    0.0000 O   0  0  0  0  0  0  0  0  0  0  0  0
   -1.7529   -2.5487    0.0000 C   0  0  0  0  0  0  0  0  0  0  0  0
   -2.5289   -3.4641    0.0000 C   0  0  0  0  0  0  0  0  0  0  0  0
   -0.7691   -2.7276    0.0000 O   0  0  0  0  0  0  0  0  0  0  0  0
    0.7561   -1.5887    0.0000 O   0  0  0  0  0  0  0  0  0  0  0  0
    1.8352   -2.6317    0.0000 C   0  0  0  0  0  0  0  0  0  0  0  0
    1.4724   -4.0880    0.0000 C   0  0  0  0  0  0  0  0  0  0  0  0
    2.7965   -2.3562    0.0000 O   0  0  0  0  0  0  0  0  0  0  0  0
    2.5494   -5.1321    0.0000 C   0  0  0  0  0  0  0  0  0  0  0  0
    2.1839   -6.5869    0.0000 C   0  0  0  0  0  0  0  0  0  0  0  0
    0.7412   -6.9977    0.0000 C   0  0  0  0  0  0  0  0  0  0  0  0
   -0.3359   -5.9537    0.0000 C   0  0  0  0  0  0  0  0  0  0  0  0
    0.0297   -4.4989    0.0000 C   0  0  0  0  0  0  0  0  0  0  0  0
   -0.0872   -0.4568    0.0000 C   0  0  0  0  0  0  0  0  0  0  0  0
    3.5169   -0.9931    0.0000 O   0  0  0  0  0  0  0  0  0  0  0  0
   -0.2456    3.6110    0.0000 O   0  0  0  0  0  0  0  0  0  0  0  0
   -2.3510    3.5807    0.0000 C   0  0  0  0  0  0  0  0  0  0  0  0
    1.1200    3.2400    0.0000 O   0  0  0  0  0  0  0  0  0  0  0  0
    2.5900    2.9100    0.0000 C   0  0  0  0  0  0  0  0  0  0  0  0
   -0.0053    0.8042    0.0000 O   0  0  0  0  0  0  0  0  0  0  0  0
    3.7711    2.6979    0.0000 C   0  0  0  0  0  0  0  0  0  0  0  0
    2.1162    4.0125    0.0000 C   0  0  0  0  0  0  0  0  0  0  0  0
    5.0029   -0.7830    0.0000 C   0  0  0  0  0  0  0  0  0  0  0  0
    5.9286   -1.9644    0.0000 C   0  0  0  0  0  0  0  0  0  0  0  0
    5.4512    0.3301    0.0000 O   0  0  0  0  0  0  0  0  0  0  0  0
    7.4147   -1.7544    0.0000 C   0  0  0  0  0  0  0  0  0  0  0  0
    8.3403   -2.9357    0.0000 C   0  0  0  0  0  0  0  0  0  0  0  0
    9.8259   -2.7280    0.0000 C   0  0  0  0  0  0  0  0  0  0  0  0
   10.7487   -3.9106    0.0000 C   0  0  0  0  0  0  0  0  0  0  0  0
   10.1859   -5.3010    0.0000 C   0  0  0  0  0  0  0  0  0  0  0  0
    8.7004   -5.5088    0.0000 C   0  0  0  0  0  0  0  0  0  0  0  0
    7.7776   -4.3262    0.0000 C   0  0  0  0  0  0  0  0  0  0  0  0
   -1.2822    1.5928    0.0000 C   0  0  0  0  0  0  0  0  0  0  0  0
   -2.7675    1.3771    0.0000 C   0  0  0  0  0  0  0  0  0  0  0  0
   -1.2463    2.7923    0.0000 O   0  0  0  0  0  0  0  0  0  0  0  0
   -3.6977    2.5549    0.0000 C   0  0  0  0  0  0  0  0  0  0  0  0
   -5.1829    2.3391    0.0000 C   0  0  0  0  0  0  0  0  0  0  0  0
   -5.5530    1.4101    0.0000 O   0  0  0  0  0  0  0  0  0  0  0  0
   -6.1131    3.5169    0.0000 O   0  0  0  0  0  0  0  0  0  0  0  0
   -7.5984    3.3012    0.0000 C   0  0  0  0  0  0  0  0  0  0  0  0
   -8.1511    1.9067    0.0000 C   0  0  0  0  0  0  0  0  0  0  0  0
   -9.6351    1.6881    0.0000 C   0  0  0  0  0  0  0  0  0  0  0  0
  -10.5664    2.8639    0.0000 C   0  0  0  0  0  0  0  0  0  0  0  0
  -10.0138    4.2584    0.0000 C   0  0  0  0  0  0  0  0  0  0  0  0
   -8.5298    4.4770    0.0000 C   0  0  0  0  0  0  0  0  0  0  0  0
   -8.0877    5.5926    0.0000 O   0  0  0  0  0  0  0  0  0  0  0  0
  1  2  1  0
  1  4  1  0
  2  3  1  0
  3  6  1  0
  5  4  1  0
  5  6  1  0
  5 10  1  0
  6  7  1  0
  7  8  1  0
  8  9  1  0
  9 10  1  0
  4 11  1  0
 11 12  1  0
 12 13  1  0
 12 14  2  0
 10 15  1  0
 15 16  1  0
 16 17  1  0
 16 18  2  0
 17 19  2  0
 19 20  1  0
 20 21  2  0
 21 22  1  0
 22 23  2  0
 23 17  1  0
  5 24  1  0
  9 25  1  0
  3 26  1  0
  3 27  1  0
  6 28  1  0
  8 29  1  0
 28 29  1  0
  7 30  1  0
 29 31  1  0
 29 32  1  0
 25 33  1  0
 33 34  1  0
 33 35  2  0
 34 36  2  3
 36 37  1  0
 37 38  2  0
 38 39  1  0
 39 40  2  0
 40 41  1  0
 41 42  2  0
 42 37  1  0
 30 43  1  0
 43 44  1  0
 43 45  2  0
 44 46  1  0
 46 47  1  0
 47 48  2  0
 47 49  1  0
 49 50  1  0
 50 51  1  0
 50 55  1  0
 51 52  1  0
 52 53  1  0
 53 54  1  0
 54 55  1  0
 55 56  1  0
M  END
>  <Classification>  (777) 
1

>  <pchembl>  (777) 
6.34

>  <InChI_steorem>  (777) 
InChI=1S/C43H52O13/c1-26(44)51-31-24-25-41(4,50)43-37(54-34(48)23-22-32(46)52-30-19-13-12-18-29(30)45)35(40(2,3)56-43)36(53-33(47)21-20-27-14-8-6-9-15-27)38(42(31,43)5)55-39(49)28-16-10-7-11-17-28/h6-11,14-17,20-21,29-31,35-38,45,50H,12-13,18-19,22-25H2,1-5H3

>  <source>  (777) 
ChEMBL25

>  <source_id>  (777) 
25

>  <optional_reference>  (777) 
10.1021/acs.jmedchem.5b01429

>  <optional_origin>  (777) 
None

>  <target>  (777) 
MDR1

$$$$

     RDKit          2D

 64 70  0  0  0  0  0  0  0  0999 V2000
   -2.5800    0.7500    0.0000 C   0  0  0  0  0  0  0  0  0  0  0  0
   -2.5800    2.2400    0.0000 C   0  0  0  0  0  0  0  0  0  0  0  0
   -1.2900    3.0200    0.0000 C   0  0  0  0  0  0  0  0  0  0  0  0
   -1.2900    0.0100    0.0000 C   0  0  0  0  0  0  0  0  0  0  0  0
    0.0000    0.7400    0.0000 C   0  0  0  0  0  0  0  0  0  0  0  0
    0.0000    2.2900    0.0000 C   0  0  0  0  0  0  0  0  0  0  0  0
    1.3200    1.5200    0.0000 C   0  0  0  0  0  0  0  0  0  0  0  0
    3.2600    1.5200    0.0000 C   0  0  0  0  0  0  0  0  0  0  0  0
    2.5900    0.1900    0.0000 C   0  0  0  0  0  0  0  0  0  0  0  0
    1.1200   -0.1300    0.0000 C   0  0  0  0  0  0  0  0  0  0  0  0
   -2.2596   -1.1360    0.0000 O   0  0  0  0  0  0  0  0  0  0  0  0
   -1.7529   -2.5487    0.0000 C   0  0  0  0  0  0  0  0  0  0  0  0
   -2.5289   -3.4641    0.0000 C   0  0  0  0  0  0  0  0  0  0  0  0
   -0.7691   -2.7276    0.0000 O   0  0  0  0  0  0  0  0  0  0  0  0
    0.7561   -1.5887    0.0000 O   0  0  0  0  0  0  0  0  0  0  0  0
    1.8352   -2.6317    0.0000 C   0  0  0  0  0  0  0  0  0  0  0  0
    1.4724   -4.0880    0.0000 C   0  0  0  0  0  0  0  0  0  0  0  0
    2.7965   -2.3562    0.0000 O   0  0  0  0  0  0  0  0  0  0  0  0
    2.5494   -5.1321    0.0000 C   0  0  0  0  0  0  0  0  0  0  0  0
    2.1839   -6.5869    0.0000 C   0  0  0  0  0  0  0  0  0  0  0  0
    0.7412   -6.9977    0.0000 C   0  0  0  0  0  0  0  0  0  0  0  0
   -0.3359   -5.9537    0.0000 C   0  0  0  0  0  0  0  0  0  0  0  0
    0.0297   -4.4989    0.0000 C   0  0  0  0  0  0  0  0  0  0  0  0
   -0.0872   -0.4568    0.0000 C   0  0  0  0  0  0  0  0  0  0  0  0
    3.5169   -0.9931    0.0000 O   0  0  0  0  0  0  0  0  0  0  0  0
   -0.2456    3.6110    0.0000 O   0  0  0  0  0  0  0  0  0  0  0  0
   -2.3510    3.5807    0.0000 C   0  0  0  0  0  0  0  0  0  0  0  0
    1.1200    3.2400    0.0000 O   0  0  0  0  0  0  0  0  0  0  0  0
    2.5900    2.9100    0.0000 C   0  0  0  0  0  0  0  0  0  0  0  0
   -0.0053    0.8042    0.0000 O   0  0  0  0  0  0  0  0  0  0  0  0
    3.7711    2.6979    0.0000 C   0  0  0  0  0  0  0  0  0  0  0  0
    2.1162    4.0125    0.0000 C   0  0  0  0  0  0  0  0  0  0  0  0
    5.0029   -0.7830    0.0000 C   0  0  0  0  0  0  0  0  0  0  0  0
    5.9286   -1.9644    0.0000 C   0  0  0  0  0  0  0  0  0  0  0  0
    5.4512    0.3301    0.0000 O   0  0  0  0  0  0  0  0  0  0  0  0
    7.4147   -1.7544    0.0000 C   0  0  0  0  0  0  0  0  0  0  0  0
    8.3403   -2.9357    0.0000 C   0  0  0  0  0  0  0  0  0  0  0  0
    9.8259   -2.7280    0.0000 C   0  0  0  0  0  0  0  0  0  0  0  0
   10.7487   -3.9106    0.0000 C   0  0  0  0  0  0  0  0  0  0  0  0
   10.1859   -5.3010    0.0000 C   0  0  0  0  0  0  0  0  0  0  0  0
    8.7004   -5.5088    0.0000 C   0  0  0  0  0  0  0  0  0  0  0  0
    7.7776   -4.3262    0.0000 C   0  0  0  0  0  0  0  0  0  0  0  0
   -1.2822    1.5928    0.0000 C   0  0  0  0  0  0  0  0  0  0  0  0
   -2.7675    1.3771    0.0000 C   0  0  0  0  0  0  0  0  0  0  0  0
   -1.2463    2.7923    0.0000 O   0  0  0  0  0  0  0  0  0  0  0  0
   -3.6977    2.5549    0.0000 C   0  0  0  0  0  0  0  0  0  0  0  0
   -5.1829    2.3391    0.0000 C   0  0  0  0  0  0  0  0  0  0  0  0
   -5.5530    1.4101    0.0000 O   0  0  0  0  0  0  0  0  0  0  0  0
   -6.1131    3.5169    0.0000 N   0  0  0  0  0  0  0  0  0  0  0  0
   -7.5984    3.3012    0.0000 C   0  0  0  0  0  0  0  0  0  0  0  0
   -5.5578    4.9112    0.0000 C   0  0  0  0  0  0  0  0  0  0  0  0
   -8.5285    4.4790    0.0000 N   0  0  0  0  0  0  0  0  0  0  0  0
   -8.0424    2.1864    0.0000 O   0  0  0  0  0  0  0  0  0  0  0  0
  -10.0138    4.2633    0.0000 C   0  0  0  0  0  0  0  0  0  0  0  0
   -6.4855    6.0900    0.0000 C   0  0  0  0  0  0  0  0  0  0  0  0
   -5.9285    7.4828    0.0000 C   0  0  0  0  0  0  0  0  0  0  0  0
   -4.4439    7.6968    0.0000 C   0  0  0  0  0  0  0  0  0  0  0  0
   -3.5162    6.5181    0.0000 C   0  0  0  0  0  0  0  0  0  0  0  0
   -4.0731    5.1254    0.0000 C   0  0  0  0  0  0  0  0  0  0  0  0
  -10.9452    5.4391    0.0000 C   0  0  0  0  0  0  0  0  0  0  0  0
  -12.4292    5.2205    0.0000 C   0  0  0  0  0  0  0  0  0  0  0  0
  -12.9818    3.8260    0.0000 C   0  0  0  0  0  0  0  0  0  0  0  0
  -12.0505    2.6501    0.0000 C   0  0  0  0  0  0  0  0  0  0  0  0
  -10.5665    2.8688    0.0000 C   0  0  0  0  0  0  0  0  0  0  0  0
  1  2  1  0
  1  4  1  0
  2  3  1  0
  3  6  1  0
  5  4  1  0
  5  6  1  0
  5 10  1  0
  6  7  1  0
  7  8  1  0
  8  9  1  0
  9 10  1  0
  4 11  1  0
 11 12  1  0
 12 13  1  0
 12 14  2  0
 10 15  1  0
 15 16  1  0
 16 17  1  0
 16 18  2  0
 17 19  2  0
 19 20  1  0
 20 21  2  0
 21 22  1  0
 22 23  2  0
 23 17  1  0
  5 24  1  0
  9 25  1  0
  3 26  1  0
  3 27  1  0
  6 28  1  0
  8 29  1  0
 28 29  1  0
  7 30  1  0
 29 31  1  0
 29 32  1  0
 25 33  1  0
 33 34  1  0
 33 35  2  0
 34 36  2  3
 36 37  1  0
 37 38  2  0
 38 39  1  0
 39 40  2  0
 40 41  1  0
 41 42  2  0
 42 37  1  0
 30 43  1  0
 43 44  1  0
 43 45  2  0
 44 46  1  0
 46 47  1  0
 47 48  2  0
 47 49  1  0
 49 50  1  0
 49 51  1  0
 50 52  1  0
 50 53  2  0
 52 54  1  0
 51 55  1  0
 51 59  1  0
 55 56  1  0
 56 57  1  0
 57 58  1  0
 58 59  1  0
 54 60  1  0
 54 64  1  0
 60 61  1  0
 61 62  1  0
 62 63  1  0
 63 64  1  0
M  END
>  <Classification>  (778) 
1

>  <pchembl>  (778) 
6.72

>  <InChI_steorem>  (778) 
InChI=1S/C50H64N2O12/c1-32(53)60-37-30-31-48(4,59)50-43(62-40(56)29-27-38(54)52(36-24-16-9-17-25-36)46(58)51-35-22-14-8-15-23-35)41(47(2,3)64-50)42(61-39(55)28-26-33-18-10-6-11-19-33)44(49(37,50)5)63-45(57)34-20-12-7-13-21-34/h6-7,10-13,18-21,26,28,35-37,41-44,59H,8-9,14-17,22-25,27,29-31H2,1-5H3,(H,51,58)

>  <source>  (778) 
ChEMBL25

>  <source_id>  (778) 
25

>  <optional_reference>  (778) 
10.1021/acs.jmedchem.5b01429

>  <optional_origin>  (778) 
None

>  <target>  (778) 
MDR1

$$$$

     RDKit          2D

 23 26  0  0  0  0  0  0  0  0999 V2000
    7.8899   -6.8857    0.0000 C   0  0  0  0  0  0  0  0  0  0  0  0
    7.8899   -7.7107    0.0000 C   0  0  0  0  0  0  0  0  0  0  0  0
    7.1755   -8.1232    0.0000 C   0  0  0  0  0  0  0  0  0  0  0  0
    6.4610   -7.7107    0.0000 C   0  0  0  0  0  0  0  0  0  0  0  0
    5.7465   -8.1232    0.0000 C   0  0  0  0  0  0  0  0  0  0  0  0
    5.0320   -7.7107    0.0000 C   0  0  0  0  0  0  0  0  0  0  0  0
    5.0320   -6.8857    0.0000 C   0  0  0  0  0  0  0  0  0  0  0  0
    5.7465   -6.4732    0.0000 C   0  0  0  0  0  0  0  0  0  0  0  0
    6.4610   -6.8857    0.0000 C   0  0  0  0  0  0  0  0  0  0  0  0
    7.1755   -6.4732    0.0000 O   0  0  0  0  0  0  0  0  0  0  0  0
    5.7465   -5.6482    0.0000 C   0  0  0  0  0  0  0  0  0  0  0  0
    5.0320   -5.2357    0.0000 C   0  0  0  0  0  0  0  0  0  0  0  0
    4.3176   -5.6482    0.0000 C   0  0  0  0  0  0  0  0  0  0  0  0
    4.3176   -6.4732    0.0000 C   0  0  0  0  0  0  0  0  0  0  0  0
    7.1755   -8.9482    0.0000 O   0  0  0  0  0  0  0  0  0  0  0  0
    8.6044   -6.4732    0.0000 C   0  0  0  0  0  0  0  0  0  0  0  0
    8.6044   -5.6482    0.0000 C   0  0  0  0  0  0  0  0  0  0  0  0
    9.3189   -5.2357    0.0000 C   0  0  0  0  0  0  0  0  0  0  0  0
   10.0333   -5.6482    0.0000 C   0  0  0  0  0  0  0  0  0  0  0  0
   10.0333   -6.4732    0.0000 C   0  0  0  0  0  0  0  0  0  0  0  0
    9.3189   -6.8857    0.0000 C   0  0  0  0  0  0  0  0  0  0  0  0
   10.7478   -5.2357    0.0000 O   0  0  0  0  0  0  0  0  0  0  0  0
   11.4623   -5.6482    0.0000 C   0  0  0  0  0  0  0  0  0  0  0  0
  1  2  2  0
  2  3  1  0
  3  4  1  0
  4  5  2  0
  5  6  1  0
  6  7  2  0
  7  8  1  0
  8  9  2  0
  4  9  1  0
  9 10  1  0
  1 10  1  0
 11 12  2  0
 12 13  1  0
 13 14  2  0
  7 14  1  0
  8 11  1  0
  3 15  2  0
 16 17  2  0
 17 18  1  0
 18 19  2  0
 19 20  1  0
 20 21  2  0
 16 21  1  0
 22 23  1  0
 19 22  1  0
  1 16  1  0
M  END
>  <Classification>  (779) 
0

>  <pchembl>  (779) 
4.71

>  <InChI_steorem>  (779) 
InChI=1S/C20H14O3/c1-22-15-9-6-14(7-10-15)19-12-18(21)17-11-8-13-4-2-3-5-16(13)20(17)23-19/h2-12H,1H3

>  <source>  (779) 
ChEMBL25

>  <source_id>  (779) 
25

>  <optional_reference>  (779) 
10.1016/j.ejmech.2013.06.035

>  <optional_origin>  (779) 
None

>  <target>  (779) 
MDR1

$$$$

     RDKit          2D

 25 28  0  0  0  0  0  0  0  0999 V2000
    5.5280   -6.7821    0.0000 C   0  0  0  0  0  0  0  0  0  0  0  0
    5.5280   -7.6071    0.0000 C   0  0  0  0  0  0  0  0  0  0  0  0
    4.8135   -8.0196    0.0000 C   0  0  0  0  0  0  0  0  0  0  0  0
    4.0991   -7.6071    0.0000 C   0  0  0  0  0  0  0  0  0  0  0  0
    3.3846   -8.0196    0.0000 C   0  0  0  0  0  0  0  0  0  0  0  0
    2.6701   -7.6071    0.0000 C   0  0  0  0  0  0  0  0  0  0  0  0
    2.6701   -6.7821    0.0000 C   0  0  0  0  0  0  0  0  0  0  0  0
    3.3846   -6.3696    0.0000 C   0  0  0  0  0  0  0  0  0  0  0  0
    4.0991   -6.7821    0.0000 C   0  0  0  0  0  0  0  0  0  0  0  0
    4.8135   -6.3696    0.0000 O   0  0  0  0  0  0  0  0  0  0  0  0
    3.3846   -5.5446    0.0000 C   0  0  0  0  0  0  0  0  0  0  0  0
    2.6701   -5.1321    0.0000 C   0  0  0  0  0  0  0  0  0  0  0  0
    1.9556   -5.5446    0.0000 C   0  0  0  0  0  0  0  0  0  0  0  0
    1.9556   -6.3696    0.0000 C   0  0  0  0  0  0  0  0  0  0  0  0
    4.8135   -8.8446    0.0000 O   0  0  0  0  0  0  0  0  0  0  0  0
    6.2425   -6.3696    0.0000 C   0  0  0  0  0  0  0  0  0  0  0  0
    6.2425   -5.5446    0.0000 C   0  0  0  0  0  0  0  0  0  0  0  0
    6.9569   -5.1321    0.0000 C   0  0  0  0  0  0  0  0  0  0  0  0
    7.6714   -5.5446    0.0000 C   0  0  0  0  0  0  0  0  0  0  0  0
    7.6714   -6.3696    0.0000 C   0  0  0  0  0  0  0  0  0  0  0  0
    6.9569   -6.7821    0.0000 C   0  0  0  0  0  0  0  0  0  0  0  0
    8.3859   -5.1321    0.0000 O   0  0  0  0  0  0  0  0  0  0  0  0
    9.1003   -5.5446    0.0000 C   0  0  0  0  0  0  0  0  0  0  0  0
    6.9569   -4.3071    0.0000 O   0  0  0  0  0  0  0  0  0  0  0  0
    7.6714   -3.8946    0.0000 C   0  0  0  0  0  0  0  0  0  0  0  0
  1  2  2  0
  2  3  1  0
  3  4  1  0
  4  5  2  0
  5  6  1  0
  6  7  2  0
  7  8  1  0
  8  9  2  0
  4  9  1  0
  9 10  1  0
  1 10  1  0
 11 12  2  0
 12 13  1  0
 13 14  2  0
  7 14  1  0
  8 11  1  0
  3 15  2  0
 16 17  2  0
 17 18  1  0
 18 19  2  0
 19 20  1  0
 20 21  2  0
 16 21  1  0
 22 23  1  0
 19 22  1  0
 24 25  1  0
 18 24  1  0
  1 16  1  0
M  END
>  <Classification>  (780) 
1

>  <pchembl>  (780) 
5.4

>  <InChI_steorem>  (780) 
InChI=1S/C21H16O4/c1-23-18-10-8-14(11-20(18)24-2)19-12-17(22)16-9-7-13-5-3-4-6-15(13)21(16)25-19/h3-12H,1-2H3

>  <source>  (780) 
ChEMBL25

>  <source_id>  (780) 
25

>  <optional_reference>  (780) 
10.1016/j.ejmech.2013.06.035

>  <optional_origin>  (780) 
None

>  <target>  (780) 
MDR1

$$$$

     RDKit          2D

 26 29  0  0  0  0  0  0  0  0999 V2000
    3.6336   -4.5662    0.0000 C   0  0  0  0  0  0  0  0  0  0  0  0
    3.6336   -5.3912    0.0000 C   0  0  0  0  0  0  0  0  0  0  0  0
    2.9191   -5.8037    0.0000 C   0  0  0  0  0  0  0  0  0  0  0  0
    2.2047   -5.3912    0.0000 C   0  0  0  0  0  0  0  0  0  0  0  0
    1.4902   -5.8037    0.0000 C   0  0  0  0  0  0  0  0  0  0  0  0
    0.7757   -5.3912    0.0000 C   0  0  0  0  0  0  0  0  0  0  0  0
    0.7757   -4.5662    0.0000 C   0  0  0  0  0  0  0  0  0  0  0  0
    1.4902   -4.1537    0.0000 C   0  0  0  0  0  0  0  0  0  0  0  0
    2.2047   -4.5662    0.0000 C   0  0  0  0  0  0  0  0  0  0  0  0
    2.9191   -4.1537    0.0000 O   0  0  0  0  0  0  0  0  0  0  0  0
    1.4902   -3.3287    0.0000 C   0  0  0  0  0  0  0  0  0  0  0  0
    0.7757   -2.9162    0.0000 C   0  0  0  0  0  0  0  0  0  0  0  0
    0.0613   -3.3287    0.0000 C   0  0  0  0  0  0  0  0  0  0  0  0
    0.0613   -4.1537    0.0000 C   0  0  0  0  0  0  0  0  0  0  0  0
    2.9191   -6.6287    0.0000 O   0  0  0  0  0  0  0  0  0  0  0  0
    4.3481   -5.8037    0.0000 O   0  0  0  0  0  0  0  0  0  0  0  0
    4.3481   -4.1537    0.0000 C   0  0  0  0  0  0  0  0  0  0  0  0
    4.3481   -3.3287    0.0000 C   0  0  0  0  0  0  0  0  0  0  0  0
    5.0626   -2.9162    0.0000 C   0  0  0  0  0  0  0  0  0  0  0  0
    5.7770   -3.3287    0.0000 C   0  0  0  0  0  0  0  0  0  0  0  0
    5.7770   -4.1537    0.0000 C   0  0  0  0  0  0  0  0  0  0  0  0
    5.0626   -4.5662    0.0000 C   0  0  0  0  0  0  0  0  0  0  0  0
    6.4915   -2.9162    0.0000 O   0  0  0  0  0  0  0  0  0  0  0  0
    7.2060   -3.3287    0.0000 C   0  0  0  0  0  0  0  0  0  0  0  0
    5.0626   -2.0912    0.0000 O   0  0  0  0  0  0  0  0  0  0  0  0
    5.7770   -1.6787    0.0000 C   0  0  0  0  0  0  0  0  0  0  0  0
  1  2  2  0
  2  3  1  0
  3  4  1  0
  4  5  2  0
  5  6  1  0
  6  7  2  0
  7  8  1  0
  8  9  2  0
  4  9  1  0
  9 10  1  0
  1 10  1  0
 11 12  2  0
 12 13  1  0
 13 14  2  0
  7 14  1  0
  8 11  1  0
  3 15  2  0
  2 16  1  0
 17 18  2  0
 18 19  1  0
 19 20  2  0
 20 21  1  0
 21 22  2  0
 17 22  1  0
 23 24  1  0
 20 23  1  0
 25 26  1  0
 19 25  1  0
  1 17  1  0
M  END
>  <Classification>  (781) 
1

>  <pchembl>  (781) 
5.37

>  <InChI_steorem>  (781) 
InChI=1S/C21H16O5/c1-24-16-10-8-13(11-17(16)25-2)20-19(23)18(22)15-9-7-12-5-3-4-6-14(12)21(15)26-20/h3-11,23H,1-2H3

>  <source>  (781) 
ChEMBL25

>  <source_id>  (781) 
25

>  <optional_reference>  (781) 
10.1016/j.ejmech.2013.06.035

>  <optional_origin>  (781) 
None

>  <target>  (781) 
MDR1

$$$$

     RDKit          2D

 27 30  0  0  0  0  0  0  0  0999 V2000
    7.8493   -7.3100    0.0000 C   0  0  0  0  0  0  0  0  0  0  0  0
    7.8493   -8.1350    0.0000 C   0  0  0  0  0  0  0  0  0  0  0  0
    7.1348   -8.5475    0.0000 C   0  0  0  0  0  0  0  0  0  0  0  0
    6.4204   -8.1350    0.0000 C   0  0  0  0  0  0  0  0  0  0  0  0
    5.7059   -8.5475    0.0000 C   0  0  0  0  0  0  0  0  0  0  0  0
    4.9914   -8.1350    0.0000 C   0  0  0  0  0  0  0  0  0  0  0  0
    4.9914   -7.3100    0.0000 C   0  0  0  0  0  0  0  0  0  0  0  0
    5.7059   -6.8975    0.0000 C   0  0  0  0  0  0  0  0  0  0  0  0
    6.4204   -7.3100    0.0000 C   0  0  0  0  0  0  0  0  0  0  0  0
    7.1348   -6.8975    0.0000 O   0  0  0  0  0  0  0  0  0  0  0  0
    5.7059   -6.0725    0.0000 C   0  0  0  0  0  0  0  0  0  0  0  0
    4.9914   -5.6600    0.0000 C   0  0  0  0  0  0  0  0  0  0  0  0
    4.2769   -6.0725    0.0000 C   0  0  0  0  0  0  0  0  0  0  0  0
    4.2769   -6.8975    0.0000 C   0  0  0  0  0  0  0  0  0  0  0  0
    7.1348   -9.3725    0.0000 O   0  0  0  0  0  0  0  0  0  0  0  0
    8.5638   -8.5475    0.0000 O   0  0  0  0  0  0  0  0  0  0  0  0
    8.5638   -9.3725    0.0000 C   0  0  0  0  0  0  0  0  0  0  0  0
    8.5638   -6.8975    0.0000 C   0  0  0  0  0  0  0  0  0  0  0  0
    8.5638   -6.0725    0.0000 C   0  0  0  0  0  0  0  0  0  0  0  0
    9.2782   -5.6600    0.0000 C   0  0  0  0  0  0  0  0  0  0  0  0
    9.9927   -6.0725    0.0000 C   0  0  0  0  0  0  0  0  0  0  0  0
    9.9927   -6.8975    0.0000 C   0  0  0  0  0  0  0  0  0  0  0  0
    9.2782   -7.3100    0.0000 C   0  0  0  0  0  0  0  0  0  0  0  0
   10.7072   -5.6600    0.0000 O   0  0  0  0  0  0  0  0  0  0  0  0
   11.4217   -6.0725    0.0000 C   0  0  0  0  0  0  0  0  0  0  0  0
    9.2782   -4.8350    0.0000 O   0  0  0  0  0  0  0  0  0  0  0  0
    9.9927   -4.4225    0.0000 C   0  0  0  0  0  0  0  0  0  0  0  0
  1  2  2  0
  2  3  1  0
  3  4  1  0
  4  5  2  0
  5  6  1  0
  6  7  2  0
  7  8  1  0
  8  9  2  0
  4  9  1  0
  9 10  1  0
  1 10  1  0
 11 12  2  0
 12 13  1  0
 13 14  2  0
  7 14  1  0
  8 11  1  0
  3 15  2  0
 16 17  1  0
  2 16  1  0
 18 19  2  0
 19 20  1  0
 20 21  2  0
 21 22  1  0
 22 23  2  0
 18 23  1  0
 24 25  1  0
 21 24  1  0
 26 27  1  0
 20 26  1  0
  1 18  1  0
M  END
>  <Classification>  (782) 
0

>  <pchembl>  (782) 
4.66

>  <InChI_steorem>  (782) 
InChI=1S/C22H18O5/c1-24-17-11-9-14(12-18(17)25-2)20-22(26-3)19(23)16-10-8-13-6-4-5-7-15(13)21(16)27-20/h4-12H,1-3H3

>  <source>  (782) 
ChEMBL25

>  <source_id>  (782) 
25

>  <optional_reference>  (782) 
10.1016/j.ejmech.2013.06.035

>  <optional_origin>  (782) 
None

>  <target>  (782) 
MDR1

$$$$

     RDKit          2D

 20 22  0  0  0  0  0  0  0  0999 V2000
    8.9898  -13.8287    0.0000 N   0  0  0  0  0  0  0  0  0  0  0  0
   10.4747  -12.3468    0.0000 C   0  0  0  0  0  0  0  0  0  0  0  0
    8.2762  -13.4224    0.0000 C   0  0  0  0  0  0  0  0  0  0  0  0
   10.4013  -11.3680    0.0000 C   0  0  0  0  0  0  0  0  0  0  0  0
    7.5627  -13.8361    0.0000 C   0  0  0  0  0  0  0  0  0  0  0  0
   11.8306   -9.7142    0.0000 O   0  0  0  0  0  0  0  0  0  0  0  0
   10.4751  -13.6677    0.0000 C   0  0  0  0  0  0  0  0  0  0  0  0
    9.6932  -10.9619    0.0000 C   0  0  0  0  0  0  0  0  0  0  0  0
    9.6939  -13.4225    0.0000 C   0  0  0  0  0  0  0  0  0  0  0  0
    9.6937  -12.6005    0.0000 C   0  0  0  0  0  0  0  0  0  0  0  0
    8.2823  -10.9639    0.0000 C   0  0  0  0  0  0  0  0  0  0  0  0
    9.6953  -10.1376    0.0000 C   0  0  0  0  0  0  0  0  0  0  0  0
   10.4039   -9.7238    0.0000 C   0  0  0  0  0  0  0  0  0  0  0  0
   11.8260   -8.8911    0.0000 C   0  0  0  0  0  0  0  0  0  0  0  0
   10.9487  -13.0133    0.0000 C   0  0  0  0  0  0  0  0  0  0  0  0
    8.9880  -12.1898    0.0000 C   0  0  0  0  0  0  0  0  0  0  0  0
   11.1150  -10.1398    0.0000 C   0  0  0  0  0  0  0  0  0  0  0  0
   11.1128  -10.9607    0.0000 C   0  0  0  0  0  0  0  0  0  0  0  0
    8.9897  -11.3699    0.0000 N   0  0  0  0  0  0  0  0  0  0  0  0
    8.2773  -12.6041    0.0000 N   0  0  0  0  0  0  0  0  0  0  0  0
 10  9  2  0
 17  6  1  0
 18 17  2  0
 17 13  1  0
  6 14  1  0
 10 16  1  0
  3  5  1  0
  9  7  1  0
 16 19  1  0
  3  1  2  0
 20  3  1  0
  7 15  1  0
 19  8  1  0
  8  4  2  0
  4 18  1  0
 15  2  1  0
 13 12  2  0
  2 10  1  0
  1  9  1  0
 16 20  2  0
 19 11  1  0
 12  8  1  0
M  END
>  <Classification>  (783) 
1

>  <pchembl>  (783) 
7.79

>  <InChI_steorem>  (783) 
InChI=1S/C16H19N3O/c1-11-17-15-6-4-5-14(15)16(18-11)19(2)12-7-9-13(20-3)10-8-12/h7-10H,4-6H2,1-3H3

>  <source>  (783) 
ChEMBL25

>  <source_id>  (783) 
25

>  <optional_reference>  (783) 
10.1021/jm400639z

>  <optional_origin>  (783) 
None

>  <target>  (783) 
MDR1

$$$$

     RDKit          2D

 29 32  0  0  0  0  0  0  0  0999 V2000
   -2.5835   -5.2544    0.0000 C   0  0  0  0  0  0  0  0  0  0  0  0
   -2.5870   -3.7544    0.0000 C   0  0  0  0  0  0  0  0  0  0  0  0
   -3.8880   -3.0076    0.0000 C   0  0  0  0  0  0  0  0  0  0  0  0
   -5.1852   -3.7608    0.0000 C   0  0  0  0  0  0  0  0  0  0  0  0
   -5.1815   -5.2608    0.0000 C   0  0  0  0  0  0  0  0  0  0  0  0
   -3.8807   -6.0076    0.0000 C   0  0  0  0  0  0  0  0  0  0  0  0
   -1.2907   -2.9981    0.0000 N   0  0  0  0  0  0  0  0  0  0  0  0
   -1.2964   -1.4973    0.0000 C   0  0  0  0  0  0  0  0  0  0  0  0
   -1.2964    1.4973    0.0000 N   0  0  0  0  0  0  0  0  0  0  0  0
   -2.6111    0.7486    0.0000 C   0  0  0  0  0  0  0  0  0  0  0  0
   -2.6111   -0.7486    0.0000 N   0  0  0  0  0  0  0  0  0  0  0  0
    0.0000    0.7486    0.0000 C   0  0  0  0  0  0  0  0  0  0  0  0
    0.0000   -0.7486    0.0000 C   0  0  0  0  0  0  0  0  0  0  0  0
    1.2964   -1.4973    0.0000 C   0  0  0  0  0  0  0  0  0  0  0  0
    2.5929   -0.7486    0.0000 C   0  0  0  0  0  0  0  0  0  0  0  0
    2.5929    0.7486    0.0000 C   0  0  0  0  0  0  0  0  0  0  0  0
    1.2964    1.4973    0.0000 C   0  0  0  0  0  0  0  0  0  0  0  0
   -6.4779   -6.0170    0.0000 C   0  0  0  0  0  0  0  0  0  0  0  0
   -6.4721   -7.5179    0.0000 C   0  0  0  0  0  0  0  0  0  0  0  0
   -7.5196   -5.4214    0.0000 O   0  0  0  0  0  0  0  0  0  0  0  0
   -7.7685   -8.2741    0.0000 C   0  0  0  0  0  0  0  0  0  0  0  0
   -7.7626   -9.7749    0.0000 C   0  0  0  0  0  0  0  0  0  0  0  0
   -9.0572  -10.5327    0.0000 C   0  0  0  0  0  0  0  0  0  0  0  0
   -9.0484  -12.0326    0.0000 C   0  0  0  0  0  0  0  0  0  0  0  0
   -7.7449  -12.7750    0.0000 C   0  0  0  0  0  0  0  0  0  0  0  0
   -6.4503  -12.0173    0.0000 C   0  0  0  0  0  0  0  0  0  0  0  0
   -6.4592  -10.5173    0.0000 C   0  0  0  0  0  0  0  0  0  0  0  0
  -10.3421  -12.7934    0.0000 O   0  0  0  0  0  0  0  0  0  0  0  0
  -10.3333  -13.9934    0.0000 C   0  0  0  0  0  0  0  0  0  0  0  0
  1  2  2  0
  2  3  1  0
  3  4  2  0
  4  5  1  0
  5  6  2  0
  6  1  1  0
  2  7  1  0
  7  8  1  0
  8 13  2  0
 12  9  2  0
  9 10  1  0
 10 11  2  0
 11  8  1  0
 12 13  1  0
 13 14  1  0
 14 15  2  0
 15 16  1  0
 16 17  2  0
 17 12  1  0
  5 18  1  0
 18 19  1  0
 18 20  2  0
 19 21  2  3
 21 22  1  0
 22 23  2  0
 23 24  1  0
 24 25  2  0
 25 26  1  0
 26 27  2  0
 27 22  1  0
 24 28  1  0
 28 29  1  0
M  END
>  <Classification>  (784) 
1

>  <pchembl>  (784) 
5.25

>  <InChI_steorem>  (784) 
InChI=1S/C24H19N3O2/c1-29-20-6-4-5-17(15-20)9-14-23(28)18-10-12-19(13-11-18)27-24-21-7-2-3-8-22(21)25-16-26-24/h2-16H,1H3,(H,25,26,27)

>  <source>  (784) 
ChEMBL25

>  <source_id>  (784) 
25

>  <optional_reference>  (784) 
10.1016/j.ejmech.2016.03.067

>  <optional_origin>  (784) 
None

>  <target>  (784) 
MDR1

$$$$

     RDKit          2D

 29 32  0  0  0  0  0  0  0  0999 V2000
   -2.5835   -5.2544    0.0000 C   0  0  0  0  0  0  0  0  0  0  0  0
   -2.5870   -3.7544    0.0000 C   0  0  0  0  0  0  0  0  0  0  0  0
   -3.8880   -3.0076    0.0000 C   0  0  0  0  0  0  0  0  0  0  0  0
   -5.1852   -3.7608    0.0000 C   0  0  0  0  0  0  0  0  0  0  0  0
   -5.1815   -5.2608    0.0000 C   0  0  0  0  0  0  0  0  0  0  0  0
   -3.8807   -6.0076    0.0000 C   0  0  0  0  0  0  0  0  0  0  0  0
   -6.4883   -3.0162    0.0000 C   0  0  0  0  0  0  0  0  0  0  0  0
   -6.4933   -1.8162    0.0000 O   0  0  0  0  0  0  0  0  0  0  0  0
   -7.7852   -3.7717    0.0000 C   0  0  0  0  0  0  0  0  0  0  0  0
   -9.0883   -3.0271    0.0000 C   0  0  0  0  0  0  0  0  0  0  0  0
  -10.3851   -3.7825    0.0000 C   0  0  0  0  0  0  0  0  0  0  0  0
  -11.6886   -3.0403    0.0000 C   0  0  0  0  0  0  0  0  0  0  0  0
  -12.9832   -3.7979    0.0000 C   0  0  0  0  0  0  0  0  0  0  0  0
  -12.9744   -5.2979    0.0000 C   0  0  0  0  0  0  0  0  0  0  0  0
  -11.6709   -6.0402    0.0000 C   0  0  0  0  0  0  0  0  0  0  0  0
  -10.3763   -5.2826    0.0000 C   0  0  0  0  0  0  0  0  0  0  0  0
   -1.2907   -2.9981    0.0000 N   0  0  0  0  0  0  0  0  0  0  0  0
   -1.2964   -1.4973    0.0000 C   0  0  0  0  0  0  0  0  0  0  0  0
   -1.2964    1.4973    0.0000 N   0  0  0  0  0  0  0  0  0  0  0  0
   -2.6111    0.7486    0.0000 C   0  0  0  0  0  0  0  0  0  0  0  0
   -2.6111   -0.7486    0.0000 N   0  0  0  0  0  0  0  0  0  0  0  0
    0.0000    0.7486    0.0000 C   0  0  0  0  0  0  0  0  0  0  0  0
    0.0000   -0.7486    0.0000 C   0  0  0  0  0  0  0  0  0  0  0  0
    1.2964   -1.4973    0.0000 C   0  0  0  0  0  0  0  0  0  0  0  0
    2.5929   -0.7486    0.0000 C   0  0  0  0  0  0  0  0  0  0  0  0
    2.5929    0.7486    0.0000 C   0  0  0  0  0  0  0  0  0  0  0  0
    1.2964    1.4973    0.0000 C   0  0  0  0  0  0  0  0  0  0  0  0
  -14.2681   -6.0587    0.0000 O   0  0  0  0  0  0  0  0  0  0  0  0
  -14.2593   -7.2586    0.0000 C   0  0  0  0  0  0  0  0  0  0  0  0
  1  2  2  0
  2  3  1  0
  3  4  2  0
  4  5  1  0
  5  6  2  0
  6  1  1  0
  4  7  1  0
  7  8  2  0
  7  9  1  0
  9 10  2  3
 10 11  1  0
 11 12  2  0
 12 13  1  0
 13 14  2  0
 14 15  1  0
 15 16  2  0
 16 11  1  0
  2 17  1  0
 17 18  1  0
 18 23  2  0
 22 19  2  0
 19 20  1  0
 20 21  2  0
 21 18  1  0
 22 23  1  0
 23 24  1  0
 24 25  2  0
 25 26  1  0
 26 27  2  0
 27 22  1  0
 14 28  1  0
 28 29  1  0
M  END
>  <Classification>  (785) 
1

>  <pchembl>  (785) 
5.15

>  <InChI_steorem>  (785) 
InChI=1S/C24H19N3O2/c1-29-20-12-9-17(10-13-20)11-14-23(28)18-5-4-6-19(15-18)27-24-21-7-2-3-8-22(21)25-16-26-24/h2-16H,1H3,(H,25,26,27)

>  <source>  (785) 
ChEMBL25

>  <source_id>  (785) 
25

>  <optional_reference>  (785) 
10.1016/j.ejmech.2016.03.067

>  <optional_origin>  (785) 
None

>  <target>  (785) 
MDR1

$$$$

     RDKit          2D

 31 34  0  0  0  0  0  0  0  0999 V2000
   -2.5835   -5.2544    0.0000 C   0  0  0  0  0  0  0  0  0  0  0  0
   -2.5870   -3.7544    0.0000 C   0  0  0  0  0  0  0  0  0  0  0  0
   -3.8880   -3.0076    0.0000 C   0  0  0  0  0  0  0  0  0  0  0  0
   -5.1852   -3.7608    0.0000 C   0  0  0  0  0  0  0  0  0  0  0  0
   -5.1815   -5.2608    0.0000 C   0  0  0  0  0  0  0  0  0  0  0  0
   -3.8807   -6.0076    0.0000 C   0  0  0  0  0  0  0  0  0  0  0  0
   -1.2907   -2.9981    0.0000 N   0  0  0  0  0  0  0  0  0  0  0  0
   -1.2964   -1.4973    0.0000 C   0  0  0  0  0  0  0  0  0  0  0  0
   -1.2964    1.4973    0.0000 N   0  0  0  0  0  0  0  0  0  0  0  0
   -2.6111    0.7486    0.0000 C   0  0  0  0  0  0  0  0  0  0  0  0
   -2.6111   -0.7486    0.0000 N   0  0  0  0  0  0  0  0  0  0  0  0
    0.0000    0.7486    0.0000 C   0  0  0  0  0  0  0  0  0  0  0  0
    0.0000   -0.7486    0.0000 C   0  0  0  0  0  0  0  0  0  0  0  0
    1.2964   -1.4973    0.0000 C   0  0  0  0  0  0  0  0  0  0  0  0
    2.5929   -0.7486    0.0000 C   0  0  0  0  0  0  0  0  0  0  0  0
    2.5929    0.7486    0.0000 C   0  0  0  0  0  0  0  0  0  0  0  0
    1.2964    1.4973    0.0000 C   0  0  0  0  0  0  0  0  0  0  0  0
   -6.4779   -6.0170    0.0000 C   0  0  0  0  0  0  0  0  0  0  0  0
   -6.4721   -7.5179    0.0000 C   0  0  0  0  0  0  0  0  0  0  0  0
   -7.5196   -5.4214    0.0000 O   0  0  0  0  0  0  0  0  0  0  0  0
   -7.7685   -8.2741    0.0000 C   0  0  0  0  0  0  0  0  0  0  0  0
   -7.7626   -9.7749    0.0000 C   0  0  0  0  0  0  0  0  0  0  0  0
   -9.0572  -10.5327    0.0000 C   0  0  0  0  0  0  0  0  0  0  0  0
   -9.0484  -12.0326    0.0000 C   0  0  0  0  0  0  0  0  0  0  0  0
   -7.7449  -12.7750    0.0000 C   0  0  0  0  0  0  0  0  0  0  0  0
   -6.4503  -12.0173    0.0000 C   0  0  0  0  0  0  0  0  0  0  0  0
   -6.4592  -10.5173    0.0000 C   0  0  0  0  0  0  0  0  0  0  0  0
   -7.7330  -14.2758    0.0000 O   0  0  0  0  0  0  0  0  0  0  0  0
   -6.6894  -14.8681    0.0000 C   0  0  0  0  0  0  0  0  0  0  0  0
  -10.3452  -12.7881    0.0000 O   0  0  0  0  0  0  0  0  0  0  0  0
  -11.3871  -12.1927    0.0000 C   0  0  0  0  0  0  0  0  0  0  0  0
  1  2  2  0
  2  3  1  0
  3  4  2  0
  4  5  1  0
  5  6  2  0
  6  1  1  0
  2  7  1  0
  7  8  1  0
  8 13  2  0
 12  9  2  0
  9 10  1  0
 10 11  2  0
 11  8  1  0
 12 13  1  0
 13 14  1  0
 14 15  2  0
 15 16  1  0
 16 17  2  0
 17 12  1  0
  5 18  1  0
 18 19  1  0
 18 20  2  0
 19 21  2  3
 21 22  1  0
 22 23  2  0
 23 24  1  0
 24 25  2  0
 25 26  1  0
 26 27  2  0
 27 22  1  0
 25 28  1  0
 28 29  1  0
 24 30  1  0
 30 31  1  0
M  END
>  <Classification>  (786) 
1

>  <pchembl>  (786) 
5.63

>  <InChI_steorem>  (786) 
InChI=1S/C25H21N3O3/c1-30-23-14-8-17(15-24(23)31-2)7-13-22(29)18-9-11-19(12-10-18)28-25-20-5-3-4-6-21(20)26-16-27-25/h3-16H,1-2H3,(H,26,27,28)

>  <source>  (786) 
ChEMBL25

>  <source_id>  (786) 
25

>  <optional_reference>  (786) 
10.1016/j.ejmech.2016.03.067

>  <optional_origin>  (786) 
None

>  <target>  (786) 
MDR1

$$$$

     RDKit          2D

 31 34  0  0  0  0  0  0  0  0999 V2000
   -2.5835   -5.2544    0.0000 C   0  0  0  0  0  0  0  0  0  0  0  0
   -2.5870   -3.7544    0.0000 C   0  0  0  0  0  0  0  0  0  0  0  0
   -3.8880   -3.0076    0.0000 C   0  0  0  0  0  0  0  0  0  0  0  0
   -5.1852   -3.7608    0.0000 C   0  0  0  0  0  0  0  0  0  0  0  0
   -5.1815   -5.2608    0.0000 C   0  0  0  0  0  0  0  0  0  0  0  0
   -3.8807   -6.0076    0.0000 C   0  0  0  0  0  0  0  0  0  0  0  0
   -6.4883   -3.0162    0.0000 C   0  0  0  0  0  0  0  0  0  0  0  0
   -6.4933   -1.8162    0.0000 O   0  0  0  0  0  0  0  0  0  0  0  0
   -7.7852   -3.7717    0.0000 C   0  0  0  0  0  0  0  0  0  0  0  0
   -9.0883   -3.0271    0.0000 C   0  0  0  0  0  0  0  0  0  0  0  0
  -10.3851   -3.7825    0.0000 C   0  0  0  0  0  0  0  0  0  0  0  0
  -11.6886   -3.0403    0.0000 C   0  0  0  0  0  0  0  0  0  0  0  0
  -12.9832   -3.7979    0.0000 C   0  0  0  0  0  0  0  0  0  0  0  0
  -12.9744   -5.2979    0.0000 C   0  0  0  0  0  0  0  0  0  0  0  0
  -11.6709   -6.0402    0.0000 C   0  0  0  0  0  0  0  0  0  0  0  0
  -10.3763   -5.2826    0.0000 C   0  0  0  0  0  0  0  0  0  0  0  0
   -1.2907   -2.9981    0.0000 N   0  0  0  0  0  0  0  0  0  0  0  0
   -1.2964   -1.4973    0.0000 C   0  0  0  0  0  0  0  0  0  0  0  0
   -1.2964    1.4973    0.0000 N   0  0  0  0  0  0  0  0  0  0  0  0
   -2.6111    0.7486    0.0000 C   0  0  0  0  0  0  0  0  0  0  0  0
   -2.6111   -0.7486    0.0000 N   0  0  0  0  0  0  0  0  0  0  0  0
    0.0000    0.7486    0.0000 C   0  0  0  0  0  0  0  0  0  0  0  0
    0.0000   -0.7486    0.0000 C   0  0  0  0  0  0  0  0  0  0  0  0
    1.2964   -1.4973    0.0000 C   0  0  0  0  0  0  0  0  0  0  0  0
    2.5929   -0.7486    0.0000 C   0  0  0  0  0  0  0  0  0  0  0  0
    2.5929    0.7486    0.0000 C   0  0  0  0  0  0  0  0  0  0  0  0
    1.2964    1.4973    0.0000 C   0  0  0  0  0  0  0  0  0  0  0  0
  -14.2681   -6.0587    0.0000 O   0  0  0  0  0  0  0  0  0  0  0  0
  -14.2859   -3.0525    0.0000 O   0  0  0  0  0  0  0  0  0  0  0  0
  -14.2912   -1.8525    0.0000 C   0  0  0  0  0  0  0  0  0  0  0  0
  -14.2593   -7.2586    0.0000 C   0  0  0  0  0  0  0  0  0  0  0  0
  1  2  2  0
  2  3  1  0
  3  4  2  0
  4  5  1  0
  5  6  2  0
  6  1  1  0
  4  7  1  0
  7  8  2  0
  7  9  1  0
  9 10  2  3
 10 11  1  0
 11 12  2  0
 12 13  1  0
 13 14  2  0
 14 15  1  0
 15 16  2  0
 16 11  1  0
  2 17  1  0
 17 18  1  0
 18 23  2  0
 22 19  2  0
 19 20  1  0
 20 21  2  0
 21 18  1  0
 22 23  1  0
 23 24  1  0
 24 25  2  0
 25 26  1  0
 26 27  2  0
 27 22  1  0
 14 28  1  0
 13 29  1  0
 29 30  1  0
 28 31  1  0
M  END
>  <Classification>  (787) 
1

>  <pchembl>  (787) 
6.38

>  <InChI_steorem>  (787) 
InChI=1S/C25H21N3O3/c1-30-23-13-11-17(14-24(23)31-2)10-12-22(29)18-6-5-7-19(15-18)28-25-20-8-3-4-9-21(20)26-16-27-25/h3-16H,1-2H3,(H,26,27,28)

>  <source>  (787) 
ChEMBL25

>  <source_id>  (787) 
25

>  <optional_reference>  (787) 
10.1016/j.ejmech.2016.03.067

>  <optional_origin>  (787) 
None

>  <target>  (787) 
MDR1

$$$$

     RDKit          2D

 33 36  0  0  0  0  0  0  0  0999 V2000
   -2.5835   -5.2544    0.0000 C   0  0  0  0  0  0  0  0  0  0  0  0
   -2.5870   -3.7544    0.0000 C   0  0  0  0  0  0  0  0  0  0  0  0
   -3.8880   -3.0076    0.0000 C   0  0  0  0  0  0  0  0  0  0  0  0
   -5.1852   -3.7608    0.0000 C   0  0  0  0  0  0  0  0  0  0  0  0
   -5.1815   -5.2608    0.0000 C   0  0  0  0  0  0  0  0  0  0  0  0
   -3.8807   -6.0076    0.0000 C   0  0  0  0  0  0  0  0  0  0  0  0
   -1.2907   -2.9981    0.0000 N   0  0  0  0  0  0  0  0  0  0  0  0
   -1.2964   -1.4973    0.0000 C   0  0  0  0  0  0  0  0  0  0  0  0
   -1.2964    1.4973    0.0000 N   0  0  0  0  0  0  0  0  0  0  0  0
   -2.6111    0.7486    0.0000 C   0  0  0  0  0  0  0  0  0  0  0  0
   -2.6111   -0.7486    0.0000 N   0  0  0  0  0  0  0  0  0  0  0  0
    0.0000    0.7486    0.0000 C   0  0  0  0  0  0  0  0  0  0  0  0
    0.0000   -0.7486    0.0000 C   0  0  0  0  0  0  0  0  0  0  0  0
    1.2964   -1.4973    0.0000 C   0  0  0  0  0  0  0  0  0  0  0  0
    2.5929   -0.7486    0.0000 C   0  0  0  0  0  0  0  0  0  0  0  0
    2.5929    0.7486    0.0000 C   0  0  0  0  0  0  0  0  0  0  0  0
    1.2964    1.4973    0.0000 C   0  0  0  0  0  0  0  0  0  0  0  0
   -6.4779   -6.0170    0.0000 C   0  0  0  0  0  0  0  0  0  0  0  0
   -6.4721   -7.5179    0.0000 C   0  0  0  0  0  0  0  0  0  0  0  0
   -7.5196   -5.4214    0.0000 O   0  0  0  0  0  0  0  0  0  0  0  0
   -7.7685   -8.2741    0.0000 C   0  0  0  0  0  0  0  0  0  0  0  0
   -7.7626   -9.7749    0.0000 C   0  0  0  0  0  0  0  0  0  0  0  0
   -9.0572  -10.5327    0.0000 C   0  0  0  0  0  0  0  0  0  0  0  0
   -9.0484  -12.0326    0.0000 C   0  0  0  0  0  0  0  0  0  0  0  0
   -7.7449  -12.7750    0.0000 C   0  0  0  0  0  0  0  0  0  0  0  0
   -6.4503  -12.0173    0.0000 C   0  0  0  0  0  0  0  0  0  0  0  0
   -6.4592  -10.5173    0.0000 C   0  0  0  0  0  0  0  0  0  0  0  0
  -10.3421  -12.7934    0.0000 O   0  0  0  0  0  0  0  0  0  0  0  0
  -10.3333  -13.9934    0.0000 C   0  0  0  0  0  0  0  0  0  0  0  0
    3.8911   -1.5017    0.0000 O   0  0  0  0  0  0  0  0  0  0  0  0
    3.8894   -2.7017    0.0000 C   0  0  0  0  0  0  0  0  0  0  0  0
    3.8911    1.5017    0.0000 O   0  0  0  0  0  0  0  0  0  0  0  0
    3.8894    2.7017    0.0000 C   0  0  0  0  0  0  0  0  0  0  0  0
  1  2  2  0
  2  3  1  0
  3  4  2  0
  4  5  1  0
  5  6  2  0
  6  1  1  0
  2  7  1  0
  7  8  1  0
  8 13  2  0
 12  9  2  0
  9 10  1  0
 10 11  2  0
 11  8  1  0
 12 13  1  0
 13 14  1  0
 14 15  2  0
 15 16  1  0
 16 17  2  0
 17 12  1  0
  5 18  1  0
 18 19  1  0
 18 20  2  0
 19 21  2  3
 21 22  1  0
 22 23  2  0
 23 24  1  0
 24 25  2  0
 25 26  1  0
 26 27  2  0
 27 22  1  0
 24 28  1  0
 28 29  1  0
 15 30  1  0
 30 31  1  0
 16 32  1  0
 32 33  1  0
M  END
>  <Classification>  (788) 
1

>  <pchembl>  (788) 
5.12

>  <InChI_steorem>  (788) 
InChI=1S/C26H23N3O4/c1-31-20-6-4-5-17(13-20)7-12-23(30)18-8-10-19(11-9-18)29-26-21-14-24(32-2)25(33-3)15-22(21)27-16-28-26/h4-16H,1-3H3,(H,27,28,29)

>  <source>  (788) 
ChEMBL25

>  <source_id>  (788) 
25

>  <optional_reference>  (788) 
10.1016/j.ejmech.2016.03.067

>  <optional_origin>  (788) 
None

>  <target>  (788) 
MDR1

$$$$

     RDKit          2D

 33 36  0  0  0  0  0  0  0  0999 V2000
   -2.5835   -5.2544    0.0000 C   0  0  0  0  0  0  0  0  0  0  0  0
   -2.5870   -3.7544    0.0000 C   0  0  0  0  0  0  0  0  0  0  0  0
   -3.8880   -3.0076    0.0000 C   0  0  0  0  0  0  0  0  0  0  0  0
   -5.1852   -3.7608    0.0000 C   0  0  0  0  0  0  0  0  0  0  0  0
   -5.1815   -5.2608    0.0000 C   0  0  0  0  0  0  0  0  0  0  0  0
   -3.8807   -6.0076    0.0000 C   0  0  0  0  0  0  0  0  0  0  0  0
   -6.4883   -3.0162    0.0000 C   0  0  0  0  0  0  0  0  0  0  0  0
   -6.4933   -1.8162    0.0000 O   0  0  0  0  0  0  0  0  0  0  0  0
   -7.7852   -3.7717    0.0000 C   0  0  0  0  0  0  0  0  0  0  0  0
   -9.0883   -3.0271    0.0000 C   0  0  0  0  0  0  0  0  0  0  0  0
  -10.3851   -3.7825    0.0000 C   0  0  0  0  0  0  0  0  0  0  0  0
  -11.6886   -3.0403    0.0000 C   0  0  0  0  0  0  0  0  0  0  0  0
  -12.9832   -3.7979    0.0000 C   0  0  0  0  0  0  0  0  0  0  0  0
  -12.9744   -5.2979    0.0000 C   0  0  0  0  0  0  0  0  0  0  0  0
  -11.6709   -6.0402    0.0000 C   0  0  0  0  0  0  0  0  0  0  0  0
  -10.3763   -5.2826    0.0000 C   0  0  0  0  0  0  0  0  0  0  0  0
   -1.2907   -2.9981    0.0000 N   0  0  0  0  0  0  0  0  0  0  0  0
   -1.2964   -1.4973    0.0000 C   0  0  0  0  0  0  0  0  0  0  0  0
   -1.2964    1.4973    0.0000 N   0  0  0  0  0  0  0  0  0  0  0  0
   -2.6111    0.7486    0.0000 C   0  0  0  0  0  0  0  0  0  0  0  0
   -2.6111   -0.7486    0.0000 N   0  0  0  0  0  0  0  0  0  0  0  0
    0.0000    0.7486    0.0000 C   0  0  0  0  0  0  0  0  0  0  0  0
    0.0000   -0.7486    0.0000 C   0  0  0  0  0  0  0  0  0  0  0  0
    1.2964   -1.4973    0.0000 C   0  0  0  0  0  0  0  0  0  0  0  0
    2.5929   -0.7486    0.0000 C   0  0  0  0  0  0  0  0  0  0  0  0
    2.5929    0.7486    0.0000 C   0  0  0  0  0  0  0  0  0  0  0  0
    1.2964    1.4973    0.0000 C   0  0  0  0  0  0  0  0  0  0  0  0
  -14.2681   -6.0587    0.0000 O   0  0  0  0  0  0  0  0  0  0  0  0
  -14.2593   -7.2586    0.0000 C   0  0  0  0  0  0  0  0  0  0  0  0
    3.8911   -1.5017    0.0000 O   0  0  0  0  0  0  0  0  0  0  0  0
    3.8894   -2.7017    0.0000 C   0  0  0  0  0  0  0  0  0  0  0  0
    3.8911    1.5017    0.0000 O   0  0  0  0  0  0  0  0  0  0  0  0
    3.8894    2.7017    0.0000 C   0  0  0  0  0  0  0  0  0  0  0  0
  1  2  2  0
  2  3  1  0
  3  4  2  0
  4  5  1  0
  5  6  2  0
  6  1  1  0
  4  7  1  0
  7  8  2  0
  7  9  1  0
  9 10  2  3
 10 11  1  0
 11 12  2  0
 12 13  1  0
 13 14  2  0
 14 15  1  0
 15 16  2  0
 16 11  1  0
  2 17  1  0
 17 18  1  0
 18 23  2  0
 22 19  2  0
 19 20  1  0
 20 21  2  0
 21 18  1  0
 22 23  1  0
 23 24  1  0
 24 25  2  0
 25 26  1  0
 26 27  2  0
 27 22  1  0
 14 28  1  0
 28 29  1  0
 25 30  1  0
 30 31  1  0
 26 32  1  0
 32 33  1  0
M  END
>  <Classification>  (789) 
1

>  <pchembl>  (789) 
5.38

>  <InChI_steorem>  (789) 
InChI=1S/C26H23N3O4/c1-31-20-10-7-17(8-11-20)9-12-23(30)18-5-4-6-19(13-18)29-26-21-14-24(32-2)25(33-3)15-22(21)27-16-28-26/h4-16H,1-3H3,(H,27,28,29)

>  <source>  (789) 
ChEMBL25

>  <source_id>  (789) 
25

>  <optional_reference>  (789) 
10.1016/j.ejmech.2016.03.067

>  <optional_origin>  (789) 
None

>  <target>  (789) 
MDR1

$$$$

     RDKit          2D

 35 38  0  0  0  0  0  0  0  0999 V2000
   -2.5835   -5.2544    0.0000 C   0  0  0  0  0  0  0  0  0  0  0  0
   -2.5870   -3.7544    0.0000 C   0  0  0  0  0  0  0  0  0  0  0  0
   -3.8880   -3.0076    0.0000 C   0  0  0  0  0  0  0  0  0  0  0  0
   -5.1852   -3.7608    0.0000 C   0  0  0  0  0  0  0  0  0  0  0  0
   -5.1815   -5.2608    0.0000 C   0  0  0  0  0  0  0  0  0  0  0  0
   -3.8807   -6.0076    0.0000 C   0  0  0  0  0  0  0  0  0  0  0  0
   -6.4883   -3.0162    0.0000 C   0  0  0  0  0  0  0  0  0  0  0  0
   -6.4933   -1.8162    0.0000 O   0  0  0  0  0  0  0  0  0  0  0  0
   -7.7852   -3.7717    0.0000 C   0  0  0  0  0  0  0  0  0  0  0  0
   -9.0883   -3.0271    0.0000 C   0  0  0  0  0  0  0  0  0  0  0  0
  -10.3851   -3.7825    0.0000 C   0  0  0  0  0  0  0  0  0  0  0  0
  -11.6886   -3.0403    0.0000 C   0  0  0  0  0  0  0  0  0  0  0  0
  -12.9832   -3.7979    0.0000 C   0  0  0  0  0  0  0  0  0  0  0  0
  -12.9744   -5.2979    0.0000 C   0  0  0  0  0  0  0  0  0  0  0  0
  -11.6709   -6.0402    0.0000 C   0  0  0  0  0  0  0  0  0  0  0  0
  -10.3763   -5.2826    0.0000 C   0  0  0  0  0  0  0  0  0  0  0  0
   -1.2907   -2.9981    0.0000 N   0  0  0  0  0  0  0  0  0  0  0  0
   -1.2964   -1.4973    0.0000 C   0  0  0  0  0  0  0  0  0  0  0  0
   -1.2964    1.4973    0.0000 N   0  0  0  0  0  0  0  0  0  0  0  0
   -2.6111    0.7486    0.0000 C   0  0  0  0  0  0  0  0  0  0  0  0
   -2.6111   -0.7486    0.0000 N   0  0  0  0  0  0  0  0  0  0  0  0
    0.0000    0.7486    0.0000 C   0  0  0  0  0  0  0  0  0  0  0  0
    0.0000   -0.7486    0.0000 C   0  0  0  0  0  0  0  0  0  0  0  0
    1.2964   -1.4973    0.0000 C   0  0  0  0  0  0  0  0  0  0  0  0
    2.5929   -0.7486    0.0000 C   0  0  0  0  0  0  0  0  0  0  0  0
    2.5929    0.7486    0.0000 C   0  0  0  0  0  0  0  0  0  0  0  0
    1.2964    1.4973    0.0000 C   0  0  0  0  0  0  0  0  0  0  0  0
  -14.2681   -6.0587    0.0000 O   0  0  0  0  0  0  0  0  0  0  0  0
  -14.2859   -3.0525    0.0000 O   0  0  0  0  0  0  0  0  0  0  0  0
  -14.2912   -1.8525    0.0000 C   0  0  0  0  0  0  0  0  0  0  0  0
  -14.2593   -7.2586    0.0000 C   0  0  0  0  0  0  0  0  0  0  0  0
    3.8911   -1.5017    0.0000 O   0  0  0  0  0  0  0  0  0  0  0  0
    3.8894   -2.7017    0.0000 C   0  0  0  0  0  0  0  0  0  0  0  0
    3.8911    1.5017    0.0000 O   0  0  0  0  0  0  0  0  0  0  0  0
    3.8894    2.7017    0.0000 C   0  0  0  0  0  0  0  0  0  0  0  0
  1  2  2  0
  2  3  1  0
  3  4  2  0
  4  5  1  0
  5  6  2  0
  6  1  1  0
  4  7  1  0
  7  8  2  0
  7  9  1  0
  9 10  2  3
 10 11  1  0
 11 12  2  0
 12 13  1  0
 13 14  2  0
 14 15  1  0
 15 16  2  0
 16 11  1  0
  2 17  1  0
 17 18  1  0
 18 23  2  0
 22 19  2  0
 19 20  1  0
 20 21  2  0
 21 18  1  0
 22 23  1  0
 23 24  1  0
 24 25  2  0
 25 26  1  0
 26 27  2  0
 27 22  1  0
 14 28  1  0
 13 29  1  0
 29 30  1  0
 28 31  1  0
 25 32  1  0
 32 33  1  0
 26 34  1  0
 34 35  1  0
M  END
>  <Classification>  (790) 
1

>  <pchembl>  (790) 
6.07

>  <InChI_steorem>  (790) 
InChI=1S/C27H25N3O5/c1-32-23-11-9-17(12-24(23)33-2)8-10-22(31)18-6-5-7-19(13-18)30-27-20-14-25(34-3)26(35-4)15-21(20)28-16-29-27/h5-16H,1-4H3,(H,28,29,30)

>  <source>  (790) 
ChEMBL25

>  <source_id>  (790) 
25

>  <optional_reference>  (790) 
10.1016/j.ejmech.2016.03.067

>  <optional_origin>  (790) 
None

>  <target>  (790) 
MDR1

$$$$

     RDKit          2D

 39 43  0  0  0  0  0  0  0  0999 V2000
   -2.5835   -5.2544    0.0000 C   0  0  0  0  0  0  0  0  0  0  0  0
   -2.5870   -3.7544    0.0000 C   0  0  0  0  0  0  0  0  0  0  0  0
   -3.8880   -3.0076    0.0000 C   0  0  0  0  0  0  0  0  0  0  0  0
   -5.1852   -3.7608    0.0000 C   0  0  0  0  0  0  0  0  0  0  0  0
   -5.1815   -5.2608    0.0000 C   0  0  0  0  0  0  0  0  0  0  0  0
   -3.8807   -6.0076    0.0000 C   0  0  0  0  0  0  0  0  0  0  0  0
   -6.4883   -3.0162    0.0000 C   0  0  0  0  0  0  0  0  0  0  0  0
   -6.4933   -1.8162    0.0000 O   0  0  0  0  0  0  0  0  0  0  0  0
   -7.7852   -3.7717    0.0000 C   0  0  0  0  0  0  0  0  0  0  0  0
   -9.0883   -3.0271    0.0000 C   0  0  0  0  0  0  0  0  0  0  0  0
  -10.3851   -3.7825    0.0000 C   0  0  0  0  0  0  0  0  0  0  0  0
  -11.6886   -3.0403    0.0000 C   0  0  0  0  0  0  0  0  0  0  0  0
  -12.9832   -3.7979    0.0000 C   0  0  0  0  0  0  0  0  0  0  0  0
  -12.9744   -5.2979    0.0000 C   0  0  0  0  0  0  0  0  0  0  0  0
  -11.6709   -6.0402    0.0000 C   0  0  0  0  0  0  0  0  0  0  0  0
  -10.3763   -5.2826    0.0000 C   0  0  0  0  0  0  0  0  0  0  0  0
   -1.2907   -2.9981    0.0000 N   0  0  0  0  0  0  0  0  0  0  0  0
   -1.2964   -1.4973    0.0000 C   0  0  0  0  0  0  0  0  0  0  0  0
   -1.2964    1.4973    0.0000 N   0  0  0  0  0  0  0  0  0  0  0  0
   -2.6111    0.7486    0.0000 C   0  0  0  0  0  0  0  0  0  0  0  0
   -2.6111   -0.7486    0.0000 N   0  0  0  0  0  0  0  0  0  0  0  0
    0.0000    0.7486    0.0000 C   0  0  0  0  0  0  0  0  0  0  0  0
    0.0000   -0.7486    0.0000 C   0  0  0  0  0  0  0  0  0  0  0  0
    1.2964   -1.4973    0.0000 C   0  0  0  0  0  0  0  0  0  0  0  0
    2.5929   -0.7486    0.0000 C   0  0  0  0  0  0  0  0  0  0  0  0
    2.5929    0.7486    0.0000 C   0  0  0  0  0  0  0  0  0  0  0  0
    1.2964    1.4973    0.0000 C   0  0  0  0  0  0  0  0  0  0  0  0
  -14.2681   -6.0587    0.0000 O   0  0  0  0  0  0  0  0  0  0  0  0
  -14.2593   -7.2586    0.0000 C   0  0  0  0  0  0  0  0  0  0  0  0
   -3.9086    1.5029    0.0000 C   0  0  0  0  0  0  0  0  0  0  0  0
   -5.2125    0.7617    0.0000 C   0  0  0  0  0  0  0  0  0  0  0  0
   -6.5065    1.5203    0.0000 C   0  0  0  0  0  0  0  0  0  0  0  0
   -6.4965    3.0203    0.0000 C   0  0  0  0  0  0  0  0  0  0  0  0
   -5.1925    3.7616    0.0000 C   0  0  0  0  0  0  0  0  0  0  0  0
   -3.8985    3.0029    0.0000 C   0  0  0  0  0  0  0  0  0  0  0  0
   -7.7897    3.7820    0.0000 O   0  0  0  0  0  0  0  0  0  0  0  0
   -7.7800    4.9820    0.0000 C   0  0  0  0  0  0  0  0  0  0  0  0
   -7.8098    0.7759    0.0000 O   0  0  0  0  0  0  0  0  0  0  0  0
   -7.8161   -0.4241    0.0000 C   0  0  0  0  0  0  0  0  0  0  0  0
  1  2  2  0
  2  3  1  0
  3  4  2  0
  4  5  1  0
  5  6  2  0
  6  1  1  0
  4  7  1  0
  7  8  2  0
  7  9  1  0
  9 10  2  3
 10 11  1  0
 11 12  2  0
 12 13  1  0
 13 14  2  0
 14 15  1  0
 15 16  2  0
 16 11  1  0
  2 17  1  0
 17 18  1  0
 18 23  2  0
 22 19  2  0
 19 20  1  0
 20 21  2  0
 21 18  1  0
 22 23  1  0
 23 24  1  0
 24 25  2  0
 25 26  1  0
 26 27  2  0
 27 22  1  0
 14 28  1  0
 28 29  1  0
 20 30  1  0
 30 31  2  0
 31 32  1  0
 32 33  2  0
 33 34  1  0
 34 35  2  0
 35 30  1  0
 33 36  1  0
 36 37  1  0
 32 38  1  0
 38 39  1  0
M  END
>  <Classification>  (791) 
1

>  <pchembl>  (791) 
5.89

>  <InChI_steorem>  (791) 
InChI=1S/C32H27N3O4/c1-37-25-15-11-21(12-16-25)13-17-28(36)22-7-6-8-24(19-22)33-32-26-9-4-5-10-27(26)34-31(35-32)23-14-18-29(38-2)30(20-23)39-3/h4-20H,1-3H3,(H,33,34,35)

>  <source>  (791) 
ChEMBL25

>  <source_id>  (791) 
25

>  <optional_reference>  (791) 
10.1016/j.ejmech.2016.03.067

>  <optional_origin>  (791) 
None

>  <target>  (791) 
MDR1

$$$$

     RDKit          2D

 39 43  0  0  0  0  0  0  0  0999 V2000
   -2.5835   -5.2544    0.0000 C   0  0  0  0  0  0  0  0  0  0  0  0
   -2.5870   -3.7544    0.0000 C   0  0  0  0  0  0  0  0  0  0  0  0
   -3.8880   -3.0076    0.0000 C   0  0  0  0  0  0  0  0  0  0  0  0
   -5.1852   -3.7608    0.0000 C   0  0  0  0  0  0  0  0  0  0  0  0
   -5.1815   -5.2608    0.0000 C   0  0  0  0  0  0  0  0  0  0  0  0
   -3.8807   -6.0076    0.0000 C   0  0  0  0  0  0  0  0  0  0  0  0
   -6.4883   -3.0162    0.0000 C   0  0  0  0  0  0  0  0  0  0  0  0
   -6.4933   -1.8162    0.0000 O   0  0  0  0  0  0  0  0  0  0  0  0
   -7.7852   -3.7717    0.0000 C   0  0  0  0  0  0  0  0  0  0  0  0
   -9.0883   -3.0271    0.0000 C   0  0  0  0  0  0  0  0  0  0  0  0
  -10.3851   -3.7825    0.0000 C   0  0  0  0  0  0  0  0  0  0  0  0
  -11.6886   -3.0403    0.0000 C   0  0  0  0  0  0  0  0  0  0  0  0
  -12.9832   -3.7979    0.0000 C   0  0  0  0  0  0  0  0  0  0  0  0
  -12.9744   -5.2979    0.0000 C   0  0  0  0  0  0  0  0  0  0  0  0
  -11.6709   -6.0402    0.0000 C   0  0  0  0  0  0  0  0  0  0  0  0
  -10.3763   -5.2826    0.0000 C   0  0  0  0  0  0  0  0  0  0  0  0
   -1.2907   -2.9981    0.0000 N   0  0  0  0  0  0  0  0  0  0  0  0
   -1.2964   -1.4973    0.0000 C   0  0  0  0  0  0  0  0  0  0  0  0
   -1.2964    1.4973    0.0000 N   0  0  0  0  0  0  0  0  0  0  0  0
   -2.6111    0.7486    0.0000 C   0  0  0  0  0  0  0  0  0  0  0  0
   -2.6111   -0.7486    0.0000 N   0  0  0  0  0  0  0  0  0  0  0  0
    0.0000    0.7486    0.0000 C   0  0  0  0  0  0  0  0  0  0  0  0
    0.0000   -0.7486    0.0000 C   0  0  0  0  0  0  0  0  0  0  0  0
    1.2964   -1.4973    0.0000 C   0  0  0  0  0  0  0  0  0  0  0  0
    2.5929   -0.7486    0.0000 C   0  0  0  0  0  0  0  0  0  0  0  0
    2.5929    0.7486    0.0000 C   0  0  0  0  0  0  0  0  0  0  0  0
    1.2964    1.4973    0.0000 C   0  0  0  0  0  0  0  0  0  0  0  0
  -14.2889   -3.0579    0.0000 O   0  0  0  0  0  0  0  0  0  0  0  0
  -15.3237   -3.6655    0.0000 C   0  0  0  0  0  0  0  0  0  0  0  0
   -3.9086    1.5029    0.0000 C   0  0  0  0  0  0  0  0  0  0  0  0
   -5.2125    0.7617    0.0000 C   0  0  0  0  0  0  0  0  0  0  0  0
   -6.5065    1.5203    0.0000 C   0  0  0  0  0  0  0  0  0  0  0  0
   -6.4965    3.0203    0.0000 C   0  0  0  0  0  0  0  0  0  0  0  0
   -5.1925    3.7616    0.0000 C   0  0  0  0  0  0  0  0  0  0  0  0
   -3.8985    3.0029    0.0000 C   0  0  0  0  0  0  0  0  0  0  0  0
   -7.7897    3.7820    0.0000 O   0  0  0  0  0  0  0  0  0  0  0  0
   -7.7800    4.9820    0.0000 C   0  0  0  0  0  0  0  0  0  0  0  0
   -7.8098    0.7759    0.0000 O   0  0  0  0  0  0  0  0  0  0  0  0
   -7.8161   -0.4241    0.0000 C   0  0  0  0  0  0  0  0  0  0  0  0
  1  2  2  0
  2  3  1  0
  3  4  2  0
  4  5  1  0
  5  6  2  0
  6  1  1  0
  4  7  1  0
  7  8  2  0
  7  9  1  0
  9 10  2  3
 10 11  1  0
 11 12  2  0
 12 13  1  0
 13 14  2  0
 14 15  1  0
 15 16  2  0
 16 11  1  0
  2 17  1  0
 17 18  1  0
 18 23  2  0
 22 19  2  0
 19 20  1  0
 20 21  2  0
 21 18  1  0
 22 23  1  0
 23 24  1  0
 24 25  2  0
 25 26  1  0
 26 27  2  0
 27 22  1  0
 13 28  1  0
 28 29  1  0
 20 30  1  0
 30 31  2  0
 31 32  1  0
 32 33  2  0
 33 34  1  0
 34 35  2  0
 35 30  1  0
 33 36  1  0
 36 37  1  0
 32 38  1  0
 38 39  1  0
M  END
>  <Classification>  (792) 
1

>  <pchembl>  (792) 
5.08

>  <InChI_steorem>  (792) 
InChI=1S/C32H27N3O4/c1-37-25-11-6-8-21(18-25)14-16-28(36)22-9-7-10-24(19-22)33-32-26-12-4-5-13-27(26)34-31(35-32)23-15-17-29(38-2)30(20-23)39-3/h4-20H,1-3H3,(H,33,34,35)

>  <source>  (792) 
ChEMBL25

>  <source_id>  (792) 
25

>  <optional_reference>  (792) 
10.1016/j.ejmech.2016.03.067

>  <optional_origin>  (792) 
None

>  <target>  (792) 
MDR1

$$$$

     RDKit          2D

 41 45  0  0  0  0  0  0  0  0999 V2000
   -2.5835   -5.2544    0.0000 C   0  0  0  0  0  0  0  0  0  0  0  0
   -2.5870   -3.7544    0.0000 C   0  0  0  0  0  0  0  0  0  0  0  0
   -3.8880   -3.0076    0.0000 C   0  0  0  0  0  0  0  0  0  0  0  0
   -5.1852   -3.7608    0.0000 C   0  0  0  0  0  0  0  0  0  0  0  0
   -5.1815   -5.2608    0.0000 C   0  0  0  0  0  0  0  0  0  0  0  0
   -3.8807   -6.0076    0.0000 C   0  0  0  0  0  0  0  0  0  0  0  0
   -6.4883   -3.0162    0.0000 C   0  0  0  0  0  0  0  0  0  0  0  0
   -6.4933   -1.8162    0.0000 O   0  0  0  0  0  0  0  0  0  0  0  0
   -7.7852   -3.7717    0.0000 C   0  0  0  0  0  0  0  0  0  0  0  0
   -9.0883   -3.0271    0.0000 C   0  0  0  0  0  0  0  0  0  0  0  0
  -10.3851   -3.7825    0.0000 C   0  0  0  0  0  0  0  0  0  0  0  0
  -11.6886   -3.0403    0.0000 C   0  0  0  0  0  0  0  0  0  0  0  0
  -12.9832   -3.7979    0.0000 C   0  0  0  0  0  0  0  0  0  0  0  0
  -12.9744   -5.2979    0.0000 C   0  0  0  0  0  0  0  0  0  0  0  0
  -11.6709   -6.0402    0.0000 C   0  0  0  0  0  0  0  0  0  0  0  0
  -10.3763   -5.2826    0.0000 C   0  0  0  0  0  0  0  0  0  0  0  0
   -1.2907   -2.9981    0.0000 N   0  0  0  0  0  0  0  0  0  0  0  0
   -1.2964   -1.4973    0.0000 C   0  0  0  0  0  0  0  0  0  0  0  0
   -1.2964    1.4973    0.0000 N   0  0  0  0  0  0  0  0  0  0  0  0
   -2.6111    0.7486    0.0000 C   0  0  0  0  0  0  0  0  0  0  0  0
   -2.6111   -0.7486    0.0000 N   0  0  0  0  0  0  0  0  0  0  0  0
    0.0000    0.7486    0.0000 C   0  0  0  0  0  0  0  0  0  0  0  0
    0.0000   -0.7486    0.0000 C   0  0  0  0  0  0  0  0  0  0  0  0
    1.2964   -1.4973    0.0000 C   0  0  0  0  0  0  0  0  0  0  0  0
    2.5929   -0.7486    0.0000 C   0  0  0  0  0  0  0  0  0  0  0  0
    2.5929    0.7486    0.0000 C   0  0  0  0  0  0  0  0  0  0  0  0
    1.2964    1.4973    0.0000 C   0  0  0  0  0  0  0  0  0  0  0  0
  -14.2681   -6.0587    0.0000 O   0  0  0  0  0  0  0  0  0  0  0  0
  -14.2859   -3.0525    0.0000 O   0  0  0  0  0  0  0  0  0  0  0  0
  -14.2912   -1.8525    0.0000 C   0  0  0  0  0  0  0  0  0  0  0  0
  -14.2593   -7.2586    0.0000 C   0  0  0  0  0  0  0  0  0  0  0  0
   -3.9086    1.5029    0.0000 C   0  0  0  0  0  0  0  0  0  0  0  0
   -5.2125    0.7617    0.0000 C   0  0  0  0  0  0  0  0  0  0  0  0
   -6.5065    1.5203    0.0000 C   0  0  0  0  0  0  0  0  0  0  0  0
   -6.4965    3.0203    0.0000 C   0  0  0  0  0  0  0  0  0  0  0  0
   -5.1925    3.7616    0.0000 C   0  0  0  0  0  0  0  0  0  0  0  0
   -3.8985    3.0029    0.0000 C   0  0  0  0  0  0  0  0  0  0  0  0
   -7.7897    3.7820    0.0000 O   0  0  0  0  0  0  0  0  0  0  0  0
   -7.7800    4.9820    0.0000 C   0  0  0  0  0  0  0  0  0  0  0  0
   -7.8098    0.7759    0.0000 O   0  0  0  0  0  0  0  0  0  0  0  0
   -7.8161   -0.4241    0.0000 C   0  0  0  0  0  0  0  0  0  0  0  0
  1  2  2  0
  2  3  1  0
  3  4  2  0
  4  5  1  0
  5  6  2  0
  6  1  1  0
  4  7  1  0
  7  8  2  0
  7  9  1  0
  9 10  2  3
 10 11  1  0
 11 12  2  0
 12 13  1  0
 13 14  2  0
 14 15  1  0
 15 16  2  0
 16 11  1  0
  2 17  1  0
 17 18  1  0
 18 23  2  0
 22 19  2  0
 19 20  1  0
 20 21  2  0
 21 18  1  0
 22 23  1  0
 23 24  1  0
 24 25  2  0
 25 26  1  0
 26 27  2  0
 27 22  1  0
 14 28  1  0
 13 29  1  0
 29 30  1  0
 28 31  1  0
 20 32  1  0
 32 33  2  0
 33 34  1  0
 34 35  2  0
 35 36  1  0
 36 37  2  0
 37 32  1  0
 35 38  1  0
 38 39  1  0
 34 40  1  0
 40 41  1  0
M  END
>  <Classification>  (793) 
1

>  <pchembl>  (793) 
6.32

>  <InChI_steorem>  (793) 
InChI=1S/C33H29N3O5/c1-38-28-16-13-21(18-30(28)40-3)12-15-27(37)22-8-7-9-24(19-22)34-33-25-10-5-6-11-26(25)35-32(36-33)23-14-17-29(39-2)31(20-23)41-4/h5-20H,1-4H3,(H,34,35,36)

>  <source>  (793) 
ChEMBL25

>  <source_id>  (793) 
25

>  <optional_reference>  (793) 
10.1016/j.ejmech.2016.03.067

>  <optional_origin>  (793) 
None

>  <target>  (793) 
MDR1

$$$$

     RDKit          2D

 54 61  0  0  0  0  0  0  0  0999 V2000
   -2.9788   -1.9427    0.0000 C   0  0  0  0  0  0  0  0  0  0  0  0
   -1.6837   -2.7198    0.0000 C   0  0  0  0  0  0  0  0  0  0  0  0
   -2.9788   -0.4255    0.0000 C   0  0  0  0  0  0  0  0  0  0  0  0
   -1.6652    0.2960    0.0000 C   0  0  0  0  0  0  0  0  0  0  0  0
   -2.0722    1.3877    0.0000 O   0  0  0  0  0  0  0  0  0  0  0  0
   -0.5736    1.3692    0.0000 C   0  0  0  0  0  0  0  0  0  0  0  0
    2.0167    1.3507    0.0000 C   0  0  0  0  0  0  0  0  0  0  0  0
    2.0352    2.8678    0.0000 C   0  0  0  0  0  0  0  0  0  0  0  0
    0.7216    3.6449    0.0000 C   0  0  0  0  0  0  0  0  0  0  0  0
   -0.5551    2.8863    0.0000 C   0  0  0  0  0  0  0  0  0  0  0  0
   -0.3515   -1.9612    0.0000 C   0  0  0  0  0  0  0  0  0  0  0  0
   -0.3515   -0.4440    0.0000 C   0  0  0  0  0  0  0  0  0  0  0  0
    0.7031    0.5921    0.0000 C   0  0  0  0  0  0  0  0  0  0  0  0
    0.6846   -3.0343    0.0000 C   0  0  0  0  0  0  0  0  0  0  0  0
    2.1647    0.2220    0.0000 C   0  0  0  0  0  0  0  0  0  0  0  0
    2.0722   -2.6458    0.0000 C   0  0  0  0  0  0  0  0  0  0  0  0
    2.9048   -1.3136    0.0000 N   0  0  0  0  0  0  0  0  0  0  0  0
    4.1030   -1.3793    0.0000 C   0  0  0  0  0  0  0  0  0  0  0  0
   -4.2693    0.3400    0.0000 O   0  0  0  0  0  0  0  0  0  0  0  0
   -5.3160   -0.2470    0.0000 C   0  0  0  0  0  0  0  0  0  0  0  0
    0.7124    5.1454    0.0000 O   0  0  0  0  0  0  0  0  0  0  0  0
    2.0069    5.9047    0.0000 C   0  0  0  0  0  0  0  0  0  0  0  0
    1.9975    7.4055    0.0000 C   0  0  0  0  0  0  0  0  0  0  0  0
    3.0501    5.3116    0.0000 O   0  0  0  0  0  0  0  0  0  0  0  0
    3.2920    8.1649    0.0000 C   0  0  0  0  0  0  0  0  0  0  0  0
    3.2826    9.6657    0.0000 C   0  0  0  0  0  0  0  0  0  0  0  0
    4.5771   10.4251    0.0000 C   0  0  0  0  0  0  0  0  0  0  0  0
    4.5677   11.9259    0.0000 C   0  0  0  0  0  0  0  0  0  0  0  0
    5.8622   12.6853    0.0000 C   0  0  0  0  0  0  0  0  0  0  0  0
    5.8528   14.1861    0.0000 C   0  0  0  0  0  0  0  0  0  0  0  0
    7.1473   14.9455    0.0000 C   0  0  0  0  0  0  0  0  0  0  0  0
    7.1379   16.4463    0.0000 C   0  0  0  0  0  0  0  0  0  0  0  0
    8.4324   17.2057    0.0000 O   0  0  0  0  0  0  0  0  0  0  0  0
    6.0947   17.0394    0.0000 O   0  0  0  0  0  0  0  0  0  0  0  0
    8.4230   18.7064    0.0000 C   0  0  0  0  0  0  0  0  0  0  0  0
    9.7001   19.4653    0.0000 C   0  0  0  0  0  0  0  0  0  0  0  0
    7.1245   20.9946    0.0000 C   0  0  0  0  0  0  0  0  0  0  0  0
    7.1097   19.4774    0.0000 C   0  0  0  0  0  0  0  0  0  0  0  0
    9.7148   20.9825    0.0000 C   0  0  0  0  0  0  0  0  0  0  0  0
   11.2135   20.9678    0.0000 O   0  0  0  0  0  0  0  0  0  0  0  0
   10.8037   22.0584    0.0000 C   0  0  0  0  0  0  0  0  0  0  0  0
   12.1156   22.7832    0.0000 C   0  0  0  0  0  0  0  0  0  0  0  0
   12.1118   24.3004    0.0000 C   0  0  0  0  0  0  0  0  0  0  0  0
   10.8147   25.0742    0.0000 C   0  0  0  0  0  0  0  0  0  0  0  0
   13.4080   22.0209    0.0000 O   0  0  0  0  0  0  0  0  0  0  0  0
   14.4532   22.6105    0.0000 C   0  0  0  0  0  0  0  0  0  0  0  0
    9.4845   24.3123    0.0000 C   0  0  0  0  0  0  0  0  0  0  0  0
    9.4883   22.7952    0.0000 C   0  0  0  0  0  0  0  0  0  0  0  0
    8.4362   21.7564    0.0000 C   0  0  0  0  0  0  0  0  0  0  0  0
    8.4457   25.3829    0.0000 C   0  0  0  0  0  0  0  0  0  0  0  0
    6.9736   22.1229    0.0000 C   0  0  0  0  0  0  0  0  0  0  0  0
    7.0590   24.9909    0.0000 C   0  0  0  0  0  0  0  0  0  0  0  0
    6.2297   23.6567    0.0000 N   0  0  0  0  0  0  0  0  0  0  0  0
    5.0314   23.7194    0.0000 C   0  0  0  0  0  0  0  0  0  0  0  0
  1  2  2  0
  2 11  1  0
  4  3  2  0
  3  1  1  0
  4 12  1  0
  6  5  1  0
  5  4  1  0
  6 13  1  0
  6 10  1  0
 13  7  1  0
  7  8  2  0
  8  9  1  0
  9 10  1  0
 11 12  2  0
 12 13  1  0
 11 14  1  0
 13 15  1  0
 14 16  1  0
 15 17  1  0
 16 17  1  0
 17 18  1  0
  3 19  1  0
 19 20  1  0
  9 21  1  0
 21 22  1  0
 22 23  1  0
 22 24  2  0
 23 25  1  0
 25 26  1  0
 26 27  1  0
 27 28  1  0
 28 29  1  0
 29 30  1  0
 30 31  1  0
 31 32  1  0
 32 33  1  0
 32 34  2  0
 35 33  1  0
 35 36  1  0
 35 38  1  0
 36 39  1  0
 49 37  1  0
 37 38  2  0
 49 39  1  0
 39 40  1  0
 40 41  1  0
 48 41  2  0
 41 42  1  0
 42 43  2  0
 43 44  1  0
 44 47  2  0
 42 45  1  0
 45 46  1  0
 47 48  1  0
 48 49  1  0
 47 50  1  0
 49 51  1  0
 50 52  1  0
 51 53  1  0
 52 53  1  0
 53 54  1  0
M  END
>  <Classification>  (794) 
1

>  <pchembl>  (794) 
6.1

>  <InChI_steorem>  (794) 
InChI=1S/C44H56N2O8/c1-45-23-19-29-13-15-33(49-3)41-39(29)43(27-45)21-17-31(25-35(43)53-41)51-37(47)11-9-7-5-6-8-10-12-38(48)52-32-18-22-44-28-46(2)24-20-30-14-16-34(50-4)42(40(30)44)54-36(44)26-32/h13-18,21-22,31-32,35-36H,5-12,19-20,23-28H2,1-4H3

>  <source>  (794) 
ChEMBL25

>  <source_id>  (794) 
25

>  <optional_reference>  (794) 
10.1016/j.ejmech.2016.03.067

>  <optional_origin>  (794) 
None

>  <target>  (794) 
MDR1

$$$$

     RDKit          2D

 35 39  0  0  0  0  0  0  0  0999 V2000
   -2.5835   -5.2544    0.0000 C   0  0  0  0  0  0  0  0  0  0  0  0
   -2.5870   -3.7544    0.0000 C   0  0  0  0  0  0  0  0  0  0  0  0
   -3.8880   -3.0076    0.0000 C   0  0  0  0  0  0  0  0  0  0  0  0
   -5.1852   -3.7608    0.0000 C   0  0  0  0  0  0  0  0  0  0  0  0
   -5.1815   -5.2608    0.0000 C   0  0  0  0  0  0  0  0  0  0  0  0
   -3.8807   -6.0076    0.0000 C   0  0  0  0  0  0  0  0  0  0  0  0
   -1.2907   -2.9981    0.0000 N   0  0  0  0  0  0  0  0  0  0  0  0
   -1.2964   -1.4973    0.0000 C   0  0  0  0  0  0  0  0  0  0  0  0
   -1.2964    1.4973    0.0000 N   0  0  0  0  0  0  0  0  0  0  0  0
   -2.6111    0.7486    0.0000 C   0  0  0  0  0  0  0  0  0  0  0  0
   -2.6111   -0.7486    0.0000 N   0  0  0  0  0  0  0  0  0  0  0  0
    0.0000    0.7486    0.0000 C   0  0  0  0  0  0  0  0  0  0  0  0
    0.0000   -0.7486    0.0000 C   0  0  0  0  0  0  0  0  0  0  0  0
    1.2964   -1.4973    0.0000 C   0  0  0  0  0  0  0  0  0  0  0  0
    2.5929   -0.7486    0.0000 C   0  0  0  0  0  0  0  0  0  0  0  0
    2.5929    0.7486    0.0000 C   0  0  0  0  0  0  0  0  0  0  0  0
    1.2964    1.4973    0.0000 C   0  0  0  0  0  0  0  0  0  0  0  0
   -6.4779   -6.0170    0.0000 C   0  0  0  0  0  0  0  0  0  0  0  0
   -6.4721   -7.5179    0.0000 C   0  0  0  0  0  0  0  0  0  0  0  0
   -7.5196   -5.4214    0.0000 O   0  0  0  0  0  0  0  0  0  0  0  0
   -7.7685   -8.2741    0.0000 C   0  0  0  0  0  0  0  0  0  0  0  0
   -7.7626   -9.7749    0.0000 C   0  0  0  0  0  0  0  0  0  0  0  0
   -9.0572  -10.5327    0.0000 C   0  0  0  0  0  0  0  0  0  0  0  0
   -9.0484  -12.0326    0.0000 C   0  0  0  0  0  0  0  0  0  0  0  0
   -7.7449  -12.7750    0.0000 C   0  0  0  0  0  0  0  0  0  0  0  0
   -6.4503  -12.0173    0.0000 C   0  0  0  0  0  0  0  0  0  0  0  0
   -6.4592  -10.5173    0.0000 C   0  0  0  0  0  0  0  0  0  0  0  0
  -10.3421  -12.7934    0.0000 O   0  0  0  0  0  0  0  0  0  0  0  0
  -10.3333  -13.9934    0.0000 C   0  0  0  0  0  0  0  0  0  0  0  0
   -3.9086    1.5029    0.0000 C   0  0  0  0  0  0  0  0  0  0  0  0
   -5.2125    0.7617    0.0000 C   0  0  0  0  0  0  0  0  0  0  0  0
   -6.5065    1.5203    0.0000 C   0  0  0  0  0  0  0  0  0  0  0  0
   -6.4965    3.0203    0.0000 C   0  0  0  0  0  0  0  0  0  0  0  0
   -5.1925    3.7616    0.0000 C   0  0  0  0  0  0  0  0  0  0  0  0
   -3.8985    3.0029    0.0000 C   0  0  0  0  0  0  0  0  0  0  0  0
  1  2  2  0
  2  3  1  0
  3  4  2  0
  4  5  1  0
  5  6  2  0
  6  1  1  0
  2  7  1  0
  7  8  1  0
  8 13  2  0
 12  9  2  0
  9 10  1  0
 10 11  2  0
 11  8  1  0
 12 13  1  0
 13 14  1  0
 14 15  2  0
 15 16  1  0
 16 17  2  0
 17 12  1  0
  5 18  1  0
 18 19  1  0
 18 20  2  0
 19 21  2  3
 21 22  1  0
 22 23  2  0
 23 24  1  0
 24 25  2  0
 25 26  1  0
 26 27  2  0
 27 22  1  0
 24 28  1  0
 28 29  1  0
 10 30  1  0
 30 31  2  0
 31 32  1  0
 32 33  2  0
 33 34  1  0
 34 35  2  0
 35 30  1  0
M  END
>  <Classification>  (795) 
0

>  <pchembl>  (795) 
4.49

>  <InChI_steorem>  (795) 
InChI=1S/C30H23N3O2/c1-35-25-11-7-8-21(20-25)14-19-28(34)22-15-17-24(18-16-22)31-30-26-12-5-6-13-27(26)32-29(33-30)23-9-3-2-4-10-23/h2-20H,1H3,(H,31,32,33)

>  <source>  (795) 
ChEMBL25

>  <source_id>  (795) 
25

>  <optional_reference>  (795) 
10.1016/j.ejmech.2016.03.067

>  <optional_origin>  (795) 
None

>  <target>  (795) 
MDR1

$$$$

     RDKit          2D

 37 41  0  0  0  0  0  0  0  0999 V2000
   -2.5835   -5.2544    0.0000 C   0  0  0  0  0  0  0  0  0  0  0  0
   -2.5870   -3.7544    0.0000 C   0  0  0  0  0  0  0  0  0  0  0  0
   -3.8880   -3.0076    0.0000 C   0  0  0  0  0  0  0  0  0  0  0  0
   -5.1852   -3.7608    0.0000 C   0  0  0  0  0  0  0  0  0  0  0  0
   -5.1815   -5.2608    0.0000 C   0  0  0  0  0  0  0  0  0  0  0  0
   -3.8807   -6.0076    0.0000 C   0  0  0  0  0  0  0  0  0  0  0  0
   -1.2907   -2.9981    0.0000 N   0  0  0  0  0  0  0  0  0  0  0  0
   -1.2964   -1.4973    0.0000 C   0  0  0  0  0  0  0  0  0  0  0  0
   -1.2964    1.4973    0.0000 N   0  0  0  0  0  0  0  0  0  0  0  0
   -2.6111    0.7486    0.0000 C   0  0  0  0  0  0  0  0  0  0  0  0
   -2.6111   -0.7486    0.0000 N   0  0  0  0  0  0  0  0  0  0  0  0
    0.0000    0.7486    0.0000 C   0  0  0  0  0  0  0  0  0  0  0  0
    0.0000   -0.7486    0.0000 C   0  0  0  0  0  0  0  0  0  0  0  0
    1.2964   -1.4973    0.0000 C   0  0  0  0  0  0  0  0  0  0  0  0
    2.5929   -0.7486    0.0000 C   0  0  0  0  0  0  0  0  0  0  0  0
    2.5929    0.7486    0.0000 C   0  0  0  0  0  0  0  0  0  0  0  0
    1.2964    1.4973    0.0000 C   0  0  0  0  0  0  0  0  0  0  0  0
   -6.4779   -6.0170    0.0000 C   0  0  0  0  0  0  0  0  0  0  0  0
   -6.4721   -7.5179    0.0000 C   0  0  0  0  0  0  0  0  0  0  0  0
   -7.5196   -5.4214    0.0000 O   0  0  0  0  0  0  0  0  0  0  0  0
   -7.7685   -8.2741    0.0000 C   0  0  0  0  0  0  0  0  0  0  0  0
   -7.7626   -9.7749    0.0000 C   0  0  0  0  0  0  0  0  0  0  0  0
   -9.0572  -10.5327    0.0000 C   0  0  0  0  0  0  0  0  0  0  0  0
   -9.0484  -12.0326    0.0000 C   0  0  0  0  0  0  0  0  0  0  0  0
   -7.7449  -12.7750    0.0000 C   0  0  0  0  0  0  0  0  0  0  0  0
   -6.4503  -12.0173    0.0000 C   0  0  0  0  0  0  0  0  0  0  0  0
   -6.4592  -10.5173    0.0000 C   0  0  0  0  0  0  0  0  0  0  0  0
   -7.7330  -14.2758    0.0000 O   0  0  0  0  0  0  0  0  0  0  0  0
   -6.6894  -14.8681    0.0000 C   0  0  0  0  0  0  0  0  0  0  0  0
  -10.3452  -12.7881    0.0000 O   0  0  0  0  0  0  0  0  0  0  0  0
  -11.3871  -12.1927    0.0000 C   0  0  0  0  0  0  0  0  0  0  0  0
   -3.9086    1.5029    0.0000 C   0  0  0  0  0  0  0  0  0  0  0  0
   -5.2125    0.7617    0.0000 C   0  0  0  0  0  0  0  0  0  0  0  0
   -6.5065    1.5203    0.0000 C   0  0  0  0  0  0  0  0  0  0  0  0
   -6.4965    3.0203    0.0000 C   0  0  0  0  0  0  0  0  0  0  0  0
   -5.1925    3.7616    0.0000 C   0  0  0  0  0  0  0  0  0  0  0  0
   -3.8985    3.0029    0.0000 C   0  0  0  0  0  0  0  0  0  0  0  0
  1  2  2  0
  2  3  1  0
  3  4  2  0
  4  5  1  0
  5  6  2  0
  6  1  1  0
  2  7  1  0
  7  8  1  0
  8 13  2  0
 12  9  2  0
  9 10  1  0
 10 11  2  0
 11  8  1  0
 12 13  1  0
 13 14  1  0
 14 15  2  0
 15 16  1  0
 16 17  2  0
 17 12  1  0
  5 18  1  0
 18 19  1  0
 18 20  2  0
 19 21  2  3
 21 22  1  0
 22 23  2  0
 23 24  1  0
 24 25  2  0
 25 26  1  0
 26 27  2  0
 27 22  1  0
 25 28  1  0
 28 29  1  0
 24 30  1  0
 30 31  1  0
 10 32  1  0
 32 33  2  0
 33 34  1  0
 34 35  2  0
 35 36  1  0
 36 37  2  0
 37 32  1  0
M  END
>  <Classification>  (796) 
0

>  <pchembl>  (796) 
4.73

>  <InChI_steorem>  (796) 
InChI=1S/C31H25N3O3/c1-36-28-19-13-21(20-29(28)37-2)12-18-27(35)22-14-16-24(17-15-22)32-31-25-10-6-7-11-26(25)33-30(34-31)23-8-4-3-5-9-23/h3-20H,1-2H3,(H,32,33,34)

>  <source>  (796) 
ChEMBL25

>  <source_id>  (796) 
25

>  <optional_reference>  (796) 
10.1016/j.ejmech.2016.03.067

>  <optional_origin>  (796) 
None

>  <target>  (796) 
MDR1

$$$$

     RDKit          2D

 39 43  0  0  0  0  0  0  0  0999 V2000
   -2.5835   -5.2544    0.0000 C   0  0  0  0  0  0  0  0  0  0  0  0
   -2.5870   -3.7544    0.0000 C   0  0  0  0  0  0  0  0  0  0  0  0
   -3.8880   -3.0076    0.0000 C   0  0  0  0  0  0  0  0  0  0  0  0
   -5.1852   -3.7608    0.0000 C   0  0  0  0  0  0  0  0  0  0  0  0
   -5.1815   -5.2608    0.0000 C   0  0  0  0  0  0  0  0  0  0  0  0
   -3.8807   -6.0076    0.0000 C   0  0  0  0  0  0  0  0  0  0  0  0
   -1.2907   -2.9981    0.0000 N   0  0  0  0  0  0  0  0  0  0  0  0
   -1.2964   -1.4973    0.0000 C   0  0  0  0  0  0  0  0  0  0  0  0
   -1.2964    1.4973    0.0000 N   0  0  0  0  0  0  0  0  0  0  0  0
   -2.6111    0.7486    0.0000 C   0  0  0  0  0  0  0  0  0  0  0  0
   -2.6111   -0.7486    0.0000 N   0  0  0  0  0  0  0  0  0  0  0  0
    0.0000    0.7486    0.0000 C   0  0  0  0  0  0  0  0  0  0  0  0
    0.0000   -0.7486    0.0000 C   0  0  0  0  0  0  0  0  0  0  0  0
    1.2964   -1.4973    0.0000 C   0  0  0  0  0  0  0  0  0  0  0  0
    2.5929   -0.7486    0.0000 C   0  0  0  0  0  0  0  0  0  0  0  0
    2.5929    0.7486    0.0000 C   0  0  0  0  0  0  0  0  0  0  0  0
    1.2964    1.4973    0.0000 C   0  0  0  0  0  0  0  0  0  0  0  0
   -6.4779   -6.0170    0.0000 C   0  0  0  0  0  0  0  0  0  0  0  0
   -6.4721   -7.5179    0.0000 C   0  0  0  0  0  0  0  0  0  0  0  0
   -7.5196   -5.4214    0.0000 O   0  0  0  0  0  0  0  0  0  0  0  0
   -7.7685   -8.2741    0.0000 C   0  0  0  0  0  0  0  0  0  0  0  0
   -7.7626   -9.7749    0.0000 C   0  0  0  0  0  0  0  0  0  0  0  0
   -9.0572  -10.5327    0.0000 C   0  0  0  0  0  0  0  0  0  0  0  0
   -9.0484  -12.0326    0.0000 C   0  0  0  0  0  0  0  0  0  0  0  0
   -7.7449  -12.7750    0.0000 C   0  0  0  0  0  0  0  0  0  0  0  0
   -6.4503  -12.0173    0.0000 C   0  0  0  0  0  0  0  0  0  0  0  0
   -6.4592  -10.5173    0.0000 C   0  0  0  0  0  0  0  0  0  0  0  0
  -10.3421  -12.7934    0.0000 O   0  0  0  0  0  0  0  0  0  0  0  0
  -10.3333  -13.9934    0.0000 C   0  0  0  0  0  0  0  0  0  0  0  0
   -3.9086    1.5029    0.0000 C   0  0  0  0  0  0  0  0  0  0  0  0
   -5.2125    0.7617    0.0000 C   0  0  0  0  0  0  0  0  0  0  0  0
   -6.5065    1.5203    0.0000 C   0  0  0  0  0  0  0  0  0  0  0  0
   -6.4965    3.0203    0.0000 C   0  0  0  0  0  0  0  0  0  0  0  0
   -5.1925    3.7616    0.0000 C   0  0  0  0  0  0  0  0  0  0  0  0
   -3.8985    3.0029    0.0000 C   0  0  0  0  0  0  0  0  0  0  0  0
   -7.7897    3.7820    0.0000 O   0  0  0  0  0  0  0  0  0  0  0  0
   -7.7800    4.9820    0.0000 C   0  0  0  0  0  0  0  0  0  0  0  0
   -7.8098    0.7759    0.0000 O   0  0  0  0  0  0  0  0  0  0  0  0
   -7.8161   -0.4241    0.0000 C   0  0  0  0  0  0  0  0  0  0  0  0
  1  2  2  0
  2  3  1  0
  3  4  2  0
  4  5  1  0
  5  6  2  0
  6  1  1  0
  2  7  1  0
  7  8  1  0
  8 13  2  0
 12  9  2  0
  9 10  1  0
 10 11  2  0
 11  8  1  0
 12 13  1  0
 13 14  1  0
 14 15  2  0
 15 16  1  0
 16 17  2  0
 17 12  1  0
  5 18  1  0
 18 19  1  0
 18 20  2  0
 19 21  2  3
 21 22  1  0
 22 23  2  0
 23 24  1  0
 24 25  2  0
 25 26  1  0
 26 27  2  0
 27 22  1  0
 24 28  1  0
 28 29  1  0
 10 30  1  0
 30 31  2  0
 31 32  1  0
 32 33  2  0
 33 34  1  0
 34 35  2  0
 35 30  1  0
 33 36  1  0
 36 37  1  0
 32 38  1  0
 38 39  1  0
M  END
>  <Classification>  (797) 
0

>  <pchembl>  (797) 
4.84

>  <InChI_steorem>  (797) 
InChI=1S/C32H27N3O4/c1-37-25-8-6-7-21(19-25)11-17-28(36)22-12-15-24(16-13-22)33-32-26-9-4-5-10-27(26)34-31(35-32)23-14-18-29(38-2)30(20-23)39-3/h4-20H,1-3H3,(H,33,34,35)

>  <source>  (797) 
ChEMBL25

>  <source_id>  (797) 
25

>  <optional_reference>  (797) 
10.1016/j.ejmech.2016.03.067

>  <optional_origin>  (797) 
None

>  <target>  (797) 
MDR1

$$$$

     RDKit          2D

 41 45  0  0  0  0  0  0  0  0999 V2000
   -2.5835   -5.2544    0.0000 C   0  0  0  0  0  0  0  0  0  0  0  0
   -2.5870   -3.7544    0.0000 C   0  0  0  0  0  0  0  0  0  0  0  0
   -3.8880   -3.0076    0.0000 C   0  0  0  0  0  0  0  0  0  0  0  0
   -5.1852   -3.7608    0.0000 C   0  0  0  0  0  0  0  0  0  0  0  0
   -5.1815   -5.2608    0.0000 C   0  0  0  0  0  0  0  0  0  0  0  0
   -3.8807   -6.0076    0.0000 C   0  0  0  0  0  0  0  0  0  0  0  0
   -1.2907   -2.9981    0.0000 N   0  0  0  0  0  0  0  0  0  0  0  0
   -1.2964   -1.4973    0.0000 C   0  0  0  0  0  0  0  0  0  0  0  0
   -1.2964    1.4973    0.0000 N   0  0  0  0  0  0  0  0  0  0  0  0
   -2.6111    0.7486    0.0000 C   0  0  0  0  0  0  0  0  0  0  0  0
   -2.6111   -0.7486    0.0000 N   0  0  0  0  0  0  0  0  0  0  0  0
    0.0000    0.7486    0.0000 C   0  0  0  0  0  0  0  0  0  0  0  0
    0.0000   -0.7486    0.0000 C   0  0  0  0  0  0  0  0  0  0  0  0
    1.2964   -1.4973    0.0000 C   0  0  0  0  0  0  0  0  0  0  0  0
    2.5929   -0.7486    0.0000 C   0  0  0  0  0  0  0  0  0  0  0  0
    2.5929    0.7486    0.0000 C   0  0  0  0  0  0  0  0  0  0  0  0
    1.2964    1.4973    0.0000 C   0  0  0  0  0  0  0  0  0  0  0  0
   -6.4779   -6.0170    0.0000 C   0  0  0  0  0  0  0  0  0  0  0  0
   -6.4721   -7.5179    0.0000 C   0  0  0  0  0  0  0  0  0  0  0  0
   -7.5196   -5.4214    0.0000 O   0  0  0  0  0  0  0  0  0  0  0  0
   -7.7685   -8.2741    0.0000 C   0  0  0  0  0  0  0  0  0  0  0  0
   -7.7626   -9.7749    0.0000 C   0  0  0  0  0  0  0  0  0  0  0  0
   -9.0572  -10.5327    0.0000 C   0  0  0  0  0  0  0  0  0  0  0  0
   -9.0484  -12.0326    0.0000 C   0  0  0  0  0  0  0  0  0  0  0  0
   -7.7449  -12.7750    0.0000 C   0  0  0  0  0  0  0  0  0  0  0  0
   -6.4503  -12.0173    0.0000 C   0  0  0  0  0  0  0  0  0  0  0  0
   -6.4592  -10.5173    0.0000 C   0  0  0  0  0  0  0  0  0  0  0  0
   -7.7330  -14.2758    0.0000 O   0  0  0  0  0  0  0  0  0  0  0  0
   -6.6894  -14.8681    0.0000 C   0  0  0  0  0  0  0  0  0  0  0  0
  -10.3452  -12.7881    0.0000 O   0  0  0  0  0  0  0  0  0  0  0  0
  -11.3871  -12.1927    0.0000 C   0  0  0  0  0  0  0  0  0  0  0  0
   -3.9086    1.5029    0.0000 C   0  0  0  0  0  0  0  0  0  0  0  0
   -5.2125    0.7617    0.0000 C   0  0  0  0  0  0  0  0  0  0  0  0
   -6.5065    1.5203    0.0000 C   0  0  0  0  0  0  0  0  0  0  0  0
   -6.4965    3.0203    0.0000 C   0  0  0  0  0  0  0  0  0  0  0  0
   -5.1925    3.7616    0.0000 C   0  0  0  0  0  0  0  0  0  0  0  0
   -3.8985    3.0029    0.0000 C   0  0  0  0  0  0  0  0  0  0  0  0
   -7.7897    3.7820    0.0000 O   0  0  0  0  0  0  0  0  0  0  0  0
   -7.7800    4.9820    0.0000 C   0  0  0  0  0  0  0  0  0  0  0  0
   -7.8098    0.7759    0.0000 O   0  0  0  0  0  0  0  0  0  0  0  0
   -7.8161   -0.4241    0.0000 C   0  0  0  0  0  0  0  0  0  0  0  0
  1  2  2  0
  2  3  1  0
  3  4  2  0
  4  5  1  0
  5  6  2  0
  6  1  1  0
  2  7  1  0
  7  8  1  0
  8 13  2  0
 12  9  2  0
  9 10  1  0
 10 11  2  0
 11  8  1  0
 12 13  1  0
 13 14  1  0
 14 15  2  0
 15 16  1  0
 16 17  2  0
 17 12  1  0
  5 18  1  0
 18 19  1  0
 18 20  2  0
 19 21  2  3
 21 22  1  0
 22 23  2  0
 23 24  1  0
 24 25  2  0
 25 26  1  0
 26 27  2  0
 27 22  1  0
 25 28  1  0
 28 29  1  0
 24 30  1  0
 30 31  1  0
 10 32  1  0
 32 33  2  0
 33 34  1  0
 34 35  2  0
 35 36  1  0
 36 37  2  0
 37 32  1  0
 35 38  1  0
 38 39  1  0
 34 40  1  0
 40 41  1  0
M  END
>  <Classification>  (798) 
0

>  <pchembl>  (798) 
4.83

>  <InChI_steorem>  (798) 
InChI=1S/C33H29N3O5/c1-38-28-17-10-21(19-30(28)40-3)9-16-27(37)22-11-14-24(15-12-22)34-33-25-7-5-6-8-26(25)35-32(36-33)23-13-18-29(39-2)31(20-23)41-4/h5-20H,1-4H3,(H,34,35,36)

>  <source>  (798) 
ChEMBL25

>  <source_id>  (798) 
25

>  <optional_reference>  (798) 
10.1016/j.ejmech.2016.03.067

>  <optional_origin>  (798) 
None

>  <target>  (798) 
MDR1

$$$$

     RDKit          2D

 25 26  0  0  0  0  0  0  0  0999 V2000
    1.2990   -0.7500    0.0000 C   0  0  0  0  0  0  0  0  0  0  0  0
    2.5973   -1.5031    0.0000 C   0  0  0  0  0  0  0  0  0  0  0  0
    2.5951   -3.0039    0.0000 N   0  0  0  0  0  0  0  0  0  0  0  0
    3.8933   -3.7570    0.0000 N   0  0  0  0  0  0  0  0  0  0  0  0
    3.8912   -5.2578    0.0000 C   0  0  0  0  0  0  0  0  0  0  0  0
    5.1894   -6.0109    0.0000 C   0  0  0  0  0  0  0  0  0  0  0  0
    2.8509   -5.8560    0.0000 O   0  0  0  0  0  0  0  0  0  0  0  0
    3.6375   -0.9049    0.0000 O   0  0  0  0  0  0  0  0  0  0  0  0
    1.2956   -3.7547    0.0000 C   0  0  0  0  0  0  0  0  0  0  0  0
    1.2952   -4.9547    0.0000 C   0  0  0  0  0  0  0  0  0  0  0  0
    0.2563   -4.3546    0.0000 C   0  0  0  0  0  0  0  0  0  0  0  0
    0.2564   -3.1547    0.0000 C   0  0  0  0  0  0  0  0  0  0  0  0
    1.2990    0.7500    0.0000 C   0  0  0  0  0  0  0  0  0  0  0  0
    0.0000    1.5000    0.0000 C   0  0  0  0  0  0  0  0  0  0  0  0
   -1.2990    0.7500    0.0000 C   0  0  0  0  0  0  0  0  0  0  0  0
   -1.2990   -0.7500    0.0000 C   0  0  0  0  0  0  0  0  0  0  0  0
    0.0000   -1.5000    0.0000 C   0  0  0  0  0  0  0  0  0  0  0  0
    5.1895   -7.5109    0.0000 C   0  0  0  0  0  0  0  0  0  0  0  0
    6.4885   -8.2610    0.0000 C   0  0  0  0  0  0  0  0  0  0  0  0
    7.7875   -7.5110    0.0000 C   0  0  0  0  0  0  0  0  0  0  0  0
    7.7876   -6.0110    0.0000 C   0  0  0  0  0  0  0  0  0  0  0  0
    6.4885   -5.2610    0.0000 C   0  0  0  0  0  0  0  0  0  0  0  0
    0.0000    2.7000    0.0000 C   0  0  0  0  0  0  0  0  0  0  0  0
   -2.3383   -1.3500    0.0000 C   0  0  0  0  0  0  0  0  0  0  0  0
    8.8268   -5.4110    0.0000 C   0  0  0  0  0  0  0  0  0  0  0  0
  1  2  1  0
  2  3  1  0
  3  4  1  0
  4  5  1  0
  5  6  1  0
  5  7  2  0
  2  8  2  0
  3  9  1  0
  9 10  1  0
  9 11  1  0
  9 12  1  0
  1 13  2  0
 13 14  1  0
 14 15  2  0
 15 16  1  0
 16 17  2  0
 17  1  1  0
  6 18  2  0
 18 19  1  0
 19 20  2  0
 20 21  1  0
 21 22  2  0
 22  6  1  0
 14 23  1  0
 16 24  1  0
 21 25  1  0
M  END
>  <Classification>  (799) 
0

>  <pchembl>  (799) 
4.32

>  <InChI_steorem>  (799) 
InChI=1S/C21H26N2O2/c1-14-8-7-9-17(11-14)19(24)22-23(21(4,5)6)20(25)18-12-15(2)10-16(3)13-18/h7-13H,1-6H3,(H,22,24)

>  <source>  (799) 
ChEMBL25

>  <source_id>  (799) 
25

>  <optional_reference>  (799) 
10.1016/j.bmc.2016.05.039

>  <optional_origin>  (799) 
None

>  <target>  (799) 
MDR1

$$$$

     RDKit          2D

 25 26  0  0  0  0  0  0  0  0999 V2000
    1.2990   -0.7500    0.0000 C   0  0  0  0  0  0  0  0  0  0  0  0
    2.5973   -1.5031    0.0000 C   0  0  0  0  0  0  0  0  0  0  0  0
    2.5951   -3.0039    0.0000 N   0  0  0  0  0  0  0  0  0  0  0  0
    3.8933   -3.7570    0.0000 N   0  0  0  0  0  0  0  0  0  0  0  0
    3.8912   -5.2578    0.0000 C   0  0  0  0  0  0  0  0  0  0  0  0
    5.1894   -6.0109    0.0000 C   0  0  0  0  0  0  0  0  0  0  0  0
    2.8509   -5.8560    0.0000 O   0  0  0  0  0  0  0  0  0  0  0  0
    3.6375   -0.9049    0.0000 O   0  0  0  0  0  0  0  0  0  0  0  0
    1.2956   -3.7547    0.0000 C   0  0  0  0  0  0  0  0  0  0  0  0
    1.2952   -4.9547    0.0000 C   0  0  0  0  0  0  0  0  0  0  0  0
    0.2563   -4.3546    0.0000 C   0  0  0  0  0  0  0  0  0  0  0  0
    0.2564   -3.1547    0.0000 C   0  0  0  0  0  0  0  0  0  0  0  0
    1.2990    0.7500    0.0000 C   0  0  0  0  0  0  0  0  0  0  0  0
    0.0000    1.5000    0.0000 C   0  0  0  0  0  0  0  0  0  0  0  0
   -1.2990    0.7500    0.0000 C   0  0  0  0  0  0  0  0  0  0  0  0
   -1.2990   -0.7500    0.0000 C   0  0  0  0  0  0  0  0  0  0  0  0
    0.0000   -1.5000    0.0000 C   0  0  0  0  0  0  0  0  0  0  0  0
    6.4886   -5.2610    0.0000 C   0  0  0  0  0  0  0  0  0  0  0  0
    7.7876   -6.0110    0.0000 C   0  0  0  0  0  0  0  0  0  0  0  0
    7.7875   -7.5110    0.0000 C   0  0  0  0  0  0  0  0  0  0  0  0
    6.4885   -8.2610    0.0000 C   0  0  0  0  0  0  0  0  0  0  0  0
    5.1895   -7.5109    0.0000 C   0  0  0  0  0  0  0  0  0  0  0  0
    0.0000    2.7000    0.0000 C   0  0  0  0  0  0  0  0  0  0  0  0
   -2.3383   -1.3500    0.0000 C   0  0  0  0  0  0  0  0  0  0  0  0
    4.1502   -8.1109    0.0000 C   0  0  0  0  0  0  0  0  0  0  0  0
  1  2  1  0
  2  3  1  0
  3  4  1  0
  4  5  1  0
  5  6  1  0
  5  7  2  0
  2  8  2  0
  3  9  1  0
  9 10  1  0
  9 11  1  0
  9 12  1  0
  1 13  2  0
 13 14  1  0
 14 15  2  0
 15 16  1  0
 16 17  2  0
 17  1  1  0
  6 18  2  0
 18 19  1  0
 19 20  2  0
 20 21  1  0
 21 22  2  0
 22  6  1  0
 14 23  1  0
 16 24  1  0
 22 25  1  0
M  END
>  <Classification>  (800) 
0

>  <pchembl>  (800) 
4.1

>  <InChI_steorem>  (800) 
InChI=1S/C21H26N2O2/c1-14-11-15(2)13-17(12-14)20(25)23(21(4,5)6)22-19(24)18-10-8-7-9-16(18)3/h7-13H,1-6H3,(H,22,24)

>  <source>  (800) 
ChEMBL25

>  <source_id>  (800) 
25

>  <optional_reference>  (800) 
10.1016/j.bmc.2016.05.039

>  <optional_origin>  (800) 
None

>  <target>  (800) 
MDR1

$$$$

     RDKit          2D

 27 28  0  0  0  0  0  0  0  0999 V2000
    1.2990   -0.7500    0.0000 C   0  0  0  0  0  0  0  0  0  0  0  0
    2.5973   -1.5031    0.0000 C   0  0  0  0  0  0  0  0  0  0  0  0
    2.5951   -3.0039    0.0000 N   0  0  0  0  0  0  0  0  0  0  0  0
    3.8933   -3.7570    0.0000 N   0  0  0  0  0  0  0  0  0  0  0  0
    3.8912   -5.2578    0.0000 C   0  0  0  0  0  0  0  0  0  0  0  0
    5.1894   -6.0109    0.0000 C   0  0  0  0  0  0  0  0  0  0  0  0
    2.8509   -5.8560    0.0000 O   0  0  0  0  0  0  0  0  0  0  0  0
    3.6375   -0.9049    0.0000 O   0  0  0  0  0  0  0  0  0  0  0  0
    1.2956   -3.7547    0.0000 C   0  0  0  0  0  0  0  0  0  0  0  0
    1.2952   -4.9547    0.0000 C   0  0  0  0  0  0  0  0  0  0  0  0
    0.2563   -4.3546    0.0000 C   0  0  0  0  0  0  0  0  0  0  0  0
    0.2564   -3.1547    0.0000 C   0  0  0  0  0  0  0  0  0  0  0  0
    1.2990    0.7500    0.0000 C   0  0  0  0  0  0  0  0  0  0  0  0
    0.0000    1.5000    0.0000 C   0  0  0  0  0  0  0  0  0  0  0  0
   -1.2990    0.7500    0.0000 C   0  0  0  0  0  0  0  0  0  0  0  0
   -1.2990   -0.7500    0.0000 C   0  0  0  0  0  0  0  0  0  0  0  0
    0.0000   -1.5000    0.0000 C   0  0  0  0  0  0  0  0  0  0  0  0
    5.1895   -7.5109    0.0000 C   0  0  0  0  0  0  0  0  0  0  0  0
    6.4885   -8.2610    0.0000 C   0  0  0  0  0  0  0  0  0  0  0  0
    7.7875   -7.5110    0.0000 C   0  0  0  0  0  0  0  0  0  0  0  0
    7.7876   -6.0110    0.0000 C   0  0  0  0  0  0  0  0  0  0  0  0
    6.4885   -5.2610    0.0000 C   0  0  0  0  0  0  0  0  0  0  0  0
    0.0000    2.7000    0.0000 C   0  0  0  0  0  0  0  0  0  0  0  0
   -2.3383   -1.3500    0.0000 C   0  0  0  0  0  0  0  0  0  0  0  0
    9.0858   -5.2579    0.0000 O   0  0  0  0  0  0  0  0  0  0  0  0
    9.0837   -3.7571    0.0000 C   0  0  0  0  0  0  0  0  0  0  0  0
   10.1217   -3.1550    0.0000 C   0  0  0  0  0  0  0  0  0  0  0  0
  1  2  1  0
  2  3  1  0
  3  4  1  0
  4  5  1  0
  5  6  1  0
  5  7  2  0
  2  8  2  0
  3  9  1  0
  9 10  1  0
  9 11  1  0
  9 12  1  0
  1 13  2  0
 13 14  1  0
 14 15  2  0
 15 16  1  0
 16 17  2  0
 17  1  1  0
  6 18  2  0
 18 19  1  0
 19 20  2  0
 20 21  1  0
 21 22  2  0
 22  6  1  0
 14 23  1  0
 16 24  1  0
 21 25  1  0
 25 26  1  0
 26 27  1  0
M  END
>  <Classification>  (801) 
0

>  <pchembl>  (801) 
4.4

>  <InChI_steorem>  (801) 
InChI=1S/C22H28N2O3/c1-7-27-19-10-8-9-17(14-19)20(25)23-24(22(4,5)6)21(26)18-12-15(2)11-16(3)13-18/h8-14H,7H2,1-6H3,(H,23,25)

>  <source>  (801) 
ChEMBL25

>  <source_id>  (801) 
25

>  <optional_reference>  (801) 
10.1016/j.bmc.2016.05.039

>  <optional_origin>  (801) 
None

>  <target>  (801) 
MDR1

$$$$

     RDKit          2D

 27 28  0  0  0  0  0  0  0  0999 V2000
    1.2990   -0.7500    0.0000 C   0  0  0  0  0  0  0  0  0  0  0  0
    2.5973   -1.5031    0.0000 C   0  0  0  0  0  0  0  0  0  0  0  0
    2.5951   -3.0039    0.0000 N   0  0  0  0  0  0  0  0  0  0  0  0
    3.8933   -3.7570    0.0000 N   0  0  0  0  0  0  0  0  0  0  0  0
    3.8912   -5.2578    0.0000 C   0  0  0  0  0  0  0  0  0  0  0  0
    5.1894   -6.0109    0.0000 C   0  0  0  0  0  0  0  0  0  0  0  0
    2.8509   -5.8560    0.0000 O   0  0  0  0  0  0  0  0  0  0  0  0
    3.6375   -0.9049    0.0000 O   0  0  0  0  0  0  0  0  0  0  0  0
    1.2956   -3.7547    0.0000 C   0  0  0  0  0  0  0  0  0  0  0  0
    1.2952   -4.9547    0.0000 C   0  0  0  0  0  0  0  0  0  0  0  0
    0.2563   -4.3546    0.0000 C   0  0  0  0  0  0  0  0  0  0  0  0
    0.2564   -3.1547    0.0000 C   0  0  0  0  0  0  0  0  0  0  0  0
    1.2990    0.7500    0.0000 C   0  0  0  0  0  0  0  0  0  0  0  0
    0.0000    1.5000    0.0000 C   0  0  0  0  0  0  0  0  0  0  0  0
   -1.2990    0.7500    0.0000 C   0  0  0  0  0  0  0  0  0  0  0  0
   -1.2990   -0.7500    0.0000 C   0  0  0  0  0  0  0  0  0  0  0  0
    0.0000   -1.5000    0.0000 C   0  0  0  0  0  0  0  0  0  0  0  0
    5.1895   -7.5109    0.0000 C   0  0  0  0  0  0  0  0  0  0  0  0
    6.4885   -8.2610    0.0000 C   0  0  0  0  0  0  0  0  0  0  0  0
    7.7875   -7.5110    0.0000 C   0  0  0  0  0  0  0  0  0  0  0  0
    7.7876   -6.0110    0.0000 C   0  0  0  0  0  0  0  0  0  0  0  0
    6.4885   -5.2610    0.0000 C   0  0  0  0  0  0  0  0  0  0  0  0
    0.0000    2.7000    0.0000 C   0  0  0  0  0  0  0  0  0  0  0  0
   -2.3383   -1.3500    0.0000 C   0  0  0  0  0  0  0  0  0  0  0  0
    9.0888   -8.2588    0.0000 C   0  0  0  0  0  0  0  0  0  0  0  0
   10.3875   -7.5065    0.0000 C   0  0  0  0  0  0  0  0  0  0  0  0
   11.4280   -8.1044    0.0000 C   0  0  0  0  0  0  0  0  0  0  0  0
  1  2  1  0
  2  3  1  0
  3  4  1  0
  4  5  1  0
  5  6  1  0
  5  7  2  0
  2  8  2  0
  3  9  1  0
  9 10  1  0
  9 11  1  0
  9 12  1  0
  1 13  2  0
 13 14  1  0
 14 15  2  0
 15 16  1  0
 16 17  2  0
 17  1  1  0
  6 18  2  0
 18 19  1  0
 19 20  2  0
 20 21  1  0
 21 22  2  0
 22  6  1  0
 14 23  1  0
 16 24  1  0
 20 25  1  0
 25 26  1  0
 26 27  1  0
M  END
>  <Classification>  (802) 
0

>  <pchembl>  (802) 
4.82

>  <InChI_steorem>  (802) 
InChI=1S/C23H30N2O2/c1-7-8-18-9-11-19(12-10-18)21(26)24-25(23(4,5)6)22(27)20-14-16(2)13-17(3)15-20/h9-15H,7-8H2,1-6H3,(H,24,26)

>  <source>  (802) 
ChEMBL25

>  <source_id>  (802) 
25

>  <optional_reference>  (802) 
10.1016/j.bmc.2016.05.039

>  <optional_origin>  (802) 
None

>  <target>  (802) 
MDR1

$$$$

     RDKit          2D

 25 26  0  0  0  0  0  0  0  0999 V2000
    1.2990   -0.7500    0.0000 C   0  0  0  0  0  0  0  0  0  0  0  0
    2.5973   -1.5031    0.0000 C   0  0  0  0  0  0  0  0  0  0  0  0
    2.5951   -3.0039    0.0000 N   0  0  0  0  0  0  0  0  0  0  0  0
    3.8933   -3.7570    0.0000 N   0  0  0  0  0  0  0  0  0  0  0  0
    3.8912   -5.2578    0.0000 C   0  0  0  0  0  0  0  0  0  0  0  0
    5.1894   -6.0109    0.0000 C   0  0  0  0  0  0  0  0  0  0  0  0
    2.8509   -5.8560    0.0000 O   0  0  0  0  0  0  0  0  0  0  0  0
    3.6375   -0.9049    0.0000 O   0  0  0  0  0  0  0  0  0  0  0  0
    1.2956   -3.7547    0.0000 C   0  0  0  0  0  0  0  0  0  0  0  0
    1.2952   -4.9547    0.0000 C   0  0  0  0  0  0  0  0  0  0  0  0
    0.2563   -4.3546    0.0000 C   0  0  0  0  0  0  0  0  0  0  0  0
    0.2564   -3.1547    0.0000 C   0  0  0  0  0  0  0  0  0  0  0  0
    1.2990    0.7500    0.0000 C   0  0  0  0  0  0  0  0  0  0  0  0
    0.0000    1.5000    0.0000 C   0  0  0  0  0  0  0  0  0  0  0  0
   -1.2990    0.7500    0.0000 C   0  0  0  0  0  0  0  0  0  0  0  0
   -1.2990   -0.7500    0.0000 C   0  0  0  0  0  0  0  0  0  0  0  0
    0.0000   -1.5000    0.0000 C   0  0  0  0  0  0  0  0  0  0  0  0
    6.4886   -5.2610    0.0000 C   0  0  0  0  0  0  0  0  0  0  0  0
    7.7876   -6.0110    0.0000 C   0  0  0  0  0  0  0  0  0  0  0  0
    7.7875   -7.5110    0.0000 C   0  0  0  0  0  0  0  0  0  0  0  0
    6.4885   -8.2610    0.0000 C   0  0  0  0  0  0  0  0  0  0  0  0
    5.1895   -7.5109    0.0000 C   0  0  0  0  0  0  0  0  0  0  0  0
    2.3383    1.3500    0.0000 Cl  0  0  0  0  0  0  0  0  0  0  0  0
    4.1502   -8.1109    0.0000 Cl  0  0  0  0  0  0  0  0  0  0  0  0
    8.8268   -5.4110    0.0000 Cl  0  0  0  0  0  0  0  0  0  0  0  0
  1  2  1  0
  2  3  1  0
  3  4  1  0
  4  5  1  0
  5  6  1  0
  5  7  2  0
  2  8  2  0
  3  9  1  0
  9 10  1  0
  9 11  1  0
  9 12  1  0
  1 13  2  0
 13 14  1  0
 14 15  2  0
 15 16  1  0
 16 17  2  0
 17  1  1  0
  6 18  2  0
 18 19  1  0
 19 20  2  0
 20 21  1  0
 21 22  2  0
 22  6  1  0
 13 23  1  0
 22 24  1  0
 19 25  1  0
M  END
>  <Classification>  (803) 
0

>  <pchembl>  (803) 
4.33

>  <InChI_steorem>  (803) 
InChI=1S/C18H17Cl3N2O2/c1-18(2,3)23(17(25)12-6-4-5-7-14(12)20)22-16(24)13-10-11(19)8-9-15(13)21/h4-10H,1-3H3,(H,22,24)

>  <source>  (803) 
ChEMBL25

>  <source_id>  (803) 
25

>  <optional_reference>  (803) 
10.1016/j.bmc.2016.05.039

>  <optional_origin>  (803) 
None

>  <target>  (803) 
MDR1

$$$$

     RDKit          2D

 26 27  0  0  0  0  0  0  0  0999 V2000
    1.2990   -0.7500    0.0000 C   0  0  0  0  0  0  0  0  0  0  0  0
    2.5973   -1.5031    0.0000 C   0  0  0  0  0  0  0  0  0  0  0  0
    2.5951   -3.0039    0.0000 N   0  0  0  0  0  0  0  0  0  0  0  0
    3.8933   -3.7570    0.0000 N   0  0  0  0  0  0  0  0  0  0  0  0
    3.8912   -5.2578    0.0000 C   0  0  0  0  0  0  0  0  0  0  0  0
    5.1894   -6.0109    0.0000 C   0  0  0  0  0  0  0  0  0  0  0  0
    2.8509   -5.8560    0.0000 O   0  0  0  0  0  0  0  0  0  0  0  0
    3.6375   -0.9049    0.0000 O   0  0  0  0  0  0  0  0  0  0  0  0
    1.2956   -3.7547    0.0000 C   0  0  0  0  0  0  0  0  0  0  0  0
    1.2952   -4.9547    0.0000 C   0  0  0  0  0  0  0  0  0  0  0  0
    0.2563   -4.3546    0.0000 C   0  0  0  0  0  0  0  0  0  0  0  0
    0.2564   -3.1547    0.0000 C   0  0  0  0  0  0  0  0  0  0  0  0
    1.2990    0.7500    0.0000 C   0  0  0  0  0  0  0  0  0  0  0  0
    0.0000    1.5000    0.0000 C   0  0  0  0  0  0  0  0  0  0  0  0
   -1.2990    0.7500    0.0000 C   0  0  0  0  0  0  0  0  0  0  0  0
   -1.2990   -0.7500    0.0000 C   0  0  0  0  0  0  0  0  0  0  0  0
    0.0000   -1.5000    0.0000 C   0  0  0  0  0  0  0  0  0  0  0  0
    5.1895   -7.5109    0.0000 C   0  0  0  0  0  0  0  0  0  0  0  0
    6.4885   -8.2610    0.0000 C   0  0  0  0  0  0  0  0  0  0  0  0
    7.7875   -7.5110    0.0000 C   0  0  0  0  0  0  0  0  0  0  0  0
    7.7876   -6.0110    0.0000 C   0  0  0  0  0  0  0  0  0  0  0  0
    6.4885   -5.2610    0.0000 C   0  0  0  0  0  0  0  0  0  0  0  0
    2.3383    1.3500    0.0000 Cl  0  0  0  0  0  0  0  0  0  0  0  0
    9.0858   -5.2579    0.0000 N   0  0  0  0  0  0  0  0  0  0  0  0
    9.0841   -4.0579    0.0000 O   0  0  0  0  0  0  0  0  0  0  0  0
   10.1261   -5.8561    0.0000 O   0  0  0  0  0  0  0  0  0  0  0  0
  1  2  1  0
  2  3  1  0
  3  4  1  0
  4  5  1  0
  5  6  1  0
  5  7  2  0
  2  8  2  0
  3  9  1  0
  9 10  1  0
  9 11  1  0
  9 12  1  0
  1 13  2  0
 13 14  1  0
 14 15  2  0
 15 16  1  0
 16 17  2  0
 17  1  1  0
  6 18  2  0
 18 19  1  0
 19 20  2  0
 20 21  1  0
 21 22  2  0
 22  6  1  0
 13 23  1  0
 24 25  2  0
 24 26  1  0
 21 24  1  0
M  CHG  2  24   1  26  -1
M  END
>  <Classification>  (804) 
0

>  <pchembl>  (804) 
4.19

>  <InChI_steorem>  (804) 
InChI=1S/C18H18ClN3O4/c1-18(2,3)21(17(24)14-9-4-5-10-15(14)19)20-16(23)12-7-6-8-13(11-12)22(25)26/h4-11H,1-3H3,(H,20,23)

>  <source>  (804) 
ChEMBL25

>  <source_id>  (804) 
25

>  <optional_reference>  (804) 
10.1016/j.bmc.2016.05.039

>  <optional_origin>  (804) 
None

>  <target>  (804) 
MDR1

$$$$

     RDKit          2D

 27 28  0  0  0  0  0  0  0  0999 V2000
    1.2990   -0.7500    0.0000 C   0  0  0  0  0  0  0  0  0  0  0  0
    2.5973   -1.5031    0.0000 C   0  0  0  0  0  0  0  0  0  0  0  0
    2.5951   -3.0039    0.0000 N   0  0  0  0  0  0  0  0  0  0  0  0
    3.8933   -3.7570    0.0000 N   0  0  0  0  0  0  0  0  0  0  0  0
    3.8912   -5.2578    0.0000 C   0  0  0  0  0  0  0  0  0  0  0  0
    5.1894   -6.0109    0.0000 C   0  0  0  0  0  0  0  0  0  0  0  0
    2.8509   -5.8560    0.0000 O   0  0  0  0  0  0  0  0  0  0  0  0
    3.6375   -0.9049    0.0000 O   0  0  0  0  0  0  0  0  0  0  0  0
    1.2956   -3.7547    0.0000 C   0  0  0  0  0  0  0  0  0  0  0  0
    1.2952   -4.9547    0.0000 C   0  0  0  0  0  0  0  0  0  0  0  0
    0.2563   -4.3546    0.0000 C   0  0  0  0  0  0  0  0  0  0  0  0
    0.2564   -3.1547    0.0000 C   0  0  0  0  0  0  0  0  0  0  0  0
    1.2990    0.7500    0.0000 C   0  0  0  0  0  0  0  0  0  0  0  0
    0.0000    1.5000    0.0000 C   0  0  0  0  0  0  0  0  0  0  0  0
   -1.2990    0.7500    0.0000 C   0  0  0  0  0  0  0  0  0  0  0  0
   -1.2990   -0.7500    0.0000 C   0  0  0  0  0  0  0  0  0  0  0  0
    0.0000   -1.5000    0.0000 C   0  0  0  0  0  0  0  0  0  0  0  0
    5.1895   -7.5109    0.0000 C   0  0  0  0  0  0  0  0  0  0  0  0
    6.4885   -8.2610    0.0000 C   0  0  0  0  0  0  0  0  0  0  0  0
    7.7875   -7.5110    0.0000 C   0  0  0  0  0  0  0  0  0  0  0  0
    7.7876   -6.0110    0.0000 C   0  0  0  0  0  0  0  0  0  0  0  0
    6.4885   -5.2610    0.0000 C   0  0  0  0  0  0  0  0  0  0  0  0
    2.3383    1.3500    0.0000 Cl  0  0  0  0  0  0  0  0  0  0  0  0
    9.0873   -5.2606    0.0000 C   0  0  0  0  0  0  0  0  0  0  0  0
   10.1269   -5.8600    0.0000 F   0  0  0  0  0  0  0  0  0  0  0  0
    9.0870   -4.0606    0.0000 F   0  0  0  0  0  0  0  0  0  0  0  0
   10.1263   -4.6601    0.0000 F   0  0  0  0  0  0  0  0  0  0  0  0
  1  2  1  0
  2  3  1  0
  3  4  1  0
  4  5  1  0
  5  6  1  0
  5  7  2  0
  2  8  2  0
  3  9  1  0
  9 10  1  0
  9 11  1  0
  9 12  1  0
  1 13  2  0
 13 14  1  0
 14 15  2  0
 15 16  1  0
 16 17  2  0
 17  1  1  0
  6 18  2  0
 18 19  1  0
 19 20  2  0
 20 21  1  0
 21 22  2  0
 22  6  1  0
 13 23  1  0
 21 24  1  0
 24 25  1  0
 24 26  1  0
 24 27  1  0
M  END
>  <Classification>  (805) 
0

>  <pchembl>  (805) 
4.36

>  <InChI_steorem>  (805) 
InChI=1S/C19H18ClF3N2O2/c1-18(2,3)25(17(27)14-9-4-5-10-15(14)20)24-16(26)12-7-6-8-13(11-12)19(21,22)23/h4-11H,1-3H3,(H,24,26)

>  <source>  (805) 
ChEMBL25

>  <source_id>  (805) 
25

>  <optional_reference>  (805) 
10.1016/j.bmc.2016.05.039

>  <optional_origin>  (805) 
None

>  <target>  (805) 
MDR1

$$$$

     RDKit          2D

 29 31  0  0  0  0  0  0  0  0999 V2000
    1.2990   -0.7500    0.0000 C   0  0  0  0  0  0  0  0  0  0  0  0
    2.5973   -1.5031    0.0000 C   0  0  0  0  0  0  0  0  0  0  0  0
    2.5951   -3.0039    0.0000 N   0  0  0  0  0  0  0  0  0  0  0  0
    3.8933   -3.7570    0.0000 N   0  0  0  0  0  0  0  0  0  0  0  0
    3.8912   -5.2578    0.0000 C   0  0  0  0  0  0  0  0  0  0  0  0
    5.1894   -6.0109    0.0000 C   0  0  0  0  0  0  0  0  0  0  0  0
    2.8509   -5.8560    0.0000 O   0  0  0  0  0  0  0  0  0  0  0  0
    3.6375   -0.9049    0.0000 O   0  0  0  0  0  0  0  0  0  0  0  0
    1.2956   -3.7547    0.0000 C   0  0  0  0  0  0  0  0  0  0  0  0
    1.2952   -4.9547    0.0000 C   0  0  0  0  0  0  0  0  0  0  0  0
    0.2563   -4.3546    0.0000 C   0  0  0  0  0  0  0  0  0  0  0  0
    0.2564   -3.1547    0.0000 C   0  0  0  0  0  0  0  0  0  0  0  0
    1.2990    0.7500    0.0000 C   0  0  0  0  0  0  0  0  0  0  0  0
    0.0000    1.5000    0.0000 C   0  0  0  0  0  0  0  0  0  0  0  0
   -1.2990    0.7500    0.0000 C   0  0  0  0  0  0  0  0  0  0  0  0
   -1.2990   -0.7500    0.0000 C   0  0  0  0  0  0  0  0  0  0  0  0
    0.0000   -1.5000    0.0000 C   0  0  0  0  0  0  0  0  0  0  0  0
    6.4886   -5.2610    0.0000 C   0  0  0  0  0  0  0  0  0  0  0  0
    7.7876   -6.0110    0.0000 C   0  0  0  0  0  0  0  0  0  0  0  0
    7.7875   -7.5110    0.0000 C   0  0  0  0  0  0  0  0  0  0  0  0
    6.4885   -8.2610    0.0000 C   0  0  0  0  0  0  0  0  0  0  0  0
    5.1895   -7.5109    0.0000 C   0  0  0  0  0  0  0  0  0  0  0  0
    2.3383    1.3500    0.0000 Cl  0  0  0  0  0  0  0  0  0  0  0  0
    3.8898   -8.2613    0.0000 C   0  0  0  0  0  0  0  0  0  0  0  0
    2.5895   -7.5134    0.0000 C   0  0  0  0  0  0  0  0  0  0  0  0
    1.2916   -8.2654    0.0000 C   0  0  0  0  0  0  0  0  0  0  0  0
    1.2940   -9.7654    0.0000 C   0  0  0  0  0  0  0  0  0  0  0  0
    2.5942  -10.5134    0.0000 C   0  0  0  0  0  0  0  0  0  0  0  0
    3.8920   -9.7614    0.0000 C   0  0  0  0  0  0  0  0  0  0  0  0
  1  2  1  0
  2  3  1  0
  3  4  1  0
  4  5  1  0
  5  6  1  0
  5  7  2  0
  2  8  2  0
  3  9  1  0
  9 10  1  0
  9 11  1  0
  9 12  1  0
  1 13  2  0
 13 14  1  0
 14 15  2  0
 15 16  1  0
 16 17  2  0
 17  1  1  0
  6 18  2  0
 18 19  1  0
 19 20  2  0
 20 21  1  0
 21 22  2  0
 22  6  1  0
 13 23  1  0
 22 24  1  0
 24 25  2  0
 25 26  1  0
 26 27  2  0
 27 28  1  0
 28 29  2  0
 29 24  1  0
M  END
>  <Classification>  (806) 
0

>  <pchembl>  (806) 
4.9

>  <InChI_steorem>  (806) 
InChI=1S/C24H23ClN2O2/c1-24(2,3)27(23(29)20-15-9-10-16-21(20)25)26-22(28)19-14-8-7-13-18(19)17-11-5-4-6-12-17/h4-16H,1-3H3,(H,26,28)

>  <source>  (806) 
ChEMBL25

>  <source_id>  (806) 
25

>  <optional_reference>  (806) 
10.1016/j.bmc.2016.05.039

>  <optional_origin>  (806) 
None

>  <target>  (806) 
MDR1

$$$$

     RDKit          2D

 29 32  0  0  0  0  0  0  0  0999 V2000
   13.5664  -17.7557    0.0000 N   0  0  0  0  0  0  0  0  0  0  0  0
   13.0449  -17.1378    0.0000 N   0  0  0  0  0  0  0  0  0  0  0  0
   12.2774  -17.4859    0.0000 C   0  0  0  0  0  0  0  0  0  0  0  0
   12.3752  -18.2943    0.0000 C   0  0  0  0  0  0  0  0  0  0  0  0
   13.1571  -18.4644    0.0000 C   0  0  0  0  0  0  0  0  0  0  0  0
   13.5795  -19.1459    0.0000 C   0  0  0  0  0  0  0  0  0  0  0  0
   13.1797  -19.8665    0.0000 C   0  0  0  0  0  0  0  0  0  0  0  0
   13.5881  -20.5735    0.0000 C   0  0  0  0  0  0  0  0  0  0  0  0
   14.4215  -20.5736    0.0000 C   0  0  0  0  0  0  0  0  0  0  0  0
   14.8173  -19.8535    0.0000 C   0  0  0  0  0  0  0  0  0  0  0  0
   14.4088  -19.1465    0.0000 C   0  0  0  0  0  0  0  0  0  0  0  0
   15.6214  -19.8405    0.0000 O   0  0  0  0  0  0  0  0  0  0  0  0
   16.0645  -20.5365    0.0000 C   0  0  0  0  0  0  0  0  0  0  0  0
   14.8395  -21.2560    0.0000 O   0  0  0  0  0  0  0  0  0  0  0  0
   15.6688  -21.2566    0.0000 C   0  0  0  0  0  0  0  0  0  0  0  0
   13.1965  -21.2931    0.0000 I   0  0  0  0  0  0  0  0  0  0  0  0
   11.5687  -17.0766    0.0000 C   0  0  0  0  0  0  0  0  0  0  0  0
   10.8629  -17.4852    0.0000 C   0  0  0  0  0  0  0  0  0  0  0  0
   10.1542  -17.0760    0.0000 C   0  0  0  0  0  0  0  0  0  0  0  0
    9.4485  -17.4846    0.0000 C   0  0  0  0  0  0  0  0  0  0  0  0
    8.7398  -17.0753    0.0000 C   0  0  0  0  0  0  0  0  0  0  0  0
    8.7409  -16.2575    0.0000 C   0  0  0  0  0  0  0  0  0  0  0  0
    9.4508  -15.8488    0.0000 C   0  0  0  0  0  0  0  0  0  0  0  0
   10.1554  -16.2581    0.0000 C   0  0  0  0  0  0  0  0  0  0  0  0
   10.8653  -15.8495    0.0000 C   0  0  0  0  0  0  0  0  0  0  0  0
   11.5698  -16.2587    0.0000 C   0  0  0  0  0  0  0  0  0  0  0  0
   14.3789  -17.6579    0.0000 C   0  0  0  0  0  0  0  0  0  0  0  0
   14.8755  -18.3267    0.0000 O   0  0  0  0  0  0  0  0  0  0  0  0
   14.7181  -16.9120    0.0000 C   0  0  0  0  0  0  0  0  0  0  0  0
  1  2  1  0
  2  3  2  0
  3  4  1  0
  4  5  1  0
  1  5  1  0
  5  6  1  0
  6  7  2  0
  7  8  1  0
  8  9  2  0
  9 10  1  0
 10 11  2  0
  6 11  1  0
 10 12  1  0
 12 13  1  0
  9 14  1  0
 14 15  1  0
  8 16  1  0
  3 17  1  0
 18 17  2  0
 18 19  1  0
 20 19  2  0
 21 20  1  0
 22 21  2  0
 23 22  1  0
 24 23  2  0
 24 19  1  0
 25 24  1  0
 26 25  2  0
 17 26  1  0
  1 27  1  0
 27 28  2  0
 27 29  1  0
M  END
>  <Classification>  (807) 
0

>  <pchembl>  (807) 
4.79

>  <InChI_steorem>  (807) 
InChI=1S/C23H21IN2O3/c1-14(27)26-21(18-11-19(24)23(29-3)22(12-18)28-2)13-20(25-26)17-9-8-15-6-4-5-7-16(15)10-17/h4-12,21H,13H2,1-3H3

>  <source>  (807) 
ChEMBL25

>  <source_id>  (807) 
25

>  <optional_reference>  (807) 
10.1016/j.bmcl.2016.09.076

>  <optional_origin>  (807) 
None

>  <target>  (807) 
MDR1

$$$$

     RDKit          2D

 31 35  0  0  0  0  0  0  0  0999 V2000
   -3.4277   -1.5498    0.0000 C   0  0  0  0  0  0  0  0  0  0  0  0
   -3.4277    0.0000    0.0000 C   0  0  0  0  0  0  0  0  0  0  0  0
   -2.1332    0.6928    0.0000 C   0  0  0  0  0  0  0  0  0  0  0  0
   -0.8205    0.0000    0.0000 C   0  0  0  0  0  0  0  0  0  0  0  0
    0.4558    0.6928    0.0000 C   0  0  0  0  0  0  0  0  0  0  0  0
    1.7503    0.0000    0.0000 C   0  0  0  0  0  0  0  0  0  0  0  0
    1.7503   -1.5498    0.0000 C   0  0  0  0  0  0  0  0  0  0  0  0
    0.4558   -2.2973    0.0000 C   0  0  0  0  0  0  0  0  0  0  0  0
   -0.8205   -1.5498    0.0000 C   0  0  0  0  0  0  0  0  0  0  0  0
   -2.1332   -2.2973    0.0000 O   0  0  0  0  0  0  0  0  0  0  0  0
    3.0631    0.6928    0.0000 C   0  0  0  0  0  0  0  0  0  0  0  0
    3.0631    2.1879    0.0000 C   0  0  0  0  0  0  0  0  0  0  0  0
    1.7503    2.9537    0.0000 C   0  0  0  0  0  0  0  0  0  0  0  0
    0.4558    2.1879    0.0000 O   0  0  0  0  0  0  0  0  0  0  0  0
    4.0907    0.0732    0.0000 O   0  0  0  0  0  0  0  0  0  0  0  0
   -2.1367    1.8928    0.0000 O   0  0  0  0  0  0  0  0  0  0  0  0
   -4.7151    0.7712    0.0000 C   0  0  0  0  0  0  0  0  0  0  0  0
   -4.7108    2.2704    0.0000 C   0  0  0  0  0  0  0  0  0  0  0  0
   -7.3089    2.2778    0.0000 C   0  0  0  0  0  0  0  0  0  0  0  0
   -6.0162    0.0241    0.0000 C   0  0  0  0  0  0  0  0  0  0  0  0
   -6.0077    3.0241    0.0000 C   0  0  0  0  0  0  0  0  0  0  0  0
   -7.3131    0.7778    0.0000 C   0  0  0  0  0  0  0  0  0  0  0  0
    4.3644    2.9354    0.0000 C   0  0  0  0  0  0  0  0  0  0  0  0
    4.3679    4.4355    0.0000 C   0  0  0  0  0  0  0  0  0  0  0  0
    6.9660    4.4297    0.0000 C   0  0  0  0  0  0  0  0  0  0  0  0
    5.6619    2.1826    0.0000 C   0  0  0  0  0  0  0  0  0  0  0  0
    5.6686    5.1826    0.0000 C   0  0  0  0  0  0  0  0  0  0  0  0
    6.9626    2.9297    0.0000 C   0  0  0  0  0  0  0  0  0  0  0  0
    2.7896   -2.1497    0.0000 O   0  0  0  0  0  0  0  0  0  0  0  0
   -6.0043    4.2241    0.0000 C   0  0  0  0  0  0  0  0  0  0  0  0
    5.6713    6.3826    0.0000 C   0  0  0  0  0  0  0  0  0  0  0  0
  1  2  2  0
  2  3  1  0
  3  4  1  0
  4  5  2  0
  5  6  1  0
  6  7  2  0
  7  8  1  0
  8  9  2  0
  4  9  1  0
  9 10  1  0
  1 10  1  0
 11 12  1  0
 12 13  2  0
 13 14  1  0
  5 14  1  0
  6 11  1  0
 11 15  2  0
  3 16  2  0
 17 18  2  0
 17 20  1  0
 18 21  1  0
 19 21  2  0
 19 22  1  0
 20 22  2  0
  2 17  1  0
 23 24  2  0
 23 26  1  0
 24 27  1  0
 25 27  2  0
 25 28  1  0
 26 28  2  0
 12 23  1  0
  7 29  1  0
 21 30  1  0
 27 31  1  0
M  END
>  <Classification>  (808) 
1

>  <pchembl>  (808) 
7.22

>  <InChI_steorem>  (808) 
InChI=1S/C26H18O5/c1-14-5-3-7-16(9-14)18-12-30-21-11-20(27)22-24(28)19(17-8-4-6-15(2)10-17)13-31-26(22)23(21)25(18)29/h3-13,27H,1-2H3

>  <source>  (808) 
ChEMBL25

>  <source_id>  (808) 
25

>  <optional_reference>  (808) 
10.1016/j.ejmech.2016.03.070

>  <optional_origin>  (808) 
None

>  <target>  (808) 
MDR1

$$$$

     RDKit          2D

 33 37  0  0  0  0  0  0  0  0999 V2000
   -3.4277   -1.5498    0.0000 C   0  0  0  0  0  0  0  0  0  0  0  0
   -3.4277    0.0000    0.0000 C   0  0  0  0  0  0  0  0  0  0  0  0
   -2.1332    0.6928    0.0000 C   0  0  0  0  0  0  0  0  0  0  0  0
   -0.8205    0.0000    0.0000 C   0  0  0  0  0  0  0  0  0  0  0  0
    0.4558    0.6928    0.0000 C   0  0  0  0  0  0  0  0  0  0  0  0
    1.7503    0.0000    0.0000 C   0  0  0  0  0  0  0  0  0  0  0  0
    1.7503   -1.5498    0.0000 C   0  0  0  0  0  0  0  0  0  0  0  0
    0.4558   -2.2973    0.0000 C   0  0  0  0  0  0  0  0  0  0  0  0
   -0.8205   -1.5498    0.0000 C   0  0  0  0  0  0  0  0  0  0  0  0
   -2.1332   -2.2973    0.0000 O   0  0  0  0  0  0  0  0  0  0  0  0
    3.0631    0.6928    0.0000 C   0  0  0  0  0  0  0  0  0  0  0  0
    3.0631    2.1879    0.0000 C   0  0  0  0  0  0  0  0  0  0  0  0
    1.7503    2.9537    0.0000 C   0  0  0  0  0  0  0  0  0  0  0  0
    0.4558    2.1879    0.0000 O   0  0  0  0  0  0  0  0  0  0  0  0
    4.0907    0.0732    0.0000 O   0  0  0  0  0  0  0  0  0  0  0  0
   -2.1367    1.8928    0.0000 O   0  0  0  0  0  0  0  0  0  0  0  0
   -4.7151    0.7712    0.0000 C   0  0  0  0  0  0  0  0  0  0  0  0
   -4.7108    2.2704    0.0000 C   0  0  0  0  0  0  0  0  0  0  0  0
   -7.3089    2.2778    0.0000 C   0  0  0  0  0  0  0  0  0  0  0  0
   -6.0162    0.0241    0.0000 C   0  0  0  0  0  0  0  0  0  0  0  0
   -6.0077    3.0241    0.0000 C   0  0  0  0  0  0  0  0  0  0  0  0
   -7.3131    0.7778    0.0000 C   0  0  0  0  0  0  0  0  0  0  0  0
    4.3644    2.9354    0.0000 C   0  0  0  0  0  0  0  0  0  0  0  0
    4.3679    4.4355    0.0000 C   0  0  0  0  0  0  0  0  0  0  0  0
    6.9660    4.4297    0.0000 C   0  0  0  0  0  0  0  0  0  0  0  0
    5.6619    2.1826    0.0000 C   0  0  0  0  0  0  0  0  0  0  0  0
    5.6686    5.1826    0.0000 C   0  0  0  0  0  0  0  0  0  0  0  0
    6.9626    2.9297    0.0000 C   0  0  0  0  0  0  0  0  0  0  0  0
    2.7896   -2.1497    0.0000 O   0  0  0  0  0  0  0  0  0  0  0  0
   -8.6081    3.0292    0.0000 O   0  0  0  0  0  0  0  0  0  0  0  0
   -9.6481    2.4307    0.0000 C   0  0  0  0  0  0  0  0  0  0  0  0
    8.2690    5.1745    0.0000 O   0  0  0  0  0  0  0  0  0  0  0  0
    9.3060    4.5707    0.0000 C   0  0  0  0  0  0  0  0  0  0  0  0
  1  2  2  0
  2  3  1  0
  3  4  1  0
  4  5  2  0
  5  6  1  0
  6  7  2  0
  7  8  1  0
  8  9  2  0
  4  9  1  0
  9 10  1  0
  1 10  1  0
 11 12  1  0
 12 13  2  0
 13 14  1  0
  5 14  1  0
  6 11  1  0
 11 15  2  0
  3 16  2  0
 17 18  2  0
 17 20  1  0
 18 21  1  0
 19 21  2  0
 19 22  1  0
 20 22  2  0
  2 17  1  0
 23 24  2  0
 23 26  1  0
 24 27  1  0
 25 27  2  0
 25 28  1  0
 26 28  2  0
 12 23  1  0
  7 29  1  0
 30 31  1  0
 19 30  1  0
 32 33  1  0
 25 32  1  0
M  END
>  <Classification>  (809) 
1

>  <pchembl>  (809) 
6.52

>  <InChI_steorem>  (809) 
InChI=1S/C26H18O7/c1-30-16-7-3-14(4-8-16)18-12-32-21-11-20(27)22-24(28)19(13-33-26(22)23(21)25(18)29)15-5-9-17(31-2)10-6-15/h3-13,27H,1-2H3

>  <source>  (809) 
ChEMBL25

>  <source_id>  (809) 
25

>  <optional_reference>  (809) 
10.1016/j.ejmech.2016.03.070

>  <optional_origin>  (809) 
None

>  <target>  (809) 
MDR1

$$$$

     RDKit          2D

 37 41  0  0  0  0  0  0  0  0999 V2000
   -3.4277   -1.5498    0.0000 C   0  0  0  0  0  0  0  0  0  0  0  0
   -3.4277    0.0000    0.0000 C   0  0  0  0  0  0  0  0  0  0  0  0
   -2.1332    0.6928    0.0000 C   0  0  0  0  0  0  0  0  0  0  0  0
   -0.8205    0.0000    0.0000 C   0  0  0  0  0  0  0  0  0  0  0  0
    0.4558    0.6928    0.0000 C   0  0  0  0  0  0  0  0  0  0  0  0
    1.7503    0.0000    0.0000 C   0  0  0  0  0  0  0  0  0  0  0  0
    1.7503   -1.5498    0.0000 C   0  0  0  0  0  0  0  0  0  0  0  0
    0.4558   -2.2973    0.0000 C   0  0  0  0  0  0  0  0  0  0  0  0
   -0.8205   -1.5498    0.0000 C   0  0  0  0  0  0  0  0  0  0  0  0
   -2.1332   -2.2973    0.0000 O   0  0  0  0  0  0  0  0  0  0  0  0
    3.0631    0.6928    0.0000 C   0  0  0  0  0  0  0  0  0  0  0  0
    3.0631    2.1879    0.0000 C   0  0  0  0  0  0  0  0  0  0  0  0
    1.7503    2.9537    0.0000 C   0  0  0  0  0  0  0  0  0  0  0  0
    0.4558    2.1879    0.0000 O   0  0  0  0  0  0  0  0  0  0  0  0
    4.0907    0.0732    0.0000 O   0  0  0  0  0  0  0  0  0  0  0  0
   -2.1367    1.8928    0.0000 O   0  0  0  0  0  0  0  0  0  0  0  0
   -4.7151    0.7712    0.0000 C   0  0  0  0  0  0  0  0  0  0  0  0
   -4.7108    2.2704    0.0000 C   0  0  0  0  0  0  0  0  0  0  0  0
   -7.3089    2.2778    0.0000 C   0  0  0  0  0  0  0  0  0  0  0  0
   -6.0162    0.0241    0.0000 C   0  0  0  0  0  0  0  0  0  0  0  0
   -6.0077    3.0241    0.0000 C   0  0  0  0  0  0  0  0  0  0  0  0
   -7.3131    0.7778    0.0000 C   0  0  0  0  0  0  0  0  0  0  0  0
    4.3644    2.9354    0.0000 C   0  0  0  0  0  0  0  0  0  0  0  0
    4.3679    4.4355    0.0000 C   0  0  0  0  0  0  0  0  0  0  0  0
    6.9660    4.4297    0.0000 C   0  0  0  0  0  0  0  0  0  0  0  0
    5.6619    2.1826    0.0000 C   0  0  0  0  0  0  0  0  0  0  0  0
    5.6686    5.1826    0.0000 C   0  0  0  0  0  0  0  0  0  0  0  0
    6.9626    2.9297    0.0000 C   0  0  0  0  0  0  0  0  0  0  0  0
    2.7896   -2.1497    0.0000 O   0  0  0  0  0  0  0  0  0  0  0  0
   -8.6135    0.0284    0.0000 O   0  0  0  0  0  0  0  0  0  0  0  0
   -8.6152   -1.1716    0.0000 C   0  0  0  0  0  0  0  0  0  0  0  0
    8.2591    2.1737    0.0000 O   0  0  0  0  0  0  0  0  0  0  0  0
    8.2547    0.9737    0.0000 C   0  0  0  0  0  0  0  0  0  0  0  0
    8.2659    5.1798    0.0000 O   0  0  0  0  0  0  0  0  0  0  0  0
    8.2669    6.3798    0.0000 C   0  0  0  0  0  0  0  0  0  0  0  0
   -8.6050    3.0345    0.0000 O   0  0  0  0  0  0  0  0  0  0  0  0
   -8.5999    4.2345    0.0000 C   0  0  0  0  0  0  0  0  0  0  0  0
  1  2  2  0
  2  3  1  0
  3  4  1  0
  4  5  2  0
  5  6  1  0
  6  7  2  0
  7  8  1  0
  8  9  2  0
  4  9  1  0
  9 10  1  0
  1 10  1  0
 11 12  1  0
 12 13  2  0
 13 14  1  0
  5 14  1  0
  6 11  1  0
 11 15  2  0
  3 16  2  0
 17 18  2  0
 17 20  1  0
 18 21  1  0
 19 21  2  0
 19 22  1  0
 20 22  2  0
  2 17  1  0
 23 24  2  0
 23 26  1  0
 24 27  1  0
 25 27  2  0
 25 28  1  0
 26 28  2  0
 12 23  1  0
  7 29  1  0
 30 31  1  0
 22 30  1  0
 32 33  1  0
 28 32  1  0
 34 35  1  0
 25 34  1  0
 36 37  1  0
 19 36  1  0
M  END
>  <Classification>  (810) 
1

>  <pchembl>  (810) 
7.14

>  <InChI_steorem>  (810) 
InChI=1S/C28H22O9/c1-32-19-7-5-14(9-21(19)34-3)16-12-36-23-11-18(29)24-26(30)17(13-37-28(24)25(23)27(16)31)15-6-8-20(33-2)22(10-15)35-4/h5-13,29H,1-4H3

>  <source>  (810) 
ChEMBL25

>  <source_id>  (810) 
25

>  <optional_reference>  (810) 
10.1016/j.ejmech.2016.03.070

>  <optional_origin>  (810) 
None

>  <target>  (810) 
MDR1

$$$$

     RDKit          2D

 29 32  0  0  0  0  0  0  0  0999 V2000
   13.5664  -17.7557    0.0000 N   0  0  0  0  0  0  0  0  0  0  0  0
   13.0449  -17.1378    0.0000 N   0  0  0  0  0  0  0  0  0  0  0  0
   12.2774  -17.4859    0.0000 C   0  0  0  0  0  0  0  0  0  0  0  0
   12.3752  -18.2943    0.0000 C   0  0  0  0  0  0  0  0  0  0  0  0
   13.1571  -18.4644    0.0000 C   0  0  0  0  0  0  0  0  0  0  0  0
   13.5795  -19.1459    0.0000 C   0  0  0  0  0  0  0  0  0  0  0  0
   13.1797  -19.8665    0.0000 C   0  0  0  0  0  0  0  0  0  0  0  0
   13.5881  -20.5735    0.0000 C   0  0  0  0  0  0  0  0  0  0  0  0
   14.4215  -20.5736    0.0000 C   0  0  0  0  0  0  0  0  0  0  0  0
   14.8173  -19.8535    0.0000 C   0  0  0  0  0  0  0  0  0  0  0  0
   14.4088  -19.1465    0.0000 C   0  0  0  0  0  0  0  0  0  0  0  0
   15.6214  -19.8405    0.0000 O   0  0  0  0  0  0  0  0  0  0  0  0
   16.0645  -20.5365    0.0000 C   0  0  0  0  0  0  0  0  0  0  0  0
   14.8395  -21.2560    0.0000 O   0  0  0  0  0  0  0  0  0  0  0  0
   15.6688  -21.2566    0.0000 C   0  0  0  0  0  0  0  0  0  0  0  0
   13.1965  -21.2931    0.0000 Br  0  0  0  0  0  0  0  0  0  0  0  0
   11.5687  -17.0766    0.0000 C   0  0  0  0  0  0  0  0  0  0  0  0
   10.8629  -17.4852    0.0000 C   0  0  0  0  0  0  0  0  0  0  0  0
   10.1542  -17.0760    0.0000 C   0  0  0  0  0  0  0  0  0  0  0  0
    9.4485  -17.4846    0.0000 C   0  0  0  0  0  0  0  0  0  0  0  0
    8.7398  -17.0753    0.0000 C   0  0  0  0  0  0  0  0  0  0  0  0
    8.7409  -16.2575    0.0000 C   0  0  0  0  0  0  0  0  0  0  0  0
    9.4508  -15.8488    0.0000 C   0  0  0  0  0  0  0  0  0  0  0  0
   10.1554  -16.2581    0.0000 C   0  0  0  0  0  0  0  0  0  0  0  0
   10.8653  -15.8495    0.0000 C   0  0  0  0  0  0  0  0  0  0  0  0
   11.5698  -16.2587    0.0000 C   0  0  0  0  0  0  0  0  0  0  0  0
   14.3789  -17.6579    0.0000 C   0  0  0  0  0  0  0  0  0  0  0  0
   14.8755  -18.3267    0.0000 O   0  0  0  0  0  0  0  0  0  0  0  0
   14.7181  -16.9120    0.0000 C   0  0  0  0  0  0  0  0  0  0  0  0
  1  2  1  0
  2  3  2  0
  3  4  1  0
  4  5  1  0
  1  5  1  0
  5  6  1  0
  6  7  2  0
  7  8  1  0
  8  9  2  0
  9 10  1  0
 10 11  2  0
  6 11  1  0
 10 12  1  0
 12 13  1  0
  9 14  1  0
 14 15  1  0
  8 16  1  0
  3 17  1  0
 18 17  2  0
 18 19  1  0
 20 19  2  0
 21 20  1  0
 22 21  2  0
 23 22  1  0
 24 23  2  0
 24 19  1  0
 25 24  1  0
 26 25  2  0
 17 26  1  0
  1 27  1  0
 27 28  2  0
 27 29  1  0
M  END
>  <Classification>  (811) 
0

>  <pchembl>  (811) 
4.9

>  <InChI_steorem>  (811) 
InChI=1S/C23H21BrN2O3/c1-14(27)26-21(18-11-19(24)23(29-3)22(12-18)28-2)13-20(25-26)17-9-8-15-6-4-5-7-16(15)10-17/h4-12,21H,13H2,1-3H3

>  <source>  (811) 
ChEMBL25

>  <source_id>  (811) 
25

>  <optional_reference>  (811) 
10.1016/j.bmcl.2016.09.076

>  <optional_origin>  (811) 
None

>  <target>  (811) 
MDR1

$$$$

     RDKit          2D

 62 68  0  0  0  0  0  0  0  0999 V2000
   17.1477    0.3762    0.0000 C   0  0  0  0  0  0  0  0  0  0  0  0
   16.4108   -0.0650    0.0000 C   0  0  0  0  0  0  0  0  0  0  0  0
   16.4108   -0.8891    0.0000 C   0  0  0  0  0  0  0  0  0  0  0  0
   17.1332    1.2244    0.0000 C   0  0  0  0  0  0  0  0  0  0  0  0
   17.8264   -0.0214    0.0000 C   0  0  0  0  0  0  0  0  0  0  0  0
   18.5923    3.6871    0.0000 C   0  0  0  0  0  0  0  0  0  0  0  0
   17.8264   -0.8891    0.0000 C   0  0  0  0  0  0  0  0  0  0  0  0
   15.6158   -1.1752    0.0000 O   0  0  0  0  0  0  0  0  0  0  0  0
   15.6158    0.1677    0.0000 C   0  0  0  0  0  0  0  0  0  0  0  0
   11.1123    3.7744    0.0000 C   0  0  0  0  0  0  0  0  0  0  0  0
   17.1477   -1.2866    0.0000 C   0  0  0  0  0  0  0  0  0  0  0  0
   19.3437    3.2508    0.0000 O   0  0  0  0  0  0  0  0  0  0  0  0
    9.5804    3.3526    0.0000 C   0  0  0  0  0  0  0  0  0  0  0  0
   12.7654    3.7744    0.0000 C   0  0  0  0  0  0  0  0  0  0  0  0
   17.8264    1.6025    0.0000 O   0  0  0  0  0  0  0  0  0  0  0  0
   12.3533    4.4870    0.0000 O   0  0  0  0  0  0  0  0  0  0  0  0
    9.1732    4.0652    0.0000 O   0  0  0  0  0  0  0  0  0  0  0  0
   12.3533    3.0618    0.0000 C   0  0  0  0  0  0  0  0  0  0  0  0
    9.1732    2.6400    0.0000 C   0  0  0  0  0  0  0  0  0  0  0  0
   11.5292    3.0618    0.0000 C   0  0  0  0  0  0  0  0  0  0  0  0
    7.9322    3.3526    0.0000 C   0  0  0  0  0  0  0  0  0  0  0  0
   14.2391    3.7404    0.0000 C   0  0  0  0  0  0  0  0  0  0  0  0
   11.5292    4.4870    0.0000 C   0  0  0  0  0  0  0  0  0  0  0  0
   18.5923    2.8485    0.0000 C   0  0  0  0  0  0  0  0  0  0  0  0
   17.8506    4.0992    0.0000 O   0  0  0  0  0  0  0  0  0  0  0  0
    8.3491    2.6400    0.0000 C   0  0  0  0  0  0  0  0  0  0  0  0
   19.9788    3.6677    0.0000 C   0  0  0  0  0  0  0  0  0  0  0  0
   17.8264    2.4413    0.0000 C   0  0  0  0  0  0  0  0  0  0  0  0
    8.3491    4.0652    0.0000 C   0  0  0  0  0  0  0  0  0  0  0  0
   14.9808    4.1476    0.0000 C   0  0  0  0  0  0  0  0  0  0  0  0
   10.2930    3.7695    0.0000 O   0  0  0  0  0  0  0  0  0  0  0  0
   13.4731    4.1912    0.0000 O   0  0  0  0  0  0  0  0  0  0  0  0
   15.6982    3.7404    0.0000 C   0  0  0  0  0  0  0  0  0  0  0  0
   15.1408   -0.4480    0.0000 C   0  0  0  0  0  0  0  0  0  0  0  0
   15.6158    1.0063    0.0000 C   0  0  0  0  0  0  0  0  0  0  0  0
   16.4108    1.6462    0.0000 O   0  0  0  0  0  0  0  0  0  0  0  0
   15.0632    1.4135    0.0000 C   0  0  0  0  0  0  0  0  0  0  0  0
   17.1477    2.8581    0.0000 C   0  0  0  0  0  0  0  0  0  0  0  0
   17.1477    3.7258    0.0000 C   0  0  0  0  0  0  0  0  0  0  0  0
   14.2391    2.8485    0.0000 C   0  0  0  0  0  0  0  0  0  0  0  0
   19.9788    4.4482    0.0000 C   0  0  0  0  0  0  0  0  0  0  0  0
   15.0632    2.3104    0.0000 C   0  0  0  0  0  0  0  0  0  0  0  0
   16.4253    0.7736    0.0000 O   0  0  0  0  0  0  0  0  0  0  0  0
   18.6020    4.4482    0.0000 C   0  0  0  0  0  0  0  0  0  0  0  0
   19.3437    4.8651    0.0000 C   0  0  0  0  0  0  0  0  0  0  0  0
   16.4253    4.1476    0.0000 C   0  0  0  0  0  0  0  0  0  0  0  0
   20.6332    3.2896    0.0000 C   0  0  0  0  0  0  0  0  0  0  0  0
   17.1623   -2.1107    0.0000 O   0  0  0  0  0  0  0  0  0  0  0  0
    7.1081    3.3526    0.0000 O   0  0  0  0  0  0  0  0  0  0  0  0
   11.1171    2.3491    0.0000 O   0  0  0  0  0  0  0  0  0  0  0  0
    7.9370    1.9274    0.0000 O   0  0  0  0  0  0  0  0  0  0  0  0
   18.5244   -1.3206    0.0000 C   0  0  0  0  0  0  0  0  0  0  0  0
   14.9808    4.9669    0.0000 C   0  0  0  0  0  0  0  0  0  0  0  0
   11.1171    5.1996    0.0000 C   0  0  0  0  0  0  0  0  0  0  0  0
    7.9370    4.7827    0.0000 C   0  0  0  0  0  0  0  0  0  0  0  0
   13.5216    2.4413    0.0000 C   0  0  0  0  0  0  0  0  0  0  0  0
   20.6768    4.8796    0.0000 C   0  0  0  0  0  0  0  0  0  0  0  0
   20.6332    2.5333    0.0000 C   0  0  0  0  0  0  0  0  0  0  0  0
   21.2876    3.6677    0.0000 C   0  0  0  0  0  0  0  0  0  0  0  0
   11.5341    1.6365    0.0000 C   0  0  0  0  0  0  0  0  0  0  0  0
    8.3491    1.2148    0.0000 C   0  0  0  0  0  0  0  0  0  0  0  0
   21.2876    2.1552    0.0000 C   0  0  0  0  0  0  0  0  0  0  0  0
  2  1  1  0
  3  2  1  0
  1  4  1  0
  5  1  1  0
  6 24  1  0
  7  5  2  0
  8  3  1  0
  9  2  1  0
 10 23  1  0
 11  7  1  0
  6 12  1  0
 13 31  1  0
 14 32  1  0
 15  4  1  0
 16 14  1  0
 17 13  1  0
 18 14  1  0
 19 13  1  0
 20 18  1  0
 21 29  1  0
 22 40  1  0
 23 16  1  0
 24 28  1  0
 25  6  1  0
 26 19  1  0
 27 12  1  0
 28 15  1  0
 29 17  1  0
 30 33  2  0
 10 31  1  0
 22 32  1  0
 33 46  1  0
 34  9  1  0
 35  9  2  0
 36  4  2  0
 37 35  1  0
 38 28  1  0
 39 38  1  0
 40 42  1  0
 41 27  1  0
 42 37  2  0
  2 43  1  0
  6 44  1  0
 45 44  1  0
 39 46  1  0
 47 27  1  0
 11 48  1  0
 21 49  1  0
 20 50  1  0
 26 51  1  0
 52  7  1  0
 53 30  1  0
 23 54  1  0
 29 55  1  0
 40 56  1  0
 41 57  1  0
 47 58  1  0
 47 59  1  0
 60 50  1  0
 61 51  1  0
 62 58  1  0
 11  3  1  0
 34  8  1  0
 39 25  1  0
 45 41  1  0
 30 22  1  0
 10 20  1  0
 21 26  1  0
M  END
>  <Classification>  (812) 
1

>  <pchembl>  (812) 
7.0

>  <InChI_steorem>  (812) 
InChI=1S/C48H74O14/c1-11-25(2)43-28(5)17-18-47(62-43)23-34-20-33(61-47)16-15-27(4)42(26(3)13-12-14-32-24-55-45-40(49)29(6)19-35(46(51)58-34)48(32,45)52)59-39-22-37(54-10)44(31(8)57-39)60-38-21-36(53-9)41(50)30(7)56-38/h12-15,19,25-26,28,30-31,33-45,49-50,52H,11,16-18,20-24H2,1-10H3

>  <source>  (812) 
ChEMBL25

>  <source_id>  (812) 
25

>  <optional_reference>  (812) 
10.1021/jm021012t

>  <optional_origin>  (812) 
None

>  <target>  (812) 
MDR1

$$$$

     RDKit          2D

 23 24  0  0  0  0  0  0  0  0999 V2000
    9.5417   -4.2417    0.0000 C   0  0  0  0  0  0  0  0  0  0  0  0
   10.2542   -4.6542    0.0000 C   0  0  0  0  0  0  0  0  0  0  0  0
    8.8250   -4.6542    0.0000 C   0  0  0  0  0  0  0  0  0  0  0  0
    6.6833   -6.7167    0.0000 C   0  0  0  0  0  0  0  0  0  0  0  0
    9.5417   -6.7167    0.0000 C   0  0  0  0  0  0  0  0  0  0  0  0
    8.8250   -7.1292    0.0000 C   0  0  0  0  0  0  0  0  0  0  0  0
    9.5417   -5.8917    0.0000 C   0  0  0  0  0  0  0  0  0  0  0  0
    8.8250   -5.4792    0.0000 C   0  0  0  0  0  0  0  0  0  0  0  0
   10.2542   -5.4792    0.0000 C   0  0  0  0  0  0  0  0  0  0  0  0
    6.6833   -5.8917    0.0000 C   0  0  0  0  0  0  0  0  0  0  0  0
    7.3958   -7.1292    0.0000 C   0  0  0  0  0  0  0  0  0  0  0  0
    8.1125   -6.7167    0.0000 C   0  0  0  0  0  0  0  0  0  0  0  0
    7.3958   -5.4792    0.0000 C   0  0  0  0  0  0  0  0  0  0  0  0
    9.5417   -3.4167    0.0000 O   0  0  0  0  0  0  0  0  0  0  0  0
    8.1125   -4.2417    0.0000 O   0  0  0  0  0  0  0  0  0  0  0  0
   10.9708   -4.2417    0.0000 O   0  0  0  0  0  0  0  0  0  0  0  0
    5.9667   -7.1292    0.0000 O   0  0  0  0  0  0  0  0  0  0  0  0
    8.1125   -5.8917    0.0000 C   0  0  0  0  0  0  0  0  0  0  0  0
    5.9667   -5.4792    0.0000 O   0  0  0  0  0  0  0  0  0  0  0  0
    8.8250   -3.0042    0.0000 C   0  0  0  0  0  0  0  0  0  0  0  0
   11.6833   -4.6542    0.0000 C   0  0  0  0  0  0  0  0  0  0  0  0
    7.3958   -4.6542    0.0000 C   0  0  0  0  0  0  0  0  0  0  0  0
    5.2542   -5.8917    0.0000 C   0  0  0  0  0  0  0  0  0  0  0  0
  2  1  2  0
  3  1  1  0
  4 11  2  0
  5  7  1  0
  6  5  2  3
  7  8  1  0
  8  3  2  0
  9  2  1  0
 10 13  2  0
 11 12  1  0
 12  6  1  0
 13 18  1  0
 14  1  1  0
 15  3  1  0
 16  2  1  0
 17  4  1  0
 18 12  2  0
 19 10  1  0
 20 14  1  0
 21 16  1  0
 22 15  1  0
 23 19  1  0
  9  7  2  0
 10  4  1  0
M  END
>  <Classification>  (813) 
1

>  <pchembl>  (813) 
7.94

>  <InChI_steorem>  (813) 
InChI=1S/C18H20O5/c1-20-15-8-7-12(9-14(15)19)5-6-13-10-16(21-2)18(23-4)17(11-13)22-3/h5-11,19H,1-4H3

>  <source>  (813) 
ChEMBL25

>  <source_id>  (813) 
25

>  <optional_reference>  (813) 
10.1016/j.bmc.2012.12.010

>  <optional_origin>  (813) 
None

>  <target>  (813) 
MDR1

$$$$

     RDKit          2D

 24 26  0  0  0  0  0  0  0  0999 V2000
   24.4195   -3.0781    0.0000 C   0  0  0  0  0  0  0  0  0  0  0  0
   24.4184   -3.9052    0.0000 C   0  0  0  0  0  0  0  0  0  0  0  0
   25.1330   -4.3179    0.0000 C   0  0  0  0  0  0  0  0  0  0  0  0
   25.1311   -2.6654    0.0000 C   0  0  0  0  0  0  0  0  0  0  0  0
   25.8464   -3.0745    0.0000 C   0  0  0  0  0  0  0  0  0  0  0  0
   25.8512   -3.9052    0.0000 C   0  0  0  0  0  0  0  0  0  0  0  0
   26.6429   -4.1574    0.0000 C   0  0  0  0  0  0  0  0  0  0  0  0
   27.1273   -3.4823    0.0000 C   0  0  0  0  0  0  0  0  0  0  0  0
   26.6349   -2.8132    0.0000 C   0  0  0  0  0  0  0  0  0  0  0  0
   26.9022   -4.9402    0.0000 O   0  0  0  0  0  0  0  0  0  0  0  0
   27.9519   -3.4775    0.0000 C   0  0  0  0  0  0  0  0  0  0  0  0
   28.3600   -2.7608    0.0000 C   0  0  0  0  0  0  0  0  0  0  0  0
   29.1825   -2.7575    0.0000 C   0  0  0  0  0  0  0  0  0  0  0  0
   29.5906   -2.0416    0.0000 C   0  0  0  0  0  0  0  0  0  0  0  0
   29.1739   -1.3289    0.0000 C   0  0  0  0  0  0  0  0  0  0  0  0
   28.3450   -1.3364    0.0000 C   0  0  0  0  0  0  0  0  0  0  0  0
   27.9406   -2.0529    0.0000 C   0  0  0  0  0  0  0  0  0  0  0  0
   23.7052   -2.6660    0.0000 O   0  0  0  0  0  0  0  0  0  0  0  0
   23.7038   -4.3170    0.0000 O   0  0  0  0  0  0  0  0  0  0  0  0
   23.7050   -1.8412    0.0000 C   0  0  0  0  0  0  0  0  0  0  0  0
   23.7032   -5.1417    0.0000 C   0  0  0  0  0  0  0  0  0  0  0  0
   29.5811   -0.6117    0.0000 N   0  0  0  0  0  0  0  0  0  0  0  0
   30.4058   -0.6057    0.0000 C   0  0  0  0  0  0  0  0  0  0  0  0
   29.1636    0.0995    0.0000 C   0  0  0  0  0  0  0  0  0  0  0  0
  1  2  2  0
  2  3  1  0
  3  6  2  0
  5  4  2  0
  4  1  1  0
  5  6  1  0
  6  7  1  0
  7  8  1  0
  8  9  1  0
  9  5  1  0
  7 10  2  0
  8 11  2  3
 11 12  1  0
 12 13  2  0
 13 14  1  0
 14 15  2  0
 15 16  1  0
 16 17  2  0
 17 12  1  0
  1 18  1  0
  2 19  1  0
 18 20  1  0
 19 21  1  0
 15 22  1  0
 22 23  1  0
 22 24  1  0
M  END
>  <Classification>  (814) 
1

>  <pchembl>  (814) 
6.87

>  <InChI_steorem>  (814) 
InChI=1S/C20H21NO3/c1-21(2)16-7-5-13(6-8-16)9-15-10-14-11-18(23-3)19(24-4)12-17(14)20(15)22/h5-9,11-12H,10H2,1-4H3

>  <source>  (814) 
ChEMBL25

>  <source_id>  (814) 
25

>  <optional_reference>  (814) 
10.1016/j.bmc.2014.02.005

>  <optional_origin>  (814) 
None

>  <target>  (814) 
MDR1

$$$$

     RDKit          2D

 24 26  0  0  0  0  0  0  0  0999 V2000
    3.3625   -5.3583    0.0000 N   0  0  0  0  0  0  0  0  0  0  0  0
    3.9792   -5.7167    0.0000 C   0  0  0  0  0  0  0  0  0  0  0  0
    3.3625   -6.7833    0.0000 S   0  0  0  0  0  0  0  0  0  0  0  0
    5.8167   -5.3667    0.0000 C   0  0  0  0  0  0  0  0  0  0  0  0
    3.9750   -6.4250    0.0000 C   0  0  0  0  0  0  0  0  0  0  0  0
    2.7500   -5.7167    0.0000 C   0  0  0  0  0  0  0  0  0  0  0  0
    2.7500   -6.4292    0.0000 C   0  0  0  0  0  0  0  0  0  0  0  0
    4.5917   -5.3667    0.0000 C   0  0  0  0  0  0  0  0  0  0  0  0
    5.2042   -5.7167    0.0000 C   0  0  0  0  0  0  0  0  0  0  0  0
    4.5875   -6.7833    0.0000 C   0  0  0  0  0  0  0  0  0  0  0  0
    5.2042   -6.4292    0.0000 C   0  0  0  0  0  0  0  0  0  0  0  0
    6.4292   -5.7208    0.0000 F   0  0  0  0  0  0  0  0  0  0  0  0
    6.1667   -4.7500    0.0000 F   0  0  0  0  0  0  0  0  0  0  0  0
    5.4542   -4.7500    0.0000 F   0  0  0  0  0  0  0  0  0  0  0  0
    3.3625   -4.6500    0.0000 C   0  0  0  0  0  0  0  0  0  0  0  0
    3.9750   -4.2958    0.0000 C   0  0  0  0  0  0  0  0  0  0  0  0
    4.5875   -3.2333    0.0000 N   0  0  0  0  0  0  0  0  0  0  0  0
    2.1375   -5.3625    0.0000 C   0  0  0  0  0  0  0  0  0  0  0  0
    2.1375   -6.7833    0.0000 C   0  0  0  0  0  0  0  0  0  0  0  0
    3.9750   -3.5875    0.0000 C   0  0  0  0  0  0  0  0  0  0  0  0
    5.2000   -3.5875    0.0000 C   0  0  0  0  0  0  0  0  0  0  0  0
    4.5875   -2.5250    0.0000 C   0  0  0  0  0  0  0  0  0  0  0  0
    1.5250   -5.7167    0.0000 C   0  0  0  0  0  0  0  0  0  0  0  0
    1.5250   -6.4292    0.0000 C   0  0  0  0  0  0  0  0  0  0  0  0
  2  1  1  0
  3  5  1  0
  4  9  1  0
  5  2  2  0
  6  1  1  0
  7  6  2  0
  8  2  1  0
  9  8  2  0
 10  5  1  0
 11 10  2  0
 12  4  1  0
 13  4  1  0
 14  4  1  0
 15  1  1  0
 16 15  1  0
 17 20  1  0
 18  6  1  0
 19  7  1  0
 20 16  1  0
 21 17  1  0
 22 17  1  0
 23 18  2  0
 24 23  1  0
  3  7  1  0
  9 11  1  0
 19 24  2  0
M  END
>  <Classification>  (815) 
0

>  <pchembl>  (815) 
4.8

>  <InChI_steorem>  (815) 
InChI=1S/C18H19F3N2S/c1-22(2)10-5-11-23-14-6-3-4-7-16(14)24-17-9-8-13(12-15(17)23)18(19,20)21/h3-4,6-9,12H,5,10-11H2,1-2H3

>  <source>  (815) 
ChEMBL25

>  <source_id>  (815) 
25

>  <optional_reference>  (815) 
10.1021/jm020941h

>  <optional_origin>  (815) 
None

>  <target>  (815) 
MDR1

$$$$

     RDKit          2D

 24 26  0  0  0  0  0  0  0  0999 V2000
    9.6972   -8.6108    0.0000 S   0  0  0  0  0  0  0  0  0  0  0  0
    9.6946   -7.7858    0.0000 O   0  0  0  0  0  0  0  0  0  0  0  0
   13.7843  -10.0026    0.0000 O   0  0  0  0  0  0  0  0  0  0  0  0
    7.5474   -6.5550    0.0000 O   0  0  0  0  0  0  0  0  0  0  0  0
   11.1657   -8.6832    0.0000 N   0  0  0  0  0  0  0  0  0  0  0  0
   10.5019   -9.8413    0.0000 N   0  0  0  0  0  0  0  0  0  0  0  0
    7.5552   -9.0300    0.0000 N   0  0  0  0  0  0  0  0  0  0  0  0
   11.7196   -9.2945    0.0000 C   0  0  0  0  0  0  0  0  0  0  0  0
   11.3093  -10.0103    0.0000 C   0  0  0  0  0  0  0  0  0  0  0  0
   10.4130   -9.0210    0.0000 C   0  0  0  0  0  0  0  0  0  0  0  0
    8.2684   -8.6153    0.0000 C   0  0  0  0  0  0  0  0  0  0  0  0
   12.5446   -9.2920    0.0000 C   0  0  0  0  0  0  0  0  0  0  0  0
   11.7240  -10.7234    0.0000 C   0  0  0  0  0  0  0  0  0  0  0  0
    8.2658   -7.7903    0.0000 C   0  0  0  0  0  0  0  0  0  0  0  0
    8.9840   -9.0256    0.0000 C   0  0  0  0  0  0  0  0  0  0  0  0
   12.9592  -10.0050    0.0000 C   0  0  0  0  0  0  0  0  0  0  0  0
    7.5500   -7.3801    0.0000 C   0  0  0  0  0  0  0  0  0  0  0  0
   12.5490  -10.7208    0.0000 C   0  0  0  0  0  0  0  0  0  0  0  0
    6.8368   -7.7948    0.0000 C   0  0  0  0  0  0  0  0  0  0  0  0
    6.8395   -8.6197    0.0000 C   0  0  0  0  0  0  0  0  0  0  0  0
    8.9790   -7.3756    0.0000 C   0  0  0  0  0  0  0  0  0  0  0  0
    6.1211   -7.3845    0.0000 C   0  0  0  0  0  0  0  0  0  0  0  0
   14.1990  -10.7157    0.0000 C   0  0  0  0  0  0  0  0  0  0  0  0
    6.8317   -6.1448    0.0000 C   0  0  0  0  0  0  0  0  0  0  0  0
  1  2  1  0
  1 10  1  0
  1 15  1  0
  3 16  1  0
  3 23  1  0
  4 17  1  0
  4 24  1  0
  5  8  1  0
  5 10  2  0
  6  9  1  0
  6 10  1  0
  7 11  2  0
  7 20  1  0
  8  9  2  0
  8 12  1  0
  9 13  1  0
 11 14  1  0
 11 15  1  0
 12 16  2  0
 13 18  2  0
 14 17  2  0
 14 21  1  0
 16 18  1  0
 17 19  1  0
 19 20  2  0
 19 22  1  0
M  CHG  2   1   1   2  -1
M  END
>  <Classification>  (816) 
0

>  <pchembl>  (816) 
4.01

>  <InChI_steorem>  (816) 
InChI=1S/C17H19N3O3S/c1-10-8-18-15(11(2)16(10)23-4)9-24(21)17-19-13-6-5-12(22-3)7-14(13)20-17/h5-8H,9H2,1-4H3,(H,19,20)

>  <source>  (816) 
ChEMBL25

>  <source_id>  (816) 
25

>  <optional_reference>  (816) 
10.1021/jm020941h

>  <optional_origin>  (816) 
None

>  <target>  (816) 
MDR1

$$$$

     RDKit          2D

 25 27  0  0  0  0  0  0  0  0999 V2000
    2.3167   -0.7542    0.0000 N   0  0  0  0  0  0  0  0  0  0  0  0
    4.5500   -1.4167    0.0000 N   0  0  0  0  0  0  0  0  0  0  0  0
    5.2625   -1.8292    0.0000 C   0  0  0  0  0  0  0  0  0  0  0  0
    3.9667   -2.0042    0.0000 C   0  0  0  0  0  0  0  0  0  0  0  0
    3.4417   -1.5792    0.0000 C   0  0  0  0  0  0  0  0  0  0  0  0
    3.8292   -1.1875    0.0000 C   0  0  0  0  0  0  0  0  0  0  0  0
    2.8917   -1.2000    0.0000 C   0  0  0  0  0  0  0  0  0  0  0  0
    2.4625   -1.5792    0.0000 C   0  0  0  0  0  0  0  0  0  0  0  0
    5.3750   -2.6542    0.0000 O   0  0  0  0  0  0  0  0  0  0  0  0
    4.5500   -0.5917    0.0000 C   0  0  0  0  0  0  0  0  0  0  0  0
    1.8292   -1.4167    0.0000 C   0  0  0  0  0  0  0  0  0  0  0  0
    1.0125   -1.3292    0.0000 C   0  0  0  0  0  0  0  0  0  0  0  0
    0.5167   -1.9917    0.0000 C   0  0  0  0  0  0  0  0  0  0  0  0
    5.8500   -1.2417    0.0000 C   0  0  0  0  0  0  0  0  0  0  0  0
    3.8292   -0.1917    0.0000 C   0  0  0  0  0  0  0  0  0  0  0  0
    5.2625   -0.1792    0.0000 C   0  0  0  0  0  0  0  0  0  0  0  0
   -0.3000   -1.9000    0.0000 C   0  0  0  0  0  0  0  0  0  0  0  0
    0.8500   -2.7417    0.0000 C   0  0  0  0  0  0  0  0  0  0  0  0
    6.6417   -1.4542    0.0000 C   0  0  0  0  0  0  0  0  0  0  0  0
    3.8250    0.6333    0.0000 C   0  0  0  0  0  0  0  0  0  0  0  0
    5.2542    0.6458    0.0000 C   0  0  0  0  0  0  0  0  0  0  0  0
    0.3667   -3.4125    0.0000 C   0  0  0  0  0  0  0  0  0  0  0  0
   -0.7958   -2.5625    0.0000 C   0  0  0  0  0  0  0  0  0  0  0  0
    4.5417    1.0500    0.0000 C   0  0  0  0  0  0  0  0  0  0  0  0
   -0.4625   -3.3167    0.0000 C   0  0  0  0  0  0  0  0  0  0  0  0
  4  2  1  0
  3  2  1  0
  4  5  1  0
  5  8  1  0
  6  7  1  0
  7  1  1  0
  8  1  1  0
  9  3  2  0
 10  2  1  0
 11  1  1  0
 12 11  1  0
 13 12  1  0
 14  3  1  0
 15 10  2  0
 16 10  1  0
 17 13  2  0
 18 13  1  0
 19 14  1  0
 20 15  1  0
 21 16  2  0
 22 18  2  0
 23 17  1  0
 24 21  1  0
 25 22  1  0
  6  4  1  0
 25 23  2  0
 20 24  2  0
M  END
>  <Classification>  (817) 
1

>  <pchembl>  (817) 
5.19

>  <InChI_steorem>  (817) 
InChI=1S/C22H28N2O/c1-2-22(25)24(20-11-7-4-8-12-20)21-14-17-23(18-15-21)16-13-19-9-5-3-6-10-19/h3-12,21H,2,13-18H2,1H3

>  <source>  (817) 
ChEMBL25

>  <source_id>  (817) 
25

>  <optional_reference>  (817) 
10.1097/00000542-200204000-00019

>  <optional_origin>  (817) 
None

>  <target>  (817) 
MDR1

$$$$

     RDKit          2D

 26 28  0  0  0  0  0  0  0  0999 V2000
   10.4724   -9.0723    0.0000 C   0  0  0  0  0  0  0  0  0  0  0  0
   11.2296   -8.7329    0.0000 N   0  0  0  0  0  0  0  0  0  0  0  0
   10.5636   -9.9021    0.0000 N   0  0  0  0  0  0  0  0  0  0  0  0
    9.7531   -8.6604    0.0000 S   0  0  0  0  0  0  0  0  0  0  0  0
    8.3163   -8.6665    0.0000 C   0  0  0  0  0  0  0  0  0  0  0  0
   11.3760  -10.0698    0.0000 C   0  0  0  0  0  0  0  0  0  0  0  0
    9.0356   -9.0782    0.0000 C   0  0  0  0  0  0  0  0  0  0  0  0
   11.7878   -9.3506    0.0000 C   0  0  0  0  0  0  0  0  0  0  0  0
    8.3188   -7.8391    0.0000 C   0  0  0  0  0  0  0  0  0  0  0  0
   11.7981  -10.7897    0.0000 C   0  0  0  0  0  0  0  0  0  0  0  0
    7.6030   -9.0867    0.0000 N   0  0  0  0  0  0  0  0  0  0  0  0
   13.8782  -11.4887    0.0000 C   0  0  0  0  0  0  0  0  0  0  0  0
    7.6039   -7.4297    0.0000 C   0  0  0  0  0  0  0  0  0  0  0  0
    9.7513   -7.8308    0.0000 O   0  0  0  0  0  0  0  0  0  0  0  0
   12.6259  -10.7814    0.0000 C   0  0  0  0  0  0  0  0  0  0  0  0
   13.0461  -11.4946    0.0000 O   0  0  0  0  0  0  0  0  0  0  0  0
   12.6157   -9.3422    0.0000 C   0  0  0  0  0  0  0  0  0  0  0  0
   14.2816  -10.7646    0.0000 F   0  0  0  0  0  0  0  0  0  0  0  0
   14.2985  -12.2020    0.0000 F   0  0  0  0  0  0  0  0  0  0  0  0
    9.0382   -7.4280    0.0000 O   0  0  0  0  0  0  0  0  0  0  0  0
    6.8838   -8.6748    0.0000 C   0  0  0  0  0  0  0  0  0  0  0  0
   13.0359  -10.0555    0.0000 C   0  0  0  0  0  0  0  0  0  0  0  0
    6.8821   -7.8451    0.0000 C   0  0  0  0  0  0  0  0  0  0  0  0
    7.6021   -6.6001    0.0000 O   0  0  0  0  0  0  0  0  0  0  0  0
    9.0365   -6.5983    0.0000 C   0  0  0  0  0  0  0  0  0  0  0  0
    8.3239   -6.1846    0.0000 C   0  0  0  0  0  0  0  0  0  0  0  0
  2  1  1  0
  3  1  2  0
  4  1  1  0
  5  7  1  0
  6  3  1  0
  7  4  1  0
  8  2  1  0
  9  5  2  0
 10  6  2  0
 11  5  1  0
 12 16  1  0
 13  9  1  0
 14  4  1  0
 15 10  1  0
 16 15  1  0
 17  8  2  0
 18 12  1  0
 19 12  1  0
 20  9  1  0
 21 11  2  0
 22 17  1  0
 23 13  2  0
 24 13  1  0
 25 20  1  0
 26 24  1  0
  6  8  1  0
 15 22  2  0
 23 21  1  0
M  CHG  2   4   1  14  -1
M  END
>  <Classification>  (818) 
0

>  <pchembl>  (818) 
4.75

>  <InChI_steorem>  (818) 
InChI=1S/C16H15F2N3O4S/c1-23-13-5-6-19-12(14(13)24-2)8-26(22)16-20-10-4-3-9(25-15(17)18)7-11(10)21-16/h3-7,15H,8H2,1-2H3,(H,20,21)

>  <source>  (818) 
ChEMBL25

>  <source_id>  (818) 
25

>  <optional_reference>  (818) 
10.1007/s00210-001-0489-7

>  <optional_origin>  (818) 
None

>  <target>  (818) 
MDR1

$$$$

     RDKit          2D

 26 28  0  0  0  0  0  0  0  0999 V2000
    6.5261    0.5236    0.0000 O   0  0  0  0  0  0  0  0  0  0  0  0
    5.0972   -1.1264    0.0000 O   0  0  0  0  0  0  0  0  0  0  0  0
    6.5261   -1.9514    0.0000 O   0  0  0  0  0  0  0  0  0  0  0  0
    7.9551   -1.9514    0.0000 O   0  0  0  0  0  0  0  0  0  0  0  0
    9.3840    0.5236    0.0000 O   0  0  0  0  0  0  0  0  0  0  0  0
    2.9538    0.1111    0.0000 O   0  0  0  0  0  0  0  0  0  0  0  0
    2.9538    1.7611    0.0000 O   0  0  0  0  0  0  0  0  0  0  0  0
    7.2406   -0.7139    0.0000 C   0  0  0  0  0  0  0  0  0  0  0  0
    5.8116    0.1111    0.0000 C   0  0  0  0  0  0  0  0  0  0  0  0
    7.2406    0.1111    0.0000 C   0  0  0  0  0  0  0  0  0  0  0  0
    5.8116   -0.7139    0.0000 C   0  0  0  0  0  0  0  0  0  0  0  0
    6.5261   -1.1264    0.0000 C   0  0  0  0  0  0  0  0  0  0  0  0
    5.0972    0.5236    0.0000 C   0  0  0  0  0  0  0  0  0  0  0  0
    7.9551   -1.1264    0.0000 C   0  0  0  0  0  0  0  0  0  0  0  0
    7.9551    0.5236    0.0000 C   0  0  0  0  0  0  0  0  0  0  0  0
    8.6695    0.1111    0.0000 C   0  0  0  0  0  0  0  0  0  0  0  0
    8.6695   -0.7139    0.0000 C   0  0  0  0  0  0  0  0  0  0  0  0
    4.3827    0.1111    0.0000 C   0  0  0  0  0  0  0  0  0  0  0  0
    5.0972    1.3486    0.0000 C   0  0  0  0  0  0  0  0  0  0  0  0
    3.6682    0.5236    0.0000 C   0  0  0  0  0  0  0  0  0  0  0  0
    3.6682    1.3486    0.0000 C   0  0  0  0  0  0  0  0  0  0  0  0
    4.3827    1.7611    0.0000 C   0  0  0  0  0  0  0  0  0  0  0  0
    5.0972   -1.9514    0.0000 C   0  0  0  0  0  0  0  0  0  0  0  0
   10.0985    0.1111    0.0000 C   0  0  0  0  0  0  0  0  0  0  0  0
    2.2393    0.5236    0.0000 C   0  0  0  0  0  0  0  0  0  0  0  0
    2.2393    1.3486    0.0000 C   0  0  0  0  0  0  0  0  0  0  0  0
  1  9  1  0
  1 10  1  0
  2 11  1  0
  2 23  1  0
  3 12  2  0
  4 14  1  0
  5 16  1  0
  5 24  1  0
  6 20  1  0
  6 25  1  0
  7 21  1  0
  7 26  1  0
  8 10  2  0
  8 12  1  0
  8 14  1  0
  9 11  2  0
  9 13  1  0
 10 15  1  0
 11 12  1  0
 13 18  2  0
 13 19  1  0
 14 17  2  0
 15 16  2  0
 16 17  1  0
 18 20  1  0
 19 22  2  0
 20 21  2  0
 21 22  1  0
M  END
>  <Classification>  (819) 
0

>  <pchembl>  (819) 
4.8

>  <InChI_steorem>  (819) 
InChI=1S/C19H18O7/c1-22-11-8-12(20)16-15(9-11)26-18(19(25-4)17(16)21)10-5-6-13(23-2)14(7-10)24-3/h5-9,20H,1-4H3

>  <source>  (819) 
ChEMBL25

>  <source_id>  (819) 
25

>  <optional_reference>  (819) 
10.1016/j.bmc.2010.12.043

>  <optional_origin>  (819) 
None

>  <target>  (819) 
MDR1

$$$$

     RDKit          2D

 26 29  0  0  0  0  0  0  0  0999 V2000
    5.2150   -1.6018    0.0000 O   0  0  0  0  0  0  0  0  0  0  0  0
    6.8290    0.5302    0.0000 O   0  0  0  0  0  0  0  0  0  0  0  0
    7.1261    1.9279    0.0000 O   0  0  0  0  0  0  0  0  0  0  0  0
    8.0729   -1.6018    0.0000 N   0  0  0  0  0  0  0  0  0  0  0  0
    2.3571   -1.6018    0.0000 N   0  0  0  0  0  0  0  0  0  0  0  0
    5.2150    0.0482    0.0000 C   0  0  0  0  0  0  0  0  0  0  0  0
    5.9295   -0.3643    0.0000 C   0  0  0  0  0  0  0  0  0  0  0  0
    4.5006   -0.3643    0.0000 C   0  0  0  0  0  0  0  0  0  0  0  0
    5.2150    0.8732    0.0000 C   0  0  0  0  0  0  0  0  0  0  0  0
    5.9295   -1.1893    0.0000 C   0  0  0  0  0  0  0  0  0  0  0  0
    4.5006   -1.1893    0.0000 C   0  0  0  0  0  0  0  0  0  0  0  0
    5.7671    1.4863    0.0000 C   0  0  0  0  0  0  0  0  0  0  0  0
    6.6440    0.0482    0.0000 C   0  0  0  0  0  0  0  0  0  0  0  0
    3.7861    0.0482    0.0000 C   0  0  0  0  0  0  0  0  0  0  0  0
    6.6440   -1.6018    0.0000 C   0  0  0  0  0  0  0  0  0  0  0  0
    3.7861   -1.6018    0.0000 C   0  0  0  0  0  0  0  0  0  0  0  0
    4.4081    1.0447    0.0000 C   0  0  0  0  0  0  0  0  0  0  0  0
    7.3584   -1.1893    0.0000 C   0  0  0  0  0  0  0  0  0  0  0  0
    3.0716   -1.1893    0.0000 C   0  0  0  0  0  0  0  0  0  0  0  0
    6.5740    1.3148    0.0000 C   0  0  0  0  0  0  0  0  0  0  0  0
    7.3584   -0.3643    0.0000 C   0  0  0  0  0  0  0  0  0  0  0  0
    3.0716   -0.3643    0.0000 C   0  0  0  0  0  0  0  0  0  0  0  0
    5.5121    2.2709    0.0000 C   0  0  0  0  0  0  0  0  0  0  0  0
    4.1531    1.8294    0.0000 C   0  0  0  0  0  0  0  0  0  0  0  0
    4.7051    2.4425    0.0000 C   0  0  0  0  0  0  0  0  0  0  0  0
    7.6359    0.3586    0.0000 C   0  0  0  0  0  0  0  0  0  0  0  0
  1 10  1  0
  1 11  1  0
  2 20  1  0
  2 26  1  0
  3 20  2  0
  4 18  1  0
  5 19  2  0
  6  7  1  0
  6  8  2  0
  6  9  1  0
  7 10  2  0
  7 13  1  0
  8 11  1  0
  8 14  1  0
  9 12  2  0
  9 17  1  0
 10 15  1  0
 11 16  2  0
 12 20  1  0
 12 23  1  0
 13 21  2  0
 14 22  2  0
 15 18  2  0
 16 19  1  0
 17 24  2  0
 18 21  1  0
 19 22  1  0
 23 25  2  0
 24 25  1  0
M  END
>  <Classification>  (820) 
1

>  <pchembl>  (820) 
6.3

>  <InChI_steorem>  (820) 
InChI=1S/C21H16N2O3/c1-25-21(24)15-5-3-2-4-14(15)20-16-8-6-12(22)10-18(16)26-19-11-13(23)7-9-17(19)20/h2-11,22H,23H2,1H3

>  <source>  (820) 
ChEMBL25

>  <source_id>  (820) 
25

>  <optional_reference>  (820) 
10.1021/jm020941h

>  <optional_origin>  (820) 
None

>  <target>  (820) 
MDR1

$$$$

     RDKit          2D

 27 29  0  0  0  0  0  0  0  0999 V2000
   10.7069    1.4500    0.0000 C   0  0  0  0  0  0  0  0  0  0  0  0
   10.7057    0.6227    0.0000 C   0  0  0  0  0  0  0  0  0  0  0  0
   11.4206    0.2098    0.0000 C   0  0  0  0  0  0  0  0  0  0  0  0
   12.1370    0.6231    0.0000 C   0  0  0  0  0  0  0  0  0  0  0  0
   12.1341    1.4537    0.0000 C   0  0  0  0  0  0  0  0  0  0  0  0
   11.4188    1.8628    0.0000 C   0  0  0  0  0  0  0  0  0  0  0  0
   12.8471    1.8689    0.0000 C   0  0  0  0  0  0  0  0  0  0  0  0
   13.5631    1.4591    0.0000 C   0  0  0  0  0  0  0  0  0  0  0  0
   12.8439    2.6939    0.0000 O   0  0  0  0  0  0  0  0  0  0  0  0
   14.2760    1.8742    0.0000 C   0  0  0  0  0  0  0  0  0  0  0  0
   14.9920    1.4644    0.0000 C   0  0  0  0  0  0  0  0  0  0  0  0
   14.9920    0.6406    0.0000 C   0  0  0  0  0  0  0  0  0  0  0  0
   15.7072    0.2309    0.0000 C   0  0  0  0  0  0  0  0  0  0  0  0
   16.4211    0.6461    0.0000 C   0  0  0  0  0  0  0  0  0  0  0  0
   16.4153    1.4754    0.0000 C   0  0  0  0  0  0  0  0  0  0  0  0
   15.6995    1.8813    0.0000 C   0  0  0  0  0  0  0  0  0  0  0  0
   12.8521    0.2118    0.0000 O   0  0  0  0  0  0  0  0  0  0  0  0
   12.8534   -0.6132    0.0000 C   0  0  0  0  0  0  0  0  0  0  0  0
   13.5685   -1.0246    0.0000 C   0  0  0  0  0  0  0  0  0  0  0  0
   13.5698   -1.8496    0.0000 C   0  0  0  0  0  0  0  0  0  0  0  0
   14.2824   -0.6110    0.0000 O   0  0  0  0  0  0  0  0  0  0  0  0
   14.2849   -2.2610    0.0000 N   0  0  0  0  0  0  0  0  0  0  0  0
   14.2825   -3.0840    0.0000 C   0  0  0  0  0  0  0  0  0  0  0  0
   14.9935   -3.4953    0.0000 C   0  0  0  0  0  0  0  0  0  0  0  0
   15.7098   -3.0852    0.0000 C   0  0  0  0  0  0  0  0  0  0  0  0
   15.7104   -2.2593    0.0000 C   0  0  0  0  0  0  0  0  0  0  0  0
   14.9949   -1.8434    0.0000 C   0  0  0  0  0  0  0  0  0  0  0  0
  1  2  2  0
 13 14  2  0
  5  7  1  0
 14 15  1  0
  3  4  2  0
 15 16  2  0
 16 11  1  0
  7  8  1  0
  4 17  1  0
 17 18  1  0
  7  9  2  0
 18 19  1  0
  4  5  1  0
 19 20  1  0
  8 10  1  0
 19 21  1  0
  2  3  1  0
 20 22  1  0
 22 23  1  0
 10 11  1  0
  5  6  2  0
 11 12  2  0
  6  1  1  0
 12 13  1  0
 22 27  1  0
 23 24  1  0
 24 25  1  0
 25 26  1  0
 26 27  1  0
M  END
>  <Classification>  (821) 
1

>  <pchembl>  (821) 
6.22

>  <InChI_steorem>  (821) 
InChI=1S/C23H29NO3/c25-20(17-24-15-7-2-8-16-24)18-27-23-12-6-5-11-21(23)22(26)14-13-19-9-3-1-4-10-19/h1,3-6,9-12,20,25H,2,7-8,13-18H2

>  <source>  (821) 
ChEMBL25

>  <source_id>  (821) 
25

>  <optional_reference>  (821) 
10.1021/jm201705f

>  <optional_origin>  (821) 
None

>  <target>  (821) 
MDR1

$$$$

     RDKit          2D

 27 29  0  0  0  0  0  0  0  0999 V2000
   -1.3542   -0.0125    0.0000 N   0  0  0  0  0  0  0  0  0  0  0  0
   -0.7417   -0.3542    0.0000 C   0  0  0  0  0  0  0  0  0  0  0  0
   -1.3542    0.6958    0.0000 C   0  0  0  0  0  0  0  0  0  0  0  0
    0.4708   -1.0625    0.0000 N   0  0  0  0  0  0  0  0  0  0  0  0
    2.3042   -1.4667    0.0000 C   0  0  0  0  0  0  0  0  0  0  0  0
    2.9042   -1.0625    0.0000 S   0  0  0  0  0  0  0  0  0  0  0  0
   -0.7417   -1.0625    0.0000 C   0  0  0  0  0  0  0  0  0  0  0  0
   -0.1292    0.0083    0.0000 C   0  0  0  0  0  0  0  0  0  0  0  0
    3.4542   -1.4667    0.0000 C   0  0  0  0  0  0  0  0  0  0  0  0
    2.5458   -2.1292    0.0000 C   0  0  0  0  0  0  0  0  0  0  0  0
   -1.9542    1.0458    0.0000 O   0  0  0  0  0  0  0  0  0  0  0  0
   -1.9708   -0.3542    0.0000 C   0  0  0  0  0  0  0  0  0  0  0  0
    1.6708   -1.0875    0.0000 C   0  0  0  0  0  0  0  0  0  0  0  0
    3.2167   -2.1292    0.0000 C   0  0  0  0  0  0  0  0  0  0  0  0
    0.4708   -0.3417    0.0000 C   0  0  0  0  0  0  0  0  0  0  0  0
   -0.1292   -1.4125    0.0000 C   0  0  0  0  0  0  0  0  0  0  0  0
    1.0708   -1.4167    0.0000 C   0  0  0  0  0  0  0  0  0  0  0  0
   -0.7417    0.3583    0.0000 C   0  0  0  0  0  0  0  0  0  0  0  0
   -0.7417    1.0625    0.0000 C   0  0  0  0  0  0  0  0  0  0  0  0
   -0.1292    0.7250    0.0000 O   0  0  0  0  0  0  0  0  0  0  0  0
   -2.6042    0.0083    0.0000 C   0  0  0  0  0  0  0  0  0  0  0  0
   -1.9708   -1.0875    0.0000 C   0  0  0  0  0  0  0  0  0  0  0  0
    0.4708    0.3750    0.0000 C   0  0  0  0  0  0  0  0  0  0  0  0
   -0.7417    1.7583    0.0000 C   0  0  0  0  0  0  0  0  0  0  0  0
   -3.2292   -0.3542    0.0000 C   0  0  0  0  0  0  0  0  0  0  0  0
   -2.6042   -1.4625    0.0000 C   0  0  0  0  0  0  0  0  0  0  0  0
   -3.2292   -1.0875    0.0000 C   0  0  0  0  0  0  0  0  0  0  0  0
  2  1  1  0
  3  1  1  0
  4 15  1  0
  5 13  1  0
  6  5  1  0
  7  2  1  0
  8  2  1  0
  9  6  1  0
 10  5  2  0
 11  3  2  0
 12  1  1  0
 13 17  1  0
 14 10  1  0
 15  8  1  0
 16  7  1  0
 17  4  1  0
 18  2  1  0
 19  3  1  0
 20 18  1  0
 21 12  2  0
 22 12  1  0
 23 20  1  0
 24 19  1  0
 25 21  1  0
 26 22  2  0
 27 26  1  0
  4 16  1  0
 27 25  2  0
  9 14  2  0
M  END
>  <Classification>  (822) 
1

>  <pchembl>  (822) 
5.35

>  <InChI_steorem>  (822) 
InChI=1S/C22H30N2O2S/c1-3-21(25)24(19-8-5-4-6-9-19)22(18-26-2)12-15-23(16-13-22)14-11-20-10-7-17-27-20/h4-10,17H,3,11-16,18H2,1-2H3

>  <source>  (822) 
ChEMBL25

>  <source_id>  (822) 
25

>  <optional_reference>  (822) 
10.1097/00000542-200204000-00019

>  <optional_origin>  (822) 
None

>  <target>  (822) 
MDR1

$$$$

     RDKit          2D

 29 32  0  0  0  0  0  0  0  0999 V2000
   -3.5593    2.0134    0.0000 C   0  0  0  0  0  0  0  0  0  0  0  0
   -4.2738    1.6009    0.0000 C   0  0  0  0  0  0  0  0  0  0  0  0
   -4.2738    0.7759    0.0000 C   0  0  0  0  0  0  0  0  0  0  0  0
   -2.8449    1.6009    0.0000 C   0  0  0  0  0  0  0  0  0  0  0  0
   -2.8449    0.7759    0.0000 C   0  0  0  0  0  0  0  0  0  0  0  0
   -3.5593    0.3634    0.0000 C   0  0  0  0  0  0  0  0  0  0  0  0
   -3.5593   -0.4616    0.0000 C   0  0  0  0  0  0  0  0  0  0  0  0
   -2.8449   -0.8741    0.0000 C   0  0  0  0  0  0  0  0  0  0  0  0
   -2.1304   -0.4616    0.0000 C   0  0  0  0  0  0  0  0  0  0  0  0
   -2.1304    0.3634    0.0000 C   0  0  0  0  0  0  0  0  0  0  0  0
   -1.4159    0.7759    0.0000 C   0  0  0  0  0  0  0  0  0  0  0  0
   -0.7015    0.3634    0.0000 C   0  0  0  0  0  0  0  0  0  0  0  0
    0.0130    0.7759    0.0000 C   0  0  0  0  0  0  0  0  0  0  0  0
    0.7275    0.3634    0.0000 N   0  0  0  0  0  0  0  0  0  0  0  0
    1.4420    0.7759    0.0000 C   0  0  0  0  0  0  0  0  0  0  0  0
    1.4420   -0.8741    0.0000 C   0  0  0  0  0  0  0  0  0  0  0  0
    0.7275   -0.4616    0.0000 C   0  0  0  0  0  0  0  0  0  0  0  0
    2.1564   -0.4616    0.0000 C   0  0  0  0  0  0  0  0  0  0  0  0
    2.1564    0.3634    0.0000 C   0  0  0  0  0  0  0  0  0  0  0  0
    2.8709    0.7759    0.0000 C   0  0  0  0  0  0  0  0  0  0  0  0
    3.5854    0.3634    0.0000 C   0  0  0  0  0  0  0  0  0  0  0  0
    3.5854   -0.4616    0.0000 C   0  0  0  0  0  0  0  0  0  0  0  0
    2.8709   -0.8741    0.0000 C   0  0  0  0  0  0  0  0  0  0  0  0
    4.2998   -0.8741    0.0000 O   0  0  0  0  0  0  0  0  0  0  0  0
    4.2998   -1.6991    0.0000 C   0  0  0  0  0  0  0  0  0  0  0  0
    4.2998    0.7759    0.0000 O   0  0  0  0  0  0  0  0  0  0  0  0
    5.0143    0.3634    0.0000 C   0  0  0  0  0  0  0  0  0  0  0  0
   -4.9883    0.3634    0.0000 O   0  0  0  0  0  0  0  0  0  0  0  0
   -4.9883   -0.4616    0.0000 C   0  0  0  0  0  0  0  0  0  0  0  0
 13 14  1  0
 14 15  1  0
  1  2  2  0
  5  4  2  0
  4  1  1  0
 14 17  1  0
 15 19  1  0
 18 16  1  0
 16 17  1  0
  5 10  1  0
  6  7  1  0
 18 19  2  0
  7  8  1  0
 19 20  1  0
  8  9  1  0
 20 21  2  0
  9 10  1  0
 21 22  1  0
  5  6  1  0
 22 23  2  0
 23 18  1  0
 10 11  2  3
 22 24  1  0
 24 25  1  0
 11 12  1  0
 21 26  1  0
  2  3  1  0
 26 27  1  0
 12 13  1  0
  3 28  1  0
  3  6  2  0
 28 29  1  0
M  END
>  <Classification>  (823) 
1

>  <pchembl>  (823) 
5.99

>  <InChI_steorem>  (823) 
InChI=1S/C25H31NO3/c1-27-23-11-5-9-21-18(7-4-10-22(21)23)8-6-13-26-14-12-19-15-24(28-2)25(29-3)16-20(19)17-26/h5,8-9,11,15-16H,4,6-7,10,12-14,17H2,1-3H3

>  <source>  (823) 
ChEMBL25

>  <source_id>  (823) 
25

>  <optional_reference>  (823) 
10.1021/jm500697c

>  <optional_origin>  (823) 
None

>  <target>  (823) 
MDR1

$$$$

     RDKit          2D

 30 33  0  0  0  0  0  0  0  0999 V2000
   -2.2020   -0.7795    0.0000 O   0  0  0  0  0  0  0  0  0  0  0  0
   -0.7731   -1.6045    0.0000 O   0  0  0  0  0  0  0  0  0  0  0  0
    2.7993   -0.3670    0.0000 O   0  0  0  0  0  0  0  0  0  0  0  0
    4.2282    0.4580    0.0000 O   0  0  0  0  0  0  0  0  0  0  0  0
   -3.4594    1.6774    0.0000 N   0  0  0  0  0  0  0  0  0  0  0  0
    0.6559   -0.7795    0.0000 N   0  0  0  0  0  0  0  0  0  0  0  0
   -2.9165    0.4580    0.0000 C   0  0  0  0  0  0  0  0  0  0  0  0
   -2.3034    1.0100    0.0000 C   0  0  0  0  0  0  0  0  0  0  0  0
   -3.6310    0.8705    0.0000 C   0  0  0  0  0  0  0  0  0  0  0  0
   -2.6390    1.7637    0.0000 C   0  0  0  0  0  0  0  0  0  0  0  0
   -2.9165   -0.3670    0.0000 C   0  0  0  0  0  0  0  0  0  0  0  0
   -1.4829    0.9238    0.0000 C   0  0  0  0  0  0  0  0  0  0  0  0
   -4.3454    0.4580    0.0000 C   0  0  0  0  0  0  0  0  0  0  0  0
   -2.1540    2.4311    0.0000 C   0  0  0  0  0  0  0  0  0  0  0  0
   -3.6310   -0.7795    0.0000 C   0  0  0  0  0  0  0  0  0  0  0  0
   -4.3454   -0.3670    0.0000 C   0  0  0  0  0  0  0  0  0  0  0  0
   -0.9980    1.5912    0.0000 C   0  0  0  0  0  0  0  0  0  0  0  0
   -1.3336    2.3449    0.0000 C   0  0  0  0  0  0  0  0  0  0  0  0
   -1.4876   -0.3670    0.0000 C   0  0  0  0  0  0  0  0  0  0  0  0
   -0.7731   -0.7795    0.0000 C   0  0  0  0  0  0  0  0  0  0  0  0
    3.5137   -0.7795    0.0000 C   0  0  0  0  0  0  0  0  0  0  0  0
   -0.0586   -0.3670    0.0000 C   0  0  0  0  0  0  0  0  0  0  0  0
    4.2282   -0.3670    0.0000 C   0  0  0  0  0  0  0  0  0  0  0  0
    3.5137   -1.6045    0.0000 C   0  0  0  0  0  0  0  0  0  0  0  0
    4.9427   -0.7795    0.0000 C   0  0  0  0  0  0  0  0  0  0  0  0
    4.2282   -2.0170    0.0000 C   0  0  0  0  0  0  0  0  0  0  0  0
    4.9427   -1.6045    0.0000 C   0  0  0  0  0  0  0  0  0  0  0  0
    2.0848   -0.7795    0.0000 C   0  0  0  0  0  0  0  0  0  0  0  0
    1.3703   -0.3670    0.0000 C   0  0  0  0  0  0  0  0  0  0  0  0
    4.9427    0.8705    0.0000 C   0  0  0  0  0  0  0  0  0  0  0  0
  1 11  1  0
  1 19  1  0
  2 20  1  0
  3 21  1  0
  3 28  1  0
  4 23  1  0
  4 30  1  0
  5  9  1  0
  5 10  1  0
  6 22  1  0
  6 29  1  0
  7  8  1  0
  7  9  2  0
  7 11  1  0
  8 10  2  0
  8 12  1  0
  9 13  1  0
 10 14  1  0
 11 15  2  0
 12 17  2  0
 13 16  2  0
 14 18  2  0
 15 16  1  0
 17 18  1  0
 19 20  1  0
 20 22  1  0
 21 23  2  0
 21 24  1  0
 23 25  1  0
 24 26  2  0
 25 27  2  0
 26 27  1  0
 28 29  1  0
M  END
>  <Classification>  (824) 
1

>  <pchembl>  (824) 
5.18

>  <InChI_steorem>  (824) 
InChI=1S/C24H26N2O4/c1-28-21-10-4-5-11-22(21)29-14-13-25-15-17(27)16-30-23-12-6-9-20-24(23)18-7-2-3-8-19(18)26-20/h2-12,17,25-27H,13-16H2,1H3

>  <source>  (824) 
ChEMBL25

>  <source_id>  (824) 
25

>  <optional_reference>  (824) 
10.1006/bbrc.2001.6000

>  <optional_origin>  (824) 
None

>  <target>  (824) 
MDR1

$$$$

     RDKit          2D

 32 33  0  0  0  0  0  0  0  0999 V2000
   12.7614  -12.5138    0.0000 C   0  0  0  0  0  0  0  0  0  0  0  0
   12.7614  -13.3309    0.0000 C   0  0  0  0  0  0  0  0  0  0  0  0
   13.5786  -12.5138    0.0000 C   0  0  0  0  0  0  0  0  0  0  0  0
   14.3875  -12.5014    0.0000 N   0  0  0  0  0  0  0  0  0  0  0  0
   13.4713  -13.7395    0.0000 C   0  0  0  0  0  0  0  0  0  0  0  0
   13.4713  -14.5650    0.0000 C   0  0  0  0  0  0  0  0  0  0  0  0
   17.6893  -10.4213    0.0000 C   0  0  0  0  0  0  0  0  0  0  0  0
   12.7614  -14.9736    0.0000 C   0  0  0  0  0  0  0  0  0  0  0  0
   17.7017  -11.2384    0.0000 C   0  0  0  0  0  0  0  0  0  0  0  0
   12.0556  -13.7478    0.0000 C   0  0  0  0  0  0  0  0  0  0  0  0
   16.9753  -10.0209    0.0000 C   0  0  0  0  0  0  0  0  0  0  0  0
   12.0556  -14.5650    0.0000 C   0  0  0  0  0  0  0  0  0  0  0  0
   16.9959  -11.6553    0.0000 C   0  0  0  0  0  0  0  0  0  0  0  0
   11.9442  -12.5344    0.0000 C   0  0  0  0  0  0  0  0  0  0  0  0
   16.2778  -10.4336    0.0000 C   0  0  0  0  0  0  0  0  0  0  0  0
   14.1481  -10.0498    0.0000 N   0  0  0  0  0  0  0  0  0  0  0  0
   16.2819  -11.2508    0.0000 C   0  0  0  0  0  0  0  0  0  0  0  0
   14.1853  -14.9736    0.0000 O   0  0  0  0  0  0  0  0  0  0  0  0
   14.8663  -10.4543    0.0000 C   0  0  0  0  0  0  0  0  0  0  0  0
   18.3951  -10.0003    0.0000 O   0  0  0  0  0  0  0  0  0  0  0  0
   15.5720  -10.0374    0.0000 C   0  0  0  0  0  0  0  0  0  0  0  0
   12.7531  -11.6966    0.0000 C   0  0  0  0  0  0  0  0  0  0  0  0
   18.3992  -11.6429    0.0000 O   0  0  0  0  0  0  0  0  0  0  0  0
   12.7614  -15.7908    0.0000 O   0  0  0  0  0  0  0  0  0  0  0  0
   13.4548  -11.2838    0.0000 C   0  0  0  0  0  0  0  0  0  0  0  0
   13.4465  -10.4667    0.0000 C   0  0  0  0  0  0  0  0  0  0  0  0
   11.5232  -11.8286    0.0000 C   0  0  0  0  0  0  0  0  0  0  0  0
   11.5397  -13.2443    0.0000 C   0  0  0  0  0  0  0  0  0  0  0  0
   14.1853  -15.7908    0.0000 C   0  0  0  0  0  0  0  0  0  0  0  0
   19.1049  -10.4047    0.0000 C   0  0  0  0  0  0  0  0  0  0  0  0
   12.0556  -16.1994    0.0000 C   0  0  0  0  0  0  0  0  0  0  0  0
   18.4198  -12.4601    0.0000 C   0  0  0  0  0  0  0  0  0  0  0  0
  2  1  1  0
  3  1  1  0
  4  3  3  0
  5  2  2  0
  6  5  1  0
  7 11  2  0
  8 12  1  0
  9 13  2  0
 10  2  1  0
 11 15  1  0
 12 10  2  0
 13 17  1  0
 14  1  1  0
 15 21  1  0
 16 26  1  0
 17 15  2  0
 18  6  1  0
 19 16  1  0
 20  7  1  0
 21 19  1  0
 22  1  1  0
 23  9  1  0
 24  8  1  0
 25 22  1  0
 26 25  1  0
 27 14  1  0
 28 14  1  0
 29 18  1  0
 30 20  1  0
 31 24  1  0
 32 23  1  0
  6  8  2  0
  9  7  1  0
M  END
>  <Classification>  (825) 
1

>  <pchembl>  (825) 
5.37

>  <InChI_steorem>  (825) 
InChI=1S/C26H36N2O4/c1-19(2)26(18-27,21-9-11-23(30-4)25(17-21)32-6)13-7-14-28-15-12-20-8-10-22(29-3)24(16-20)31-5/h8-11,16-17,19,28H,7,12-15H2,1-6H3

>  <source>  (825) 
ChEMBL25

>  <source_id>  (825) 
25

>  <optional_reference>  (825) 
10.1021/jm020941h

>  <optional_origin>  (825) 
None

>  <target>  (825) 
MDR1

$$$$

     RDKit          2D

 33 34  0  0  0  0  0  0  0  0999 V2000
    2.7771   -1.0106    0.0000 C   0  0  0  0  0  0  0  0  0  0  0  0
    1.2990   -0.7500    0.0000 C   0  0  0  0  0  0  0  0  0  0  0  0
    3.2899   -2.4210    0.0000 C   0  0  0  0  0  0  0  0  0  0  0  0
    3.7000   -3.5488    0.0000 N   0  0  0  0  0  0  0  0  0  0  0  0
    1.2990    0.7500    0.0000 C   0  0  0  0  0  0  0  0  0  0  0  0
    0.0000    1.5000    0.0000 C   0  0  0  0  0  0  0  0  0  0  0  0
   13.5131    3.6960    0.0000 C   0  0  0  0  0  0  0  0  0  0  0  0
   -1.2990    0.7500    0.0000 C   0  0  0  0  0  0  0  0  0  0  0  0
   12.9981    5.1048    0.0000 C   0  0  0  0  0  0  0  0  0  0  0  0
    0.0000   -1.5000    0.0000 C   0  0  0  0  0  0  0  0  0  0  0  0
   12.5505    2.5456    0.0000 C   0  0  0  0  0  0  0  0  0  0  0  0
   -1.2990   -0.7500    0.0000 C   0  0  0  0  0  0  0  0  0  0  0  0
   11.5205    5.3632    0.0000 C   0  0  0  0  0  0  0  0  0  0  0  0
    1.7905   -2.1800    0.0000 C   0  0  0  0  0  0  0  0  0  0  0  0
   11.0729    2.8039    0.0000 C   0  0  0  0  0  0  0  0  0  0  0  0
    7.6640    0.7663    0.0000 N   0  0  0  0  0  0  0  0  0  0  0  0
   10.5579    4.2128    0.0000 C   0  0  0  0  0  0  0  0  0  0  0  0
    0.0031    3.0008    0.0000 O   0  0  0  0  0  0  0  0  0  0  0  0
    8.6294    1.9154    0.0000 C   0  0  0  0  0  0  0  0  0  0  0  0
   14.9909    3.4344    0.0000 O   0  0  0  0  0  0  0  0  0  0  0  0
   10.1075    1.6548    0.0000 C   0  0  0  0  0  0  0  0  0  0  0  0
    3.7425    0.1385    0.0000 C   0  0  0  0  0  0  0  0  0  0  0  0
   13.9588    6.2579    0.0000 O   0  0  0  0  0  0  0  0  0  0  0  0
   -2.6003    1.4977    0.0000 O   0  0  0  0  0  0  0  0  0  0  0  0
    5.2205   -0.1221    0.0000 C   0  0  0  0  0  0  0  0  0  0  0  0
    6.1860    1.0270    0.0000 C   0  0  0  0  0  0  0  0  0  0  0  0
    8.0741   -0.3614    0.0000 C   0  0  0  0  0  0  0  0  0  0  0  0
    0.6092   -1.9693    0.0000 C   0  0  0  0  0  0  0  0  0  0  0  0
    2.1983   -3.3086    0.0000 C   0  0  0  0  0  0  0  0  0  0  0  0
    1.0432    3.5994    0.0000 C   0  0  0  0  0  0  0  0  0  0  0  0
   15.4013    2.3068    0.0000 C   0  0  0  0  0  0  0  0  0  0  0  0
   13.5452    7.3843    0.0000 C   0  0  0  0  0  0  0  0  0  0  0  0
   -3.6387    0.8962    0.0000 C   0  0  0  0  0  0  0  0  0  0  0  0
  1  2  1  0
  1  3  1  0
  3  4  3  0
  2  5  2  0
  5  6  1  0
  6  8  2  0
  7  9  2  0
  2 10  1  0
  7 11  1  0
  8 12  1  0
 10 12  2  0
  9 13  1  0
  1 14  1  0
 11 15  2  0
 13 17  2  0
 15 17  1  0
  6 18  1  0
 16 19  1  0
  7 20  1  0
 15 21  1  0
 19 21  1  0
  1 22  1  0
  9 23  1  0
  8 24  1  0
 22 25  1  0
 16 26  1  0
 25 26  1  0
 16 27  1  0
 14 28  1  0
 14 29  1  0
 18 30  1  0
 20 31  1  0
 23 32  1  0
 24 33  1  0
M  END
>  <Classification>  (826) 
1

>  <pchembl>  (826) 
5.68

>  <InChI_steorem>  (826) 
InChI=1S/C27H38N2O4/c1-20(2)27(19-28,22-10-12-24(31-5)26(18-22)33-7)14-8-15-29(3)16-13-21-9-11-23(30-4)25(17-21)32-6/h9-12,17-18,20H,8,13-16H2,1-7H3

>  <source>  (826) 
ChEMBL25

>  <source_id>  (826) 
25

>  <optional_reference>  (826) 
10.1021/jm020941h

>  <optional_origin>  (826) 
None

>  <target>  (826) 
MDR1

$$$$

     RDKit          2D

 34 38  0  0  0  0  0  0  0  0999 V2000
   -4.2045    0.9625    0.0000 C   0  0  0  0  0  0  0  0  0  0  0  0
   -4.2057    0.1350    0.0000 C   0  0  0  0  0  0  0  0  0  0  0  0
   -3.4882   -0.2780    0.0000 C   0  0  0  0  0  0  0  0  0  0  0  0
   -3.4902    1.3753    0.0000 C   0  0  0  0  0  0  0  0  0  0  0  0
   -2.7766    0.9666    0.0000 C   0  0  0  0  0  0  0  0  0  0  0  0
   -2.7763    0.1399    0.0000 C   0  0  0  0  0  0  0  0  0  0  0  0
   -1.9896   -0.1178    0.0000 N   0  0  0  0  0  0  0  0  0  0  0  0
   -1.5058    0.5537    0.0000 C   0  0  0  0  0  0  0  0  0  0  0  0
   -1.9908    1.2194    0.0000 N   0  0  0  0  0  0  0  0  0  0  0  0
   -1.5842    1.9354    0.0000 C   0  0  0  0  0  0  0  0  0  0  0  0
   -0.7592    1.9421    0.0000 C   0  0  0  0  0  0  0  0  0  0  0  0
   -0.3434    1.2259    0.0000 C   0  0  0  0  0  0  0  0  0  0  0  0
    0.4807    1.2323    0.0000 C   0  0  0  0  0  0  0  0  0  0  0  0
    0.8882    1.9490    0.0000 C   0  0  0  0  0  0  0  0  0  0  0  0
    0.4650    2.6653    0.0000 C   0  0  0  0  0  0  0  0  0  0  0  0
   -0.3576    2.6550    0.0000 C   0  0  0  0  0  0  0  0  0  0  0  0
    1.7131    1.9569    0.0000 F   0  0  0  0  0  0  0  0  0  0  0  0
   -0.6808    0.5545    0.0000 N   0  0  0  0  0  0  0  0  0  0  0  0
   -0.2675   -0.1621    0.0000 C   0  0  0  0  0  0  0  0  0  0  0  0
   -0.6814   -0.8761    0.0000 C   0  0  0  0  0  0  0  0  0  0  0  0
   -0.2720   -1.5905    0.0000 C   0  0  0  0  0  0  0  0  0  0  0  0
    0.5533   -1.5943    0.0000 N   0  0  0  0  0  0  0  0  0  0  0  0
    0.9676   -0.8769    0.0000 C   0  0  0  0  0  0  0  0  0  0  0  0
    0.5564   -0.1603    0.0000 C   0  0  0  0  0  0  0  0  0  0  0  0
    0.9636   -2.3082    0.0000 C   0  0  0  0  0  0  0  0  0  0  0  0
    1.7886   -2.3107    0.0000 C   0  0  0  0  0  0  0  0  0  0  0  0
    2.1989   -3.0246    0.0000 C   0  0  0  0  0  0  0  0  0  0  0  0
    1.7840   -3.7369    0.0000 C   0  0  0  0  0  0  0  0  0  0  0  0
    2.1935   -4.4502    0.0000 C   0  0  0  0  0  0  0  0  0  0  0  0
    3.0195   -4.4533    0.0000 C   0  0  0  0  0  0  0  0  0  0  0  0
    3.4341   -3.7364    0.0000 C   0  0  0  0  0  0  0  0  0  0  0  0
    3.0219   -3.0218    0.0000 C   0  0  0  0  0  0  0  0  0  0  0  0
    3.4308   -5.1712    0.0000 O   0  0  0  0  0  0  0  0  0  0  0  0
    4.2558   -5.1725    0.0000 C   0  0  0  0  0  0  0  0  0  0  0  0
 16 11  1  0
  6  7  1  0
 14 17  1  0
  7  8  2  0
  8 18  1  0
  8  9  1  0
 18 19  1  0
 19 20  1  0
  9  5  1  0
  4  1  2  0
  9 10  1  0
  5  6  2  0
 10 11  1  0
 19 24  1  0
 20 21  1  0
 21 22  1  0
 22 23  1  0
 23 24  1  0
 22 25  1  0
 11 12  2  0
 25 26  1  0
  2  3  2  0
 26 27  1  0
 12 13  1  0
 27 28  2  0
  3  6  1  0
 28 29  1  0
 13 14  2  0
 29 30  2  0
  1  2  1  0
 30 31  1  0
 14 15  1  0
 31 32  2  0
 32 27  1  0
  5  4  1  0
 30 33  1  0
 15 16  2  0
 33 34  1  0
M  END
>  <Classification>  (827) 
1

>  <pchembl>  (827) 
5.89

>  <InChI_steorem>  (827) 
InChI=1S/C28H31FN4O/c1-34-25-12-8-21(9-13-25)14-17-32-18-15-24(16-19-32)30-28-31-26-4-2-3-5-27(26)33(28)20-22-6-10-23(29)11-7-22/h2-13,24H,14-20H2,1H3,(H,30,31)

>  <source>  (827) 
ChEMBL25

>  <source_id>  (827) 
25

>  <optional_reference>  (827) 
10.1021/jm021012t

>  <optional_origin>  (827) 
None

>  <target>  (827) 
MDR1

$$$$

     RDKit          2D

 35 36  0  0  0  0  0  0  0  0999 V2000
    2.5417   -8.7417    0.0000 C   0  0  0  0  0  0  0  0  0  0  0  0
    2.5417   -9.5667    0.0000 C   0  0  0  0  0  0  0  0  0  0  0  0
    3.3667   -8.7417    0.0000 C   0  0  0  0  0  0  0  0  0  0  0  0
    4.1917   -8.7292    0.0000 N   0  0  0  0  0  0  0  0  0  0  0  0
    3.2667   -9.9792    0.0000 C   0  0  0  0  0  0  0  0  0  0  0  0
    3.2667  -10.8167    0.0000 C   0  0  0  0  0  0  0  0  0  0  0  0
    7.5167   -6.6292    0.0000 C   0  0  0  0  0  0  0  0  0  0  0  0
    2.5417  -11.2292    0.0000 C   0  0  0  0  0  0  0  0  0  0  0  0
    7.5292   -7.4542    0.0000 C   0  0  0  0  0  0  0  0  0  0  0  0
    1.8292   -9.9917    0.0000 C   0  0  0  0  0  0  0  0  0  0  0  0
    6.8042   -6.2292    0.0000 C   0  0  0  0  0  0  0  0  0  0  0  0
    1.8292  -10.8167    0.0000 C   0  0  0  0  0  0  0  0  0  0  0  0
    6.8167   -7.8792    0.0000 C   0  0  0  0  0  0  0  0  0  0  0  0
    1.7167   -8.7667    0.0000 C   0  0  0  0  0  0  0  0  0  0  0  0
    6.0917   -6.6417    0.0000 C   0  0  0  0  0  0  0  0  0  0  0  0
    3.9417   -6.2542    0.0000 N   0  0  0  0  0  0  0  0  0  0  0  0
    6.1042   -7.4667    0.0000 C   0  0  0  0  0  0  0  0  0  0  0  0
    3.9792  -11.2292    0.0000 O   0  0  0  0  0  0  0  0  0  0  0  0
    4.6667   -6.6667    0.0000 C   0  0  0  0  0  0  0  0  0  0  0  0
    8.2292   -6.2042    0.0000 O   0  0  0  0  0  0  0  0  0  0  0  0
    5.3792   -6.2417    0.0000 C   0  0  0  0  0  0  0  0  0  0  0  0
    2.5417   -7.9167    0.0000 C   0  0  0  0  0  0  0  0  0  0  0  0
    8.2417   -7.8667    0.0000 O   0  0  0  0  0  0  0  0  0  0  0  0
    2.5417  -12.0542    0.0000 O   0  0  0  0  0  0  0  0  0  0  0  0
    3.2417   -7.5042    0.0000 C   0  0  0  0  0  0  0  0  0  0  0  0
    3.2417   -6.6792    0.0000 C   0  0  0  0  0  0  0  0  0  0  0  0
    3.9417   -5.4292    0.0000 C   0  0  0  0  0  0  0  0  0  0  0  0
    1.2917   -8.0542    0.0000 C   0  0  0  0  0  0  0  0  0  0  0  0
    1.3167   -9.4792    0.0000 C   0  0  0  0  0  0  0  0  0  0  0  0
    3.9792  -12.0542    0.0000 C   0  0  0  0  0  0  0  0  0  0  0  0
    8.9542   -6.6167    0.0000 C   0  0  0  0  0  0  0  0  0  0  0  0
    1.8292  -12.4667    0.0000 C   0  0  0  0  0  0  0  0  0  0  0  0
    8.2542   -8.6917    0.0000 C   0  0  0  0  0  0  0  0  0  0  0  0
    1.1144  -11.2287    0.0000 O   0  0  0  0  0  0  0  0  0  0  0  0
    0.4002  -10.8158    0.0000 C   0  0  0  0  0  0  0  0  0  0  0  0
  2  1  1  0
  3  1  1  0
  4  3  3  0
  5  2  2  0
  6  5  1  0
  7 11  2  0
  8 12  1  0
  9 13  2  0
 10  2  1  0
 11 15  1  0
 12 10  2  0
 13 17  1  0
 14  1  1  0
 15 21  1  0
 16 26  1  0
 17 15  2  0
 18  6  1  0
 19 16  1  0
 20  7  1  0
 21 19  1  0
 22  1  1  0
 23  9  1  0
 24  8  1  0
 25 22  1  0
 26 25  1  0
 27 16  1  0
 28 14  1  0
 29 14  1  0
 30 18  1  0
 31 20  1  0
 32 24  1  0
 33 23  1  0
  6  8  2  0
  9  7  1  0
 12 34  1  0
 34 35  1  0
M  END
>  <Classification>  (828) 
1

>  <pchembl>  (828) 
5.5

>  <InChI_steorem>  (828) 
InChI=1S/C28H40N2O5/c1-20(2)28(19-29,22-17-25(33-6)27(35-8)26(18-22)34-7)13-9-14-30(3)15-12-21-10-11-23(31-4)24(16-21)32-5/h10-11,16-18,20H,9,12-15H2,1-8H3

>  <source>  (828) 
ChEMBL25

>  <source_id>  (828) 
25

>  <optional_reference>  (828) 
10.1021/tx010125x

>  <optional_origin>  (828) 
None

>  <target>  (828) 
MDR1

$$$$

     RDKit          2D

 35 38  0  0  0  0  0  0  0  0999 V2000
    5.0588  -14.6461    0.0000 C   0  0  0  0  0  0  0  0  0  0  0  0
    5.7695  -14.2341    0.0000 C   0  0  0  0  0  0  0  0  0  0  0  0
    5.3576  -13.5193    0.0000 C   0  0  0  0  0  0  0  0  0  0  0  0
    4.5338  -13.5193    0.0000 C   0  0  0  0  0  0  0  0  0  0  0  0
    4.1218  -12.8044    0.0000 C   0  0  0  0  0  0  0  0  0  0  0  0
    4.3439  -15.0580    0.0000 N   0  0  0  0  0  0  0  0  0  0  0  0
    6.1815  -14.9448    0.0000 C   0  0  0  0  0  0  0  0  0  0  0  0
    7.0053  -14.9448    0.0000 C   0  0  0  0  0  0  0  0  0  0  0  0
    5.7695  -15.6597    0.0000 C   0  0  0  0  0  0  0  0  0  0  0  0
    6.4844  -13.8222    0.0000 C   0  0  0  0  0  0  0  0  0  0  0  0
    6.4844  -12.9984    0.0000 C   0  0  0  0  0  0  0  0  0  0  0  0
    7.1951  -12.5864    0.0000 C   0  0  0  0  0  0  0  0  0  0  0  0
    7.9100  -12.9984    0.0000 C   0  0  0  0  0  0  0  0  0  0  0  0
    7.9100  -13.8222    0.0000 C   0  0  0  0  0  0  0  0  0  0  0  0
    7.1951  -14.2341    0.0000 C   0  0  0  0  0  0  0  0  0  0  0  0
    8.6249  -12.5864    0.0000 O   0  0  0  0  0  0  0  0  0  0  0  0
    9.3397  -12.9984    0.0000 C   0  0  0  0  0  0  0  0  0  0  0  0
    7.1951  -11.7626    0.0000 O   0  0  0  0  0  0  0  0  0  0  0  0
    7.9100  -11.3507    0.0000 C   0  0  0  0  0  0  0  0  0  0  0  0
    3.2980  -12.8044    0.0000 N   0  0  0  0  0  0  0  0  0  0  0  0
    2.8861  -12.0937    0.0000 C   0  0  0  0  0  0  0  0  0  0  0  0
    2.0622  -13.5193    0.0000 C   0  0  0  0  0  0  0  0  0  0  0  0
    1.6503  -14.2341    0.0000 C   0  0  0  0  0  0  0  0  0  0  0  0
    0.8264  -14.2341    0.0000 C   0  0  0  0  0  0  0  0  0  0  0  0
    0.4145  -13.5193    0.0000 C   0  0  0  0  0  0  0  0  0  0  0  0
    0.8264  -12.8044    0.0000 C   0  0  0  0  0  0  0  0  0  0  0  0
    0.4145  -12.0937    0.0000 C   0  0  0  0  0  0  0  0  0  0  0  0
    0.8264  -11.3788    0.0000 C   0  0  0  0  0  0  0  0  0  0  0  0
    0.4145  -10.6640    0.0000 C   0  0  0  0  0  0  0  0  0  0  0  0
    0.8264   -9.9491    0.0000 C   0  0  0  0  0  0  0  0  0  0  0  0
    1.6503   -9.9491    0.0000 C   0  0  0  0  0  0  0  0  0  0  0  0
    2.0622  -10.6640    0.0000 C   0  0  0  0  0  0  0  0  0  0  0  0
    1.6503  -11.3788    0.0000 C   0  0  0  0  0  0  0  0  0  0  0  0
    2.0622  -12.0937    0.0000 C   0  0  0  0  0  0  0  0  0  0  0  0
    1.6503  -12.8044    0.0000 C   0  0  0  0  0  0  0  0  0  0  0  0
  1  2  1  0
  2  3  1  0
  3  4  1  0
  4  5  1  0
  1  6  3  0
  7  8  1  0
  7  9  1  0
  2  7  1  0
 10 11  2  0
 11 12  1  0
 12 13  2  0
 13 14  1  0
 14 15  2  0
 10 15  1  0
 16 17  1  0
 13 16  1  0
 18 19  1  0
 12 18  1  0
  2 10  1  0
 22 23  2  0
 23 24  1  0
 24 25  2  0
 25 26  1  0
 26 27  2  0
 27 28  1  0
 28 29  2  0
 29 30  1  0
 30 31  2  0
 31 32  1  0
 32 33  2  0
 28 33  1  0
 33 34  1  0
 34 35  2  0
 26 35  1  0
 22 35  1  0
 21 34  1  0
 20 21  1  0
  5 20  1  0
M  END
>  <Classification>  (829) 
1

>  <pchembl>  (829) 
7.3

>  <InChI_steorem>  (829) 
InChI=1S/C31H34N2O2/c1-22(2)31(21-32,25-14-15-29(34-3)30(19-25)35-4)16-9-17-33-20-28-26-12-7-5-10-23(26)18-24-11-6-8-13-27(24)28/h5-8,10-15,18-19,22,33H,9,16-17,20H2,1-4H3

>  <source>  (829) 
ChEMBL25

>  <source_id>  (829) 
25

>  <optional_reference>  (829) 
10.1016/j.bmc.2012.11.019

>  <optional_origin>  (829) 
None

>  <target>  (829) 
MDR1

$$$$

     RDKit          2D

 36 39  0  0  0  0  0  0  0  0999 V2000
    4.2717   -3.7125    0.0000 O   0  0  0  0  0  0  0  0  0  0  0  0
    0.7058   -2.4659    0.0000 O   0  0  0  0  0  0  0  0  0  0  0  0
    3.5567   -2.4659    0.0000 O   0  0  0  0  0  0  0  0  0  0  0  0
    0.0000   -3.7125    0.0000 O   0  0  0  0  0  0  0  0  0  0  0  0
    0.0000   -1.2375    0.0000 O   0  0  0  0  0  0  0  0  0  0  0  0
    0.7058    0.0000    0.0000 O   0  0  0  0  0  0  0  0  0  0  0  0
    2.1267   -4.9317    0.0000 N   0  0  0  0  0  0  0  0  0  0  0  0
    0.7058   -0.8250    0.0000 N   0  0  0  0  0  0  0  0  0  0  0  0
    6.3068   -3.2726    0.0000 N   0  0  0  0  0  0  0  0  0  0  0  0
    2.1267   -3.2909    0.0000 C   0  0  0  0  0  0  0  0  0  0  0  0
    2.8509   -3.7125    0.0000 C   0  0  0  0  0  0  0  0  0  0  0  0
    1.4209   -3.7125    0.0000 C   0  0  0  0  0  0  0  0  0  0  0  0
    2.1267   -2.4659    0.0000 C   0  0  0  0  0  0  0  0  0  0  0  0
    2.8509   -4.5375    0.0000 C   0  0  0  0  0  0  0  0  0  0  0  0
    1.4209   -4.5375    0.0000 C   0  0  0  0  0  0  0  0  0  0  0  0
    3.5567   -3.2909    0.0000 C   0  0  0  0  0  0  0  0  0  0  0  0
    0.7058   -3.2909    0.0000 C   0  0  0  0  0  0  0  0  0  0  0  0
    1.4209   -2.0625    0.0000 C   0  0  0  0  0  0  0  0  0  0  0  0
    2.8509   -2.0625    0.0000 C   0  0  0  0  0  0  0  0  0  0  0  0
    1.4209   -1.2375    0.0000 C   0  0  0  0  0  0  0  0  0  0  0  0
    4.9776   -3.2909    0.0000 C   0  0  0  0  0  0  0  0  0  0  0  0
    3.5567   -4.9317    0.0000 C   0  0  0  0  0  0  0  0  0  0  0  0
    0.7058   -4.9317    0.0000 C   0  0  0  0  0  0  0  0  0  0  0  0
    2.8509   -1.2375    0.0000 C   0  0  0  0  0  0  0  0  0  0  0  0
    2.1267   -0.8250    0.0000 C   0  0  0  0  0  0  0  0  0  0  0  0
    5.6467   -3.7767    0.0000 C   0  0  0  0  0  0  0  0  0  0  0  0
    5.2342   -2.5026    0.0000 C   0  0  0  0  0  0  0  0  0  0  0  0
    6.0593   -2.5026    0.0000 C   0  0  0  0  0  0  0  0  0  0  0  0
    7.0218   -3.7400    0.0000 C   0  0  0  0  0  0  0  0  0  0  0  0
    0.0000   -2.0625    0.0000 C   0  0  0  0  0  0  0  0  0  0  0  0
    7.7459   -3.3184    0.0000 C   0  0  0  0  0  0  0  0  0  0  0  0
    8.4518   -3.7400    0.0000 C   0  0  0  0  0  0  0  0  0  0  0  0
    7.7459   -2.5026    0.0000 C   0  0  0  0  0  0  0  0  0  0  0  0
    9.1668   -3.3184    0.0000 C   0  0  0  0  0  0  0  0  0  0  0  0
    8.4518   -2.0992    0.0000 C   0  0  0  0  0  0  0  0  0  0  0  0
    9.1668   -2.5026    0.0000 C   0  0  0  0  0  0  0  0  0  0  0  0
  1 16  1  0
 21  1  1  0
  2 17  1  0
  2 30  1  0
  3 16  2  0
  4 17  2  0
  5  8  1  0
  6  8  2  0
  7 14  1  0
  7 15  1  0
  8 20  1  0
  9 26  1  0
  9 28  1  0
  9 29  1  0
 10 11  1  0
 10 12  1  0
 10 13  1  0
 11 14  2  0
 11 16  1  0
 12 15  2  0
 12 17  1  0
 13 18  2  0
 13 19  1  0
 14 22  1  0
 15 23  1  0
 18 20  1  0
 19 24  2  0
 20 25  2  0
 21 26  1  0
 21 27  1  0
 24 25  1  0
 27 28  1  0
 29 31  1  0
 31 32  2  0
 31 33  1  0
 32 34  1  0
 33 35  2  0
 34 36  2  0
 35 36  1  0
M  CHG  2   5  -1   8   1
M  END
>  <Classification>  (830) 
1

>  <pchembl>  (830) 
5.07

>  <InChI_steorem>  (830) 
InChI=1S/C27H29N3O6/c1-17-23(26(31)35-3)25(20-10-7-11-21(14-20)30(33)34)24(18(2)28-17)27(32)36-22-12-13-29(16-22)15-19-8-5-4-6-9-19/h4-11,14,22,25,28H,12-13,15-16H2,1-3H3

>  <source>  (830) 
ChEMBL25

>  <source_id>  (830) 
25

>  <optional_reference>  (830) 
10.1023/a:1007568811691

>  <optional_origin>  (830) 
None

>  <target>  (830) 
MDR1

$$$$

     RDKit          2D

 37 40  0  0  0  0  0  0  0  0999 V2000
    4.2826   -3.7264    0.0000 O   0  0  0  0  0  0  0  0  0  0  0  0
    0.7138   -2.4751    0.0000 O   0  0  0  0  0  0  0  0  0  0  0  0
    3.5689   -2.4751    0.0000 O   0  0  0  0  0  0  0  0  0  0  0  0
    0.0000   -3.7264    0.0000 O   0  0  0  0  0  0  0  0  0  0  0  0
    0.7138    0.0000    0.0000 O   0  0  0  0  0  0  0  0  0  0  0  0
    0.0000   -1.2421    0.0000 O   0  0  0  0  0  0  0  0  0  0  0  0
    2.1413   -4.9593    0.0000 N   0  0  0  0  0  0  0  0  0  0  0  0
    0.7138   -0.8250    0.0000 N   0  0  0  0  0  0  0  0  0  0  0  0
    6.4240   -3.3001    0.0000 N   0  0  0  0  0  0  0  0  0  0  0  0
    2.1413   -3.3001    0.0000 C   0  0  0  0  0  0  0  0  0  0  0  0
    2.8551   -3.7264    0.0000 C   0  0  0  0  0  0  0  0  0  0  0  0
    1.4183   -3.7264    0.0000 C   0  0  0  0  0  0  0  0  0  0  0  0
    2.1413   -2.4751    0.0000 C   0  0  0  0  0  0  0  0  0  0  0  0
    2.8551   -4.5514    0.0000 C   0  0  0  0  0  0  0  0  0  0  0  0
    1.4183   -4.5514    0.0000 C   0  0  0  0  0  0  0  0  0  0  0  0
    3.5689   -3.3001    0.0000 C   0  0  0  0  0  0  0  0  0  0  0  0
    0.7138   -3.3001    0.0000 C   0  0  0  0  0  0  0  0  0  0  0  0
    1.4183   -2.0579    0.0000 C   0  0  0  0  0  0  0  0  0  0  0  0
    2.8551   -2.0579    0.0000 C   0  0  0  0  0  0  0  0  0  0  0  0
    1.4183   -1.2421    0.0000 C   0  0  0  0  0  0  0  0  0  0  0  0
    3.5689   -4.9593    0.0000 C   0  0  0  0  0  0  0  0  0  0  0  0
    4.9964   -3.3001    0.0000 C   0  0  0  0  0  0  0  0  0  0  0  0
    0.7138   -4.9593    0.0000 C   0  0  0  0  0  0  0  0  0  0  0  0
    2.8551   -1.2421    0.0000 C   0  0  0  0  0  0  0  0  0  0  0  0
    2.1413   -0.8250    0.0000 C   0  0  0  0  0  0  0  0  0  0  0  0
    5.7009   -3.7264    0.0000 C   0  0  0  0  0  0  0  0  0  0  0  0
    4.9964   -2.4751    0.0000 C   0  0  0  0  0  0  0  0  0  0  0  0
    5.7009   -2.0579    0.0000 C   0  0  0  0  0  0  0  0  0  0  0  0
    6.4240   -2.4751    0.0000 C   0  0  0  0  0  0  0  0  0  0  0  0
    0.0000   -2.0579    0.0000 C   0  0  0  0  0  0  0  0  0  0  0  0
    7.1285   -3.7264    0.0000 C   0  0  0  0  0  0  0  0  0  0  0  0
    7.8608   -3.3001    0.0000 C   0  0  0  0  0  0  0  0  0  0  0  0
    8.5560   -3.7264    0.0000 C   0  0  0  0  0  0  0  0  0  0  0  0
    7.8608   -2.4751    0.0000 C   0  0  0  0  0  0  0  0  0  0  0  0
    9.2698   -3.3001    0.0000 C   0  0  0  0  0  0  0  0  0  0  0  0
    8.5560   -2.0579    0.0000 C   0  0  0  0  0  0  0  0  0  0  0  0
    9.2698   -2.4751    0.0000 C   0  0  0  0  0  0  0  0  0  0  0  0
  1 16  1  0
 22  1  1  0
  2 17  1  0
  2 30  1  0
  3 16  2  0
  4 17  2  0
  5  8  1  0
  6  8  2  0
  7 14  1  0
  7 15  1  0
  8 20  1  0
  9 26  1  0
  9 29  1  0
  9 31  1  0
 10 11  1  0
 10 12  1  0
 10 13  1  0
 11 14  2  0
 11 16  1  0
 12 15  2  0
 12 17  1  0
 13 18  2  0
 13 19  1  0
 14 21  1  0
 15 23  1  0
 18 20  1  0
 19 24  2  0
 20 25  2  0
 22 26  1  0
 22 27  1  0
 24 25  1  0
 27 28  1  0
 28 29  1  0
 31 32  1  0
 32 33  2  0
 32 34  1  0
 33 35  1  0
 34 36  2  0
 35 37  2  0
 36 37  1  0
M  CHG  2   5  -1   8   1
M  END
>  <Classification>  (831) 
1

>  <pchembl>  (831) 
5.02

>  <InChI_steorem>  (831) 
InChI=1S/C28H31N3O6/c1-18-24(27(32)36-3)26(21-11-7-12-22(15-21)31(34)35)25(19(2)29-18)28(33)37-23-13-8-14-30(17-23)16-20-9-5-4-6-10-20/h4-7,9-12,15,23,26,29H,8,13-14,16-17H2,1-3H3

>  <source>  (831) 
ChEMBL25

>  <source_id>  (831) 
25

>  <optional_reference>  (831) 
10.1023/a:1007568811691

>  <optional_origin>  (831) 
None

>  <target>  (831) 
MDR1

$$$$

     RDKit          2D

 45 49  0  0  0  0  0  0  0  0999 V2000
    3.0579  -17.4480    0.0000 C   0  0  0  0  0  0  0  0  0  0  0  0
    2.3414  -17.8687    0.0000 N   0  0  0  0  0  0  0  0  0  0  0  0
    3.0579  -16.6356    0.0000 C   0  0  0  0  0  0  0  0  0  0  0  0
   -1.9165  -17.9437    0.0000 N   0  0  0  0  0  0  0  0  0  0  0  0
   -2.6539  -17.5813    0.0000 C   0  0  0  0  0  0  0  0  0  0  0  0
   -1.2291  -17.4855    0.0000 C   0  0  0  0  0  0  0  0  0  0  0  0
   -3.3829  -17.9604    0.0000 C   0  0  0  0  0  0  0  0  0  0  0  0
    3.7913  -18.6771    0.0000 N   0  0  0  0  0  0  0  0  0  0  0  0
   -3.9745  -17.3813    0.0000 C   0  0  0  0  0  0  0  0  0  0  0  0
   -2.7955  -16.7648    0.0000 C   0  0  0  0  0  0  0  0  0  0  0  0
    2.3289  -16.2231    0.0000 N   0  0  0  0  0  0  0  0  0  0  0  0
   -0.5124  -17.8979    0.0000 C   0  0  0  0  0  0  0  0  0  0  0  0
    3.7788  -17.8605    0.0000 C   0  0  0  0  0  0  0  0  0  0  0  0
   -3.6079  -16.6439    0.0000 C   0  0  0  0  0  0  0  0  0  0  0  0
    1.6290  -17.4605    0.0000 C   0  0  0  0  0  0  0  0  0  0  0  0
    2.3539  -18.7021    0.0000 C   0  0  0  0  0  0  0  0  0  0  0  0
    3.7704  -16.2106    0.0000 O   0  0  0  0  0  0  0  0  0  0  0  0
   -1.2416  -16.6689    0.0000 O   0  0  0  0  0  0  0  0  0  0  0  0
    0.2000  -17.4855    0.0000 C   0  0  0  0  0  0  0  0  0  0  0  0
   -0.5041  -18.7229    0.0000 C   0  0  0  0  0  0  0  0  0  0  0  0
    2.3289  -15.3940    0.0000 C   0  0  0  0  0  0  0  0  0  0  0  0
    4.5078  -19.0978    0.0000 C   0  0  0  0  0  0  0  0  0  0  0  0
    5.2452  -21.1518    0.0000 N   0  0  0  0  0  0  0  0  0  0  0  0
    3.0829  -19.1020    0.0000 C   0  0  0  0  0  0  0  0  0  0  0  0
    4.5162  -19.9144    0.0000 C   0  0  0  0  0  0  0  0  0  0  0  0
    0.9249  -17.8854    0.0000 C   0  0  0  0  0  0  0  0  0  0  0  0
   -2.2039  -16.1731    0.0000 O   0  0  0  0  0  0  0  0  0  0  0  0
   -1.2166  -19.1395    0.0000 C   0  0  0  0  0  0  0  0  0  0  0  0
    5.2327  -20.3227    0.0000 C   0  0  0  0  0  0  0  0  0  0  0  0
    0.9249  -18.7146    0.0000 O   0  0  0  0  0  0  0  0  0  0  0  0
   -3.5954  -18.7645    0.0000 C   0  0  0  0  0  0  0  0  0  0  0  0
   -4.7537  -17.5980    0.0000 C   0  0  0  0  0  0  0  0  0  0  0  0
    4.5287  -21.5683    0.0000 C   0  0  0  0  0  0  0  0  0  0  0  0
    3.1538  -15.3815    0.0000 C   0  0  0  0  0  0  0  0  0  0  0  0
    1.5040  -15.4024    0.0000 C   0  0  0  0  0  0  0  0  0  0  0  0
    2.3247  -14.5650    0.0000 C   0  0  0  0  0  0  0  0  0  0  0  0
    3.8038  -20.3269    0.0000 C   0  0  0  0  0  0  0  0  0  0  0  0
   -1.2082  -19.9727    0.0000 C   0  0  0  0  0  0  0  0  0  0  0  0
   -1.9290  -18.7395    0.0000 C   0  0  0  0  0  0  0  0  0  0  0  0
    3.8038  -21.1643    0.0000 C   0  0  0  0  0  0  0  0  0  0  0  0
   -4.3870  -18.9770    0.0000 C   0  0  0  0  0  0  0  0  0  0  0  0
   -4.9661  -18.3979    0.0000 C   0  0  0  0  0  0  0  0  0  0  0  0
   -1.9165  -20.3894    0.0000 C   0  0  0  0  0  0  0  0  0  0  0  0
   -2.6455  -19.1520    0.0000 C   0  0  0  0  0  0  0  0  0  0  0  0
   -2.6330  -19.9769    0.0000 C   0  0  0  0  0  0  0  0  0  0  0  0
  5  4  1  0
  6 12  1  0
  7  5  1  0
  8 13  1  0
  9  7  2  0
 10  5  1  0
 11  3  1  0
 12 19  1  0
 13  1  1  0
 14 10  1  0
 15  2  1  0
 16  2  1  0
 17  3  2  0
 18  6  2  0
 19 26  1  0
 20 12  1  0
 21 11  1  0
 22  8  1  0
 23 29  2  0
 24 16  1  0
 25 22  1  0
 26 15  1  0
 10 27  1  0
 28 20  1  0
 29 25  1  0
 26 30  1  0
 31  7  1  0
 32  9  1  0
 33 40  2  0
 34 21  1  0
 35 21  1  0
 36 21  1  0
 37 25  2  0
 38 28  2  0
 39 28  1  0
 40 37  1  0
 41 31  2  0
 42 41  1  0
 43 38  1  0
 44 39  2  0
 45 43  2  0
 24  8  1  0
 23 33  1  0
 44 45  1  0
 14  9  1  0
 32 42  2  0
  2  1  1  0
  1  3  1  0
  4  6  1  0
M  END
>  <Classification>  (832) 
0

>  <pchembl>  (832) 
4.36

>  <InChI_steorem>  (832) 
InChI=1S/C36H47N5O4/c1-36(2,3)39-35(45)31-24-40(22-26-12-9-15-37-21-26)16-17-41(31)23-29(42)19-28(18-25-10-5-4-6-11-25)34(44)38-33-30-14-8-7-13-27(30)20-32(33)43/h4-15,21,28-29,31-33,42-43H,16-20,22-24H2,1-3H3,(H,38,44)(H,39,45)

>  <source>  (832) 
ChEMBL25

>  <source_id>  (832) 
25

>  <optional_reference>  (832) 
None

>  <optional_origin>  (832) 
None

>  <target>  (832) 
MDR1

$$$$

     RDKit          2D

 45 49  0  0  0  0  0  0  0  0999 V2000
    4.9935   -1.2455    0.0000 O   0  0  0  0  0  0  0  0  0  0  0  0
    0.7084   -1.2455    0.0000 O   0  0  0  0  0  0  0  0  0  0  0  0
    4.2850   -2.4796    0.0000 O   0  0  0  0  0  0  0  0  0  0  0  0
    1.4397   -2.4796    0.0000 O   0  0  0  0  0  0  0  0  0  0  0  0
    4.2850   -4.9478    0.0000 O   0  0  0  0  0  0  0  0  0  0  0  0
    4.9935   -3.7137    0.0000 O   0  0  0  0  0  0  0  0  0  0  0  0
    2.8567    0.0000    0.0000 N   0  0  0  0  0  0  0  0  0  0  0  0
    4.2850   -4.1251    0.0000 N   0  0  0  0  0  0  0  0  0  0  0  0
    8.5701   -2.4796    0.0000 N   0  0  0  0  0  0  0  0  0  0  0  0
    7.1417   -1.6683    0.0000 N   0  0  0  0  0  0  0  0  0  0  0  0
    2.8567   -1.6683    0.0000 C   0  0  0  0  0  0  0  0  0  0  0  0
    3.5765   -1.2455    0.0000 C   0  0  0  0  0  0  0  0  0  0  0  0
    2.1482   -1.2455    0.0000 C   0  0  0  0  0  0  0  0  0  0  0  0
    2.8567   -2.4796    0.0000 C   0  0  0  0  0  0  0  0  0  0  0  0
    3.5765   -0.4228    0.0000 C   0  0  0  0  0  0  0  0  0  0  0  0
    2.1482   -0.4228    0.0000 C   0  0  0  0  0  0  0  0  0  0  0  0
    4.2850   -1.6683    0.0000 C   0  0  0  0  0  0  0  0  0  0  0  0
    1.4397   -1.6683    0.0000 C   0  0  0  0  0  0  0  0  0  0  0  0
    3.5765   -2.8910    0.0000 C   0  0  0  0  0  0  0  0  0  0  0  0
    2.1482   -2.8910    0.0000 C   0  0  0  0  0  0  0  0  0  0  0  0
    3.5765   -3.7137    0.0000 C   0  0  0  0  0  0  0  0  0  0  0  0
    4.2850    0.0000    0.0000 C   0  0  0  0  0  0  0  0  0  0  0  0
    1.4397    0.0000    0.0000 C   0  0  0  0  0  0  0  0  0  0  0  0
    2.1482   -3.7137    0.0000 C   0  0  0  0  0  0  0  0  0  0  0  0
    2.8567   -4.1251    0.0000 C   0  0  0  0  0  0  0  0  0  0  0  0
    9.2785   -2.8910    0.0000 C   0  0  0  0  0  0  0  0  0  0  0  0
    9.9869   -2.4796    0.0000 C   0  0  0  0  0  0  0  0  0  0  0  0
    9.2785   -3.7137    0.0000 C   0  0  0  0  0  0  0  0  0  0  0  0
    5.7133   -1.6683    0.0000 C   0  0  0  0  0  0  0  0  0  0  0  0
    8.5701   -1.6683    0.0000 C   0  0  0  0  0  0  0  0  0  0  0  0
    7.8501   -2.8910    0.0000 C   0  0  0  0  0  0  0  0  0  0  0  0
    6.4333   -1.2455    0.0000 C   0  0  0  0  0  0  0  0  0  0  0  0
    7.8501   -1.2455    0.0000 C   0  0  0  0  0  0  0  0  0  0  0  0
    7.1417   -2.4796    0.0000 C   0  0  0  0  0  0  0  0  0  0  0  0
    0.0000   -1.6683    0.0000 C   0  0  0  0  0  0  0  0  0  0  0  0
    9.9869   -1.6683    0.0000 C   0  0  0  0  0  0  0  0  0  0  0  0
    9.9869   -4.1251    0.0000 C   0  0  0  0  0  0  0  0  0  0  0  0
   10.7068   -2.8910    0.0000 C   0  0  0  0  0  0  0  0  0  0  0  0
    8.5701   -4.1251    0.0000 C   0  0  0  0  0  0  0  0  0  0  0  0
   10.7068   -1.2455    0.0000 C   0  0  0  0  0  0  0  0  0  0  0  0
    9.9869   -4.9478    0.0000 C   0  0  0  0  0  0  0  0  0  0  0  0
   11.4267   -2.4796    0.0000 C   0  0  0  0  0  0  0  0  0  0  0  0
    8.5701   -4.9478    0.0000 C   0  0  0  0  0  0  0  0  0  0  0  0
   11.4267   -1.6683    0.0000 C   0  0  0  0  0  0  0  0  0  0  0  0
    9.2785   -5.3706    0.0000 C   0  0  0  0  0  0  0  0  0  0  0  0
  1 17  1  0
  1 29  1  0
  2 18  1  0
  2 35  1  0
  3 17  2  0
  4 18  2  0
  5  8  1  0
  6  8  2  0
  7 15  1  0
  7 16  1  0
  8 21  1  0
  9 26  1  0
  9 30  1  0
  9 31  1  0
 10 32  1  0
 10 33  1  0
 10 34  1  0
 11 12  1  0
 11 13  1  0
 11 14  1  0
 12 15  2  0
 12 17  1  0
 13 16  2  0
 13 18  1  0
 14 19  2  0
 14 20  1  0
 15 22  1  0
 16 23  1  0
 19 21  1  0
 20 24  2  0
 21 25  2  0
 24 25  1  0
 26 27  1  0
 26 28  1  0
 27 36  2  0
 27 38  1  0
 28 37  2  0
 28 39  1  0
 29 32  1  0
 30 33  1  0
 31 34  1  0
 36 40  1  0
 37 41  1  0
 38 42  2  0
 39 43  2  0
 40 44  2  0
 41 45  2  0
 42 44  1  0
 43 45  1  0
M  CHG  2   5  -1   8   1
M  END
>  <Classification>  (833) 
1

>  <pchembl>  (833) 
5.34

>  <InChI_steorem>  (833) 
InChI=1S/C35H38N4O6/c1-24-30(34(40)44-3)32(28-15-10-16-29(23-28)39(42)43)31(25(2)36-24)35(41)45-22-21-37-17-19-38(20-18-37)33(26-11-6-4-7-12-26)27-13-8-5-9-14-27/h4-16,23,32-33,36H,17-22H2,1-3H3

>  <source>  (833) 
ChEMBL25

>  <source_id>  (833) 
25

>  <optional_reference>  (833) 
10.1023/a:1007568811691

>  <optional_origin>  (833) 
None

>  <target>  (833) 
MDR1

$$$$

     RDKit          2D

 43 49  0  0  0  0  0  0  0  0999 V2000
    0.8167   -0.1042    0.0000 N   0  0  0  0  0  0  0  0  0  0  0  0
    0.8167    0.6208    0.0000 C   0  0  0  0  0  0  0  0  0  0  0  0
   -0.2583    0.2333    0.0000 C   0  0  0  0  0  0  0  0  0  0  0  0
    0.1917   -0.3042    0.0000 C   0  0  0  0  0  0  0  0  0  0  0  0
    0.1542    0.8083    0.0000 O   0  0  0  0  0  0  0  0  0  0  0  0
   -2.1583   -1.8292    0.0000 C   0  0  0  0  0  0  0  0  0  0  0  0
   -2.1583   -3.2542    0.0000 C   0  0  0  0  0  0  0  0  0  0  0  0
    1.4292   -0.4792    0.0000 C   0  0  0  0  0  0  0  0  0  0  0  0
    2.0542   -0.1042    0.0000 C   0  0  0  0  0  0  0  0  0  0  0  0
    2.0542    0.6208    0.0000 N   0  0  0  0  0  0  0  0  0  0  0  0
   -2.3083   -3.9417    0.0000 C   0  0  0  0  0  0  0  0  0  0  0  0
   -0.9458    0.2458    0.0000 N   0  0  0  0  0  0  0  0  0  0  0  0
   -2.7583   -2.8917    0.0000 C   0  0  0  0  0  0  0  0  0  0  0  0
    1.4292    0.9708    0.0000 C   0  0  0  0  0  0  0  0  0  0  0  0
   -2.7583   -2.1792    0.0000 C   0  0  0  0  0  0  0  0  0  0  0  0
   -1.5333   -2.1792    0.0000 C   0  0  0  0  0  0  0  0  0  0  0  0
   -2.1583   -1.1167    0.0000 C   0  0  0  0  0  0  0  0  0  0  0  0
   -3.2208   -3.9417    0.0000 N   0  0  0  0  0  0  0  0  0  0  0  0
   -1.5458   -0.7667    0.0000 C   0  0  0  0  0  0  0  0  0  0  0  0
   -0.9333   -1.8292    0.0000 N   0  0  0  0  0  0  0  0  0  0  0  0
   -1.5458   -0.0667    0.0000 C   0  0  0  0  0  0  0  0  0  0  0  0
   -3.3708   -3.2542    0.0000 C   0  0  0  0  0  0  0  0  0  0  0  0
   -1.5333   -2.8917    0.0000 C   0  0  0  0  0  0  0  0  0  0  0  0
   -0.9458   -1.1167    0.0000 C   0  0  0  0  0  0  0  0  0  0  0  0
    0.0167   -0.9792    0.0000 O   0  0  0  0  0  0  0  0  0  0  0  0
    2.6667   -0.4667    0.0000 O   0  0  0  0  0  0  0  0  0  0  0  0
    0.7917    1.3958    0.0000 O   0  0  0  0  0  0  0  0  0  0  0  0
    1.4292   -1.1792    0.0000 C   0  0  0  0  0  0  0  0  0  0  0  0
   -0.5833    0.8708    0.0000 C   0  0  0  0  0  0  0  0  0  0  0  0
   -2.1583    0.2833    0.0000 O   0  0  0  0  0  0  0  0  0  0  0  0
   -1.8083   -4.4167    0.0000 Br  0  0  0  0  0  0  0  0  0  0  0  0
    2.5792    1.0833    0.0000 C   0  0  0  0  0  0  0  0  0  0  0  0
   -3.3708   -1.8292    0.0000 C   0  0  0  0  0  0  0  0  0  0  0  0
   -0.3333   -2.1792    0.0000 C   0  0  0  0  0  0  0  0  0  0  0  0
    1.5792    1.6458    0.0000 C   0  0  0  0  0  0  0  0  0  0  0  0
   -3.9833   -2.8917    0.0000 C   0  0  0  0  0  0  0  0  0  0  0  0
    2.2792    1.7458    0.0000 C   0  0  0  0  0  0  0  0  0  0  0  0
   -3.9833   -2.1792    0.0000 C   0  0  0  0  0  0  0  0  0  0  0  0
    2.0417   -1.5292    0.0000 C   0  0  0  0  0  0  0  0  0  0  0  0
   -1.2833    0.8958    0.0000 C   0  0  0  0  0  0  0  0  0  0  0  0
   -0.4208    1.5583    0.0000 C   0  0  0  0  0  0  0  0  0  0  0  0
    2.6417   -1.1792    0.0000 C   0  0  0  0  0  0  0  0  0  0  0  0
    2.0167   -2.2417    0.0000 C   0  0  0  0  0  0  0  0  0  0  0  0
  2  1  1  0
  3  4  1  0
  4  1  1  0
  5  2  1  0
  6 17  2  0
  7 23  1  0
  8  1  1  0
  9  8  1  0
 10  9  1  0
 11  7  2  0
 12  3  1  0
 13 15  2  0
 14  2  1  0
 15  6  1  0
 16 20  1  0
 17 19  1  0
 18 22  1  0
 19 21  1  0
 20 24  1  0
 21 12  1  0
 22 13  1  0
 23 16  1  0
 24 19  1  0
 25  4  2  0
 26  9  2  0
  2 27  1  0
  8 28  1  0
  3 29  1  0
 30 21  2  0
 31 11  1  0
 32 10  1  0
 33 15  1  0
 34 20  1  0
 35 14  1  0
 36 38  1  0
 37 35  1  0
 38 33  2  0
 39 28  1  0
 40 29  1  0
 41 29  1  0
 42 39  1  0
 43 39  1  0
  5  3  1  0
 14 10  1  0
 32 37  1  0
  6 16  1  0
 13  7  1  0
 22 36  2  0
 11 18  1  0
M  END
>  <Classification>  (834) 
1

>  <pchembl>  (834) 
5.4

>  <InChI_steorem>  (834) 
InChI=1S/C32H40BrN5O5/c1-16(2)12-24-29(40)37-11-7-10-25(37)32(42)38(24)30(41)31(43-32,17(3)4)35-28(39)18-13-20-19-8-6-9-22-26(19)21(27(33)34-22)14-23(20)36(5)15-18/h6,8-9,13,16-18,23-25,34,42H,7,10-12,14-15H2,1-5H3,(H,35,39)

>  <source>  (834) 
ChEMBL25

>  <source_id>  (834) 
25

>  <optional_reference>  (834) 
10.1124/mol.61.5.964

>  <optional_origin>  (834) 
None

>  <target>  (834) 
MDR1

$$$$

     RDKit          2D

 48 53  0  0  0  0  0  0  0  0999 V2000
    7.6375   -1.3708    0.0000 C   0  0  0  0  0  0  0  0  0  0  0  0
    7.6333   -2.1958    0.0000 C   0  0  0  0  0  0  0  0  0  0  0  0
    6.9208   -0.9583    0.0000 C   0  0  0  0  0  0  0  0  0  0  0  0
    6.9125   -3.4292    0.0000 C   0  0  0  0  0  0  0  0  0  0  0  0
    6.1958   -3.8417    0.0000 C   0  0  0  0  0  0  0  0  0  0  0  0
    6.9167   -2.6042    0.0000 N   0  0  0  0  0  0  0  0  0  0  0  0
    8.3458   -0.9583    0.0000 C   0  0  0  0  0  0  0  0  0  0  0  0
    8.3458   -2.6083    0.0000 C   0  0  0  0  0  0  0  0  0  0  0  0
    0.4875    0.2917    0.0000 C   0  0  0  0  0  0  0  0  0  0  0  0
    5.4833   -5.0750    0.0000 N   0  0  0  0  0  0  0  0  0  0  0  0
    6.2083   -1.3708    0.0000 N   0  0  0  0  0  0  0  0  0  0  0  0
    0.4917    1.1250    0.0000 C   0  0  0  0  0  0  0  0  0  0  0  0
    1.9292    0.2917    0.0000 N   0  0  0  0  0  0  0  0  0  0  0  0
    9.0583   -1.3667    0.0000 C   0  0  0  0  0  0  0  0  0  0  0  0
    9.0625   -2.1958    0.0000 C   0  0  0  0  0  0  0  0  0  0  0  0
    5.4833   -3.4250    0.0000 C   0  0  0  0  0  0  0  0  0  0  0  0
   -0.2250   -0.1167    0.0000 C   0  0  0  0  0  0  0  0  0  0  0  0
   -0.9375    0.2958    0.0000 C   0  0  0  0  0  0  0  0  0  0  0  0
   -0.9375    1.1250    0.0000 C   0  0  0  0  0  0  0  0  0  0  0  0
   -0.2250    1.5375    0.0000 C   0  0  0  0  0  0  0  0  0  0  0  0
    6.1958   -4.6625    0.0000 C   0  0  0  0  0  0  0  0  0  0  0  0
    1.2042   -0.1208    0.0000 C   0  0  0  0  0  0  0  0  0  0  0  0
    4.7708   -3.8375    0.0000 C   0  0  0  0  0  0  0  0  0  0  0  0
    6.9250   -0.1333    0.0000 O   0  0  0  0  0  0  0  0  0  0  0  0
    7.6250   -3.8458    0.0000 O   0  0  0  0  0  0  0  0  0  0  0  0
    4.7667   -4.6583    0.0000 C   0  0  0  0  0  0  0  0  0  0  0  0
    1.2083    1.5458    0.0000 C   0  0  0  0  0  0  0  0  0  0  0  0
    5.4917   -0.9583    0.0000 C   0  0  0  0  0  0  0  0  0  0  0  0
    1.9292    1.1250    0.0000 C   0  0  0  0  0  0  0  0  0  0  0  0
    2.6417   -0.1250    0.0000 C   0  0  0  0  0  0  0  0  0  0  0  0
    9.7708   -0.9542    0.0000 O   0  0  0  0  0  0  0  0  0  0  0  0
   10.4875   -1.3667    0.0000 C   0  0  0  0  0  0  0  0  0  0  0  0
    4.0708   -0.1292    0.0000 C   0  0  0  0  0  0  0  0  0  0  0  0
    9.7750   -2.6083    0.0000 O   0  0  0  0  0  0  0  0  0  0  0  0
   -1.6500    1.5333    0.0000 O   0  0  0  0  0  0  0  0  0  0  0  0
   -1.6542   -0.1167    0.0000 O   0  0  0  0  0  0  0  0  0  0  0  0
    3.3583    0.2875    0.0000 C   0  0  0  0  0  0  0  0  0  0  0  0
    5.4917   -0.1292    0.0000 C   0  0  0  0  0  0  0  0  0  0  0  0
    4.7750   -1.3667    0.0000 C   0  0  0  0  0  0  0  0  0  0  0  0
    4.7792    0.2833    0.0000 C   0  0  0  0  0  0  0  0  0  0  0  0
    4.0625   -0.9542    0.0000 C   0  0  0  0  0  0  0  0  0  0  0  0
    4.0625   -3.4208    0.0000 C   0  0  0  0  0  0  0  0  0  0  0  0
    4.0542   -5.0667    0.0000 C   0  0  0  0  0  0  0  0  0  0  0  0
   10.4875   -2.1958    0.0000 C   0  0  0  0  0  0  0  0  0  0  0  0
   -2.3667    1.1208    0.0000 C   0  0  0  0  0  0  0  0  0  0  0  0
   -2.3667    0.2958    0.0000 C   0  0  0  0  0  0  0  0  0  0  0  0
    3.3458   -3.8292    0.0000 C   0  0  0  0  0  0  0  0  0  0  0  0
    3.3458   -4.6542    0.0000 C   0  0  0  0  0  0  0  0  0  0  0  0
  2  1  1  0
  3  1  1  0
  4  6  1  0
  5  4  1  0
  6  2  1  0
  7  1  2  0
  8  2  2  0
  9 22  1  0
 10 21  2  0
 11  3  1  0
 12 27  1  0
 13 30  1  0
 14  7  1  0
 15 14  2  0
 16  5  2  0
 17  9  2  0
 18 17  1  0
 19 20  1  0
 20 12  2  0
 21  5  1  0
 22 13  1  0
 23 16  1  0
 24  3  2  0
 25  4  2  0
 26 10  1  0
 27 29  1  0
 28 11  1  0
 29 13  1  0
 30 37  1  0
 31 14  1  0
 32 31  1  0
 33 40  2  0
 34 15  1  0
 35 19  1  0
 36 18  1  0
 37 33  1  0
 38 28  2  0
 39 28  1  0
 40 38  1  0
 41 39  2  0
 42 23  2  0
 43 26  2  0
 44 34  1  0
 45 35  1  0
 46 36  1  0
 47 42  1  0
 48 43  1  0
 15  8  1  0
 41 33  1  0
 23 26  1  0
 48 47  2  0
  9 12  1  0
 18 19  2  0
M  END
>  <Classification>  (835) 
1

>  <pchembl>  (835) 
6.9

>  <InChI_steorem>  (835) 
InChI=1S/C38H38N4O6/c1-45-33-18-25-14-16-42(23-28(25)19-34(33)46-2)15-13-24-9-11-29(12-10-24)40-38(44)30-20-35(47-3)36(48-4)21-32(30)41-37(43)27-17-26-7-5-6-8-31(26)39-22-27/h5-12,17-22H,13-16,23H2,1-4H3,(H,40,44)(H,41,43)

>  <source>  (835) 
ChEMBL25

>  <source_id>  (835) 
25

>  <optional_reference>  (835) 
10.1016/j.bmc.2007.11.057

>  <optional_origin>  (835) 
None

>  <target>  (835) 
MDR1

$$$$

     RDKit          2D

 48 53  0  0  0  0  0  0  0  0999 V2000
   11.7048   -4.5317    0.0000 C   0  0  0  0  0  0  0  0  0  0  0  0
    9.8311   -6.2156    0.0000 C   0  0  0  0  0  0  0  0  0  0  0  0
   16.7483   -6.5705    0.0000 C   0  0  0  0  0  0  0  0  0  0  0  0
   17.2394   -7.7674    0.0000 C   0  0  0  0  0  0  0  0  0  0  0  0
   16.5337   -7.3588    0.0000 C   0  0  0  0  0  0  0  0  0  0  0  0
   16.5327   -8.1743    0.0000 C   0  0  0  0  0  0  0  0  0  0  0  0
   18.1598   -3.3059    0.0000 C   0  0  0  0  0  0  0  0  0  0  0  0
   20.8384   -6.1743    0.0000 C   0  0  0  0  0  0  0  0  0  0  0  0
   15.3285   -5.7534    0.0000 C   0  0  0  0  0  0  0  0  0  0  0  0
   14.9196   -6.4565    0.0000 O   0  0  0  0  0  0  0  0  0  0  0  0
   17.0413   -4.6349    0.0000 O   0  0  0  0  0  0  0  0  0  0  0  0
   17.4540   -5.3448    0.0000 S   0  0  0  0  0  0  0  0  0  0  0  0
   17.8625   -4.6324    0.0000 O   0  0  0  0  0  0  0  0  0  0  0  0
   12.5014   -5.7575    0.0000 O   0  0  0  0  0  0  0  0  0  0  0  0
   13.2091   -5.3489    0.0000 C   0  0  0  0  0  0  0  0  0  0  0  0
   13.9168   -5.7575    0.0000 N   0  0  0  0  0  0  0  0  0  0  0  0
   14.6245   -5.3489    0.0000 C   0  0  0  0  0  0  0  0  0  0  0  0
   16.0399   -5.3489    0.0000 C   0  0  0  0  0  0  0  0  0  0  0  0
   16.7476   -5.7575    0.0000 N   0  0  0  0  0  0  0  0  0  0  0  0
   18.1630   -5.7575    0.0000 C   0  0  0  0  0  0  0  0  0  0  0  0
   13.2091   -4.5317    0.0000 O   0  0  0  0  0  0  0  0  0  0  0  0
   14.6245   -4.5317    0.0000 C   0  0  0  0  0  0  0  0  0  0  0  0
   15.3322   -4.1231    0.0000 C   0  0  0  0  0  0  0  0  0  0  0  0
   16.0397   -4.5342    0.0000 C   0  0  0  0  0  0  0  0  0  0  0  0
   16.7469   -4.1263    0.0000 C   0  0  0  0  0  0  0  0  0  0  0  0
   16.7474   -3.3083    0.0000 C   0  0  0  0  0  0  0  0  0  0  0  0
   16.0347   -2.8998    0.0000 C   0  0  0  0  0  0  0  0  0  0  0  0
   15.3304   -3.3101    0.0000 C   0  0  0  0  0  0  0  0  0  0  0  0
   18.1582   -6.5789    0.0000 C   0  0  0  0  0  0  0  0  0  0  0  0
   18.8664   -6.9916    0.0000 C   0  0  0  0  0  0  0  0  0  0  0  0
   18.8709   -5.3503    0.0000 C   0  0  0  0  0  0  0  0  0  0  0  0
   19.5796   -5.7592    0.0000 C   0  0  0  0  0  0  0  0  0  0  0  0
   19.5758   -6.5796    0.0000 C   0  0  0  0  0  0  0  0  0  0  0  0
   20.3547   -6.8367    0.0000 O   0  0  0  0  0  0  0  0  0  0  0  0
   20.3610   -5.5095    0.0000 O   0  0  0  0  0  0  0  0  0  0  0  0
   17.4545   -2.8987    0.0000 O   0  0  0  0  0  0  0  0  0  0  0  0
   18.8699   -2.8968    0.0000 C   0  0  0  0  0  0  0  0  0  0  0  0
   19.6164   -3.2286    0.0000 C   0  0  0  0  0  0  0  0  0  0  0  0
   20.1624   -2.6206    0.0000 S   0  0  0  0  0  0  0  0  0  0  0  0
   19.7528   -1.9133    0.0000 C   0  0  0  0  0  0  0  0  0  0  0  0
   18.9538   -2.0844    0.0000 N   0  0  0  0  0  0  0  0  0  0  0  0
   20.0842   -1.1663    0.0000 C   0  0  0  0  0  0  0  0  0  0  0  0
   11.7937   -5.3489    0.0000 C   0  0  0  0  0  0  0  0  0  0  0  0
   10.9087   -4.3642    0.0000 O   0  0  0  0  0  0  0  0  0  0  0  0
   11.0470   -5.6791    0.0000 C   0  0  0  0  0  0  0  0  0  0  0  0
   10.4977   -5.0686    0.0000 C   0  0  0  0  0  0  0  0  0  0  0  0
    9.7473   -5.4022    0.0000 O   0  0  0  0  0  0  0  0  0  0  0  0
   10.6359   -6.3901    0.0000 C   0  0  0  0  0  0  0  0  0  0  0  0
  5  4  1  0
  6  5  1  0
  9 10  1  0
 12 11  2  0
 13 12  2  0
 14 15  1  0
 15 16  1  0
 16 17  1  0
 17  9  1  0
  9 18  1  0
 18 19  1  0
 19 12  1  0
 12 20  1  0
 15 21  2  0
 17 22  1  0
 22 23  1  0
 23 24  2  0
 24 25  1  0
 25 26  2  0
 26 27  1  0
 27 28  2  0
 28 23  1  0
 20 29  2  0
 29 30  1  0
 30 33  2  0
 32 31  2  0
 31 20  1  0
 32 33  1  0
 33 34  1  0
 34  8  1  0
  8 35  1  0
 35 32  1  0
 26 36  1  0
 36  7  1  0
  7 37  1  0
 37 38  2  0
 38 39  1  0
 39 40  1  0
 40 41  2  0
 41 37  1  0
 40 42  1  0
 43 14  1  0
 43  1  1  0
  1 44  1  0
 44 46  1  0
 45 43  1  0
 45 46  1  0
 46 47  1  0
 47  2  1  0
  2 48  1  0
 48 45  1  0
 19  3  1  0
  3  5  1  0
M  END
>  <Classification>  (836) 
0

>  <pchembl>  (836) 
4.62

>  <InChI_steorem>  (836) 
InChI=1S/C33H41N3O10S2/c1-20(2)14-36(48(39,40)25-8-9-29-30(13-25)45-19-44-29)15-28(37)27(35-33(38)46-31-17-43-32-26(31)10-11-41-32)12-22-4-6-24(7-5-22)42-16-23-18-47-21(3)34-23/h4-9,13,18,20,26-28,31-32,37H,10-12,14-17,19H2,1-3H3,(H,35,38)

>  <source>  (836) 
ChEMBL25

>  <source_id>  (836) 
25

>  <optional_reference>  (836) 
10.1128/aac.00671-07

>  <optional_origin>  (836) 
None

>  <target>  (836) 
MDR1

$$$$

     RDKit          2D

 62 68  0  0  0  0  0  0  0  0999 V2000
    1.2659    2.4297    0.0000 O   0  0  0  0  0  0  0  0  0  0  0  0
    0.0626    1.7814    0.0000 O   0  0  0  0  0  0  0  0  0  0  0  0
   -0.7701    1.4056    0.0000 O   0  0  0  0  0  0  0  0  0  0  0  0
   -1.3705    0.8449    0.0000 O   0  0  0  0  0  0  0  0  0  0  0  0
    0.2336   -1.3940    0.0000 O   0  0  0  0  0  0  0  0  0  0  0  0
    1.3514   -1.1849    0.0000 O   0  0  0  0  0  0  0  0  0  0  0  0
    3.0723    0.3298    0.0000 O   0  0  0  0  0  0  0  0  0  0  0  0
   -3.0191   -0.1820    0.0000 O   0  0  0  0  0  0  0  0  0  0  0  0
   -0.7878    3.0130    0.0000 O   0  0  0  0  0  0  0  0  0  0  0  0
   -1.1492    2.9182    0.0000 O   0  0  0  0  0  0  0  0  0  0  0  0
    1.1096   -2.5689    0.0000 O   0  0  0  0  0  0  0  0  0  0  0  0
   -2.7950   -1.5661    0.0000 O   0  0  0  0  0  0  0  0  0  0  0  0
   -4.7100   -0.5166    0.0000 O   0  0  0  0  0  0  0  0  0  0  0  0
   -5.2033   -3.6869    0.0000 O   0  0  0  0  0  0  0  0  0  0  0  0
   -5.2951   -2.2314    0.0000 N   0  0  0  0  0  0  0  0  0  0  0  0
    0.7702    0.5178    0.0000 C   0  0  0  0  0  0  0  0  0  0  0  0
    0.8527    1.3386    0.0000 C   0  0  0  0  0  0  0  0  0  0  0  0
    1.4399    0.0359    0.0000 C   0  0  0  0  0  0  0  0  0  0  0  0
   -0.7951    0.2273    0.0000 C   0  0  0  0  0  0  0  0  0  0  0  0
   -0.1782    0.5688    0.0000 C   0  0  0  0  0  0  0  0  0  0  0  0
   -0.6096    0.9481    0.0000 C   0  0  0  0  0  0  0  0  0  0  0  0
    1.6049    1.6776    0.0000 C   0  0  0  0  0  0  0  0  0  0  0  0
   -0.6217   -0.2486    0.0000 C   0  0  0  0  0  0  0  0  0  0  0  0
    1.0860   -0.3391    0.0000 C   0  0  0  0  0  0  0  0  0  0  0  0
    2.1920    0.3749    0.0000 C   0  0  0  0  0  0  0  0  0  0  0  0
    0.2177   -0.4990    0.0000 C   0  0  0  0  0  0  0  0  0  0  0  0
    0.5137    2.0908    0.0000 C   0  0  0  0  0  0  0  0  0  0  0  0
    2.2745    1.1957    0.0000 C   0  0  0  0  0  0  0  0  0  0  0  0
   -1.6888    0.4190    0.0000 C   0  0  0  0  0  0  0  0  0  0  0  0
   -1.3417   -0.5328    0.0000 C   0  0  0  0  0  0  0  0  0  0  0  0
   -2.1537   -0.0914    0.0000 C   0  0  0  0  0  0  0  0  0  0  0  0
    2.1081   -0.5633    0.0000 C   0  0  0  0  0  0  0  0  0  0  0  0
   -1.4670    1.4260    0.0000 C   0  0  0  0  0  0  0  0  0  0  0  0
   -0.6510    1.9344    0.0000 C   0  0  0  0  0  0  0  0  0  0  0  0
   -0.0335    2.6789    0.0000 C   0  0  0  0  0  0  0  0  0  0  0  0
   -1.4132    2.1366    0.0000 C   0  0  0  0  0  0  0  0  0  0  0  0
   -1.5877   -1.3764    0.0000 C   0  0  0  0  0  0  0  0  0  0  0  0
    0.3472   -2.2536    0.0000 C   0  0  0  0  0  0  0  0  0  0  0  0
   -2.2221    1.9743    0.0000 C   0  0  0  0  0  0  0  0  0  0  0  0
   -3.3609   -0.9658    0.0000 C   0  0  0  0  0  0  0  0  0  0  0  0
    0.6330    3.1651    0.0000 C   0  0  0  0  0  0  0  0  0  0  0  0
   -4.1986   -1.1640    0.0000 C   0  0  0  0  0  0  0  0  0  0  0  0
   -2.4860    1.1927    0.0000 C   0  0  0  0  0  0  0  0  0  0  0  0
   -2.7670    2.5938    0.0000 C   0  0  0  0  0  0  0  0  0  0  0  0
   -0.3070   -2.7562    0.0000 C   0  0  0  0  0  0  0  0  0  0  0  0
   -4.5168   -1.9636    0.0000 C   0  0  0  0  0  0  0  0  0  0  0  0
   -3.2949    1.0305    0.0000 C   0  0  0  0  0  0  0  0  0  0  0  0
   -3.5759    2.4315    0.0000 C   0  0  0  0  0  0  0  0  0  0  0  0
   -4.0055   -2.6110    0.0000 C   0  0  0  0  0  0  0  0  0  0  0  0
   -3.8398    1.6499    0.0000 C   0  0  0  0  0  0  0  0  0  0  0  0
   -5.6679   -3.0051    0.0000 C   0  0  0  0  0  0  0  0  0  0  0  0
   -3.1891   -2.4919    0.0000 C   0  0  0  0  0  0  0  0  0  0  0  0
   -4.3105   -3.3775    0.0000 C   0  0  0  0  0  0  0  0  0  0  0  0
   -6.4906   -3.0666    0.0000 C   0  0  0  0  0  0  0  0  0  0  0  0
   -2.6778   -3.1393    0.0000 C   0  0  0  0  0  0  0  0  0  0  0  0
   -3.7991   -4.0250    0.0000 C   0  0  0  0  0  0  0  0  0  0  0  0
   -2.9828   -3.9058    0.0000 C   0  0  0  0  0  0  0  0  0  0  0  0
   -6.8487   -3.8098    0.0000 C   0  0  0  0  0  0  0  0  0  0  0  0
   -6.9553   -2.3849    0.0000 C   0  0  0  0  0  0  0  0  0  0  0  0
   -7.6715   -3.8713    0.0000 C   0  0  0  0  0  0  0  0  0  0  0  0
   -7.7780   -2.4464    0.0000 C   0  0  0  0  0  0  0  0  0  0  0  0
   -8.1361   -3.1896    0.0000 C   0  0  0  0  0  0  0  0  0  0  0  0
 22  1  1  0
  1 27  1  0
 17  2  1  0
  2 35  1  0
 20  3  1  0
  3 36  1  0
 19  4  1  0
 26  5  1  0
  5 38  1  0
  6 24  2  0
 25  7  1  0
 31  8  1  0
  8 40  1  0
  9 35  2  0
 10 36  2  0
 11 38  2  0
 12 40  2  0
 42 13  1  0
 14 51  2  0
 46 15  1  0
 15 51  1  0
 16 17  1  0
 16 18  1  0
 16 20  1  0
 17 22  1  0
 17 27  1  0
 18 24  1  0
 18 25  1  0
 18 32  1  0
 19 20  1  0
 19 21  1  0
 19 29  1  0
 21 23  1  0
 21 33  1  0
 21 34  1  0
 22 28  1  0
 23 26  1  0
 23 30  2  0
 24 26  1  0
 25 28  1  0
 29 31  1  0
 30 31  1  0
 30 37  1  0
 35 41  1  0
 36 39  1  0
 38 45  1  0
 39 43  2  0
 39 44  1  0
 40 42  1  0
 42 46  1  0
 43 47  1  0
 44 48  2  0
 46 49  1  0
 47 50  2  0
 48 50  1  0
 49 52  2  0
 49 53  1  0
 51 54  1  0
 52 55  1  0
 53 56  2  0
 54 58  2  0
 54 59  1  0
 55 57  2  0
 56 57  1  0
 58 60  1  0
 59 61  2  0
 60 62  2  0
 61 62  1  0
M  END
>  <Classification>  (837) 
0

>  <pchembl>  (837) 
4.15

>  <InChI_steorem>  (837) 
InChI=1S/C47H51NO14/c1-25-31(60-43(56)36(52)35(28-16-10-7-11-17-28)48-41(54)29-18-12-8-13-19-29)23-47(57)40(61-42(55)30-20-14-9-15-21-30)38-45(6,32(51)22-33-46(38,24-58-33)62-27(3)50)39(53)37(59-26(2)49)34(25)44(47,4)5/h7-21,31-33,35-38,40,51-52,57H,22-24H2,1-6H3,(H,48,54)

>  <source>  (837) 
ChEMBL25

>  <source_id>  (837) 
25

>  <optional_reference>  (837) 
10.1006/bbrc.2001.6000

>  <optional_origin>  (837) 
None

>  <target>  (837) 
MDR1

$$$$

     RDKit          2D

 29 32  0  0  0  0  0  0  0  0999 V2000
   13.5664  -17.7557    0.0000 N   0  0  0  0  0  0  0  0  0  0  0  0
   13.0449  -17.1378    0.0000 N   0  0  0  0  0  0  0  0  0  0  0  0
   12.2774  -17.4859    0.0000 C   0  0  0  0  0  0  0  0  0  0  0  0
   12.3752  -18.2943    0.0000 C   0  0  0  0  0  0  0  0  0  0  0  0
   13.1571  -18.4644    0.0000 C   0  0  0  0  0  0  0  0  0  0  0  0
   13.5795  -19.1459    0.0000 C   0  0  0  0  0  0  0  0  0  0  0  0
   13.1797  -19.8665    0.0000 C   0  0  0  0  0  0  0  0  0  0  0  0
   13.5881  -20.5735    0.0000 C   0  0  0  0  0  0  0  0  0  0  0  0
   14.4215  -20.5736    0.0000 C   0  0  0  0  0  0  0  0  0  0  0  0
   14.8173  -19.8535    0.0000 C   0  0  0  0  0  0  0  0  0  0  0  0
   14.4088  -19.1465    0.0000 C   0  0  0  0  0  0  0  0  0  0  0  0
   15.6214  -19.8405    0.0000 O   0  0  0  0  0  0  0  0  0  0  0  0
   16.0645  -20.5365    0.0000 C   0  0  0  0  0  0  0  0  0  0  0  0
   14.8395  -21.2560    0.0000 O   0  0  0  0  0  0  0  0  0  0  0  0
   15.6688  -21.2566    0.0000 C   0  0  0  0  0  0  0  0  0  0  0  0
   13.1965  -21.2931    0.0000 Cl  0  0  0  0  0  0  0  0  0  0  0  0
   11.5687  -17.0766    0.0000 C   0  0  0  0  0  0  0  0  0  0  0  0
   10.8629  -17.4852    0.0000 C   0  0  0  0  0  0  0  0  0  0  0  0
   10.1542  -17.0760    0.0000 C   0  0  0  0  0  0  0  0  0  0  0  0
    9.4485  -17.4846    0.0000 C   0  0  0  0  0  0  0  0  0  0  0  0
    8.7398  -17.0753    0.0000 C   0  0  0  0  0  0  0  0  0  0  0  0
    8.7409  -16.2575    0.0000 C   0  0  0  0  0  0  0  0  0  0  0  0
    9.4508  -15.8488    0.0000 C   0  0  0  0  0  0  0  0  0  0  0  0
   10.1554  -16.2581    0.0000 C   0  0  0  0  0  0  0  0  0  0  0  0
   10.8653  -15.8495    0.0000 C   0  0  0  0  0  0  0  0  0  0  0  0
   11.5698  -16.2587    0.0000 C   0  0  0  0  0  0  0  0  0  0  0  0
   14.3789  -17.6579    0.0000 C   0  0  0  0  0  0  0  0  0  0  0  0
   14.8755  -18.3267    0.0000 O   0  0  0  0  0  0  0  0  0  0  0  0
   14.7181  -16.9120    0.0000 C   0  0  0  0  0  0  0  0  0  0  0  0
  1  2  1  0
  2  3  2  0
  3  4  1  0
  4  5  1  0
  1  5  1  0
  5  6  1  0
  6  7  2  0
  7  8  1  0
  8  9  2  0
  9 10  1  0
 10 11  2  0
  6 11  1  0
 10 12  1  0
 12 13  1  0
  9 14  1  0
 14 15  1  0
  8 16  1  0
  3 17  1  0
 18 17  2  0
 18 19  1  0
 20 19  2  0
 21 20  1  0
 22 21  2  0
 23 22  1  0
 24 23  2  0
 24 19  1  0
 25 24  1  0
 26 25  2  0
 17 26  1  0
  1 27  1  0
 27 28  2  0
 27 29  1  0
M  END
>  <Classification>  (838) 
0

>  <pchembl>  (838) 
4.92

>  <InChI_steorem>  (838) 
InChI=1S/C23H21ClN2O3/c1-14(27)26-21(18-11-19(24)23(29-3)22(12-18)28-2)13-20(25-26)17-9-8-15-6-4-5-7-16(15)10-17/h4-12,21H,13H2,1-3H3

>  <source>  (838) 
ChEMBL25

>  <source_id>  (838) 
25

>  <optional_reference>  (838) 
10.1016/j.bmcl.2016.09.076

>  <optional_origin>  (838) 
None

>  <target>  (838) 
MDR1

$$$$

     RDKit          2D

 23 25  0  0  0  0  0  0  0  0999 V2000
   14.1758  -12.7185    0.0000 C   0  0  0  0  0  0  0  0  0  0  0  0
   14.8849  -12.3099    0.0000 C   0  0  0  0  0  0  0  0  0  0  0  0
   15.5898  -12.7185    0.0000 C   0  0  0  0  0  0  0  0  0  0  0  0
   14.1758  -13.5357    0.0000 O   0  0  0  0  0  0  0  0  0  0  0  0
   13.4708  -12.3099    0.0000 O   0  0  0  0  0  0  0  0  0  0  0  0
   14.8849  -11.4927    0.0000 C   0  0  0  0  0  0  0  0  0  0  0  0
   12.7617  -12.7185    0.0000 C   0  0  0  0  0  0  0  0  0  0  0  0
   12.7617  -13.5357    0.0000 C   0  0  0  0  0  0  0  0  0  0  0  0
    8.7187  -12.7428    0.0000 C   0  0  0  0  0  0  0  0  0  0  0  0
    8.3101  -12.0379    0.0000 C   0  0  0  0  0  0  0  0  0  0  0  0
    8.7187  -11.3288    0.0000 C   0  0  0  0  0  0  0  0  0  0  0  0
    9.5359  -11.3288    0.0000 C   0  0  0  0  0  0  0  0  0  0  0  0
    9.9445  -12.0379    0.0000 C   0  0  0  0  0  0  0  0  0  0  0  0
    9.5359  -12.7428    0.0000 O   0  0  0  0  0  0  0  0  0  0  0  0
   10.7616  -12.0379    0.0000 C   0  0  0  0  0  0  0  0  0  0  0  0
   11.1702  -11.3288    0.0000 C   0  0  0  0  0  0  0  0  0  0  0  0
   10.7616  -10.6197    0.0000 C   0  0  0  0  0  0  0  0  0  0  0  0
    9.9445  -10.6197    0.0000 C   0  0  0  0  0  0  0  0  0  0  0  0
   11.9686  -11.4995    0.0000 O   0  0  0  0  0  0  0  0  0  0  0  0
   11.3054  -12.6443    0.0000 C   0  0  0  0  0  0  0  0  0  0  0  0
   12.0527  -12.3099    0.0000 C   0  0  0  0  0  0  0  0  0  0  0  0
    8.3101  -13.4519    0.0000 O   0  0  0  0  0  0  0  0  0  0  0  0
   13.4671  -13.1246    0.0000 C   0  0  0  0  0  0  0  0  0  0  0  0
  1  2  1  0
  2  3  1  0
  1  4  2  0
  1  5  1  0
  2  6  1  0
  7  8  1  0
  9 10  1  0
 10 11  2  0
 11 12  1  0
 12 13  2  0
 13 14  1  0
  9 14  1  0
 15 16  2  0
 16 17  1  0
 17 18  2  0
 12 18  1  0
 13 15  1  0
 20 21  1  0
 19 21  1  0
 16 19  1  0
 15 20  1  0
  9 22  2  0
 21  7  1  0
  5  7  1  0
  7 23  1  0
M  END
>  <Classification>  (839) 
1

>  <pchembl>  (839) 
6.25

>  <InChI_steorem>  (839) 
InChI=1S/C18H20O5/c1-10(2)17(20)23-18(3,4)14-9-12-13(21-14)7-5-11-6-8-15(19)22-16(11)12/h5-8,10,14H,9H2,1-4H3

>  <source>  (839) 
ChEMBL26

>  <source_id>  (839) 
26

>  <optional_reference>  (839) 
10.1016/j.ejmech.2018.09.061

>  <optional_origin>  (839) 
None

>  <target>  (839) 
MDR1

$$$$

     RDKit          2D

 26 29  0  0  0  0  0  0  0  0999 V2000
    2.1654  -10.9949    0.0000 C   0  0  0  0  0  0  0  0  0  0  0  0
    2.1642  -11.8186    0.0000 C   0  0  0  0  0  0  0  0  0  0  0  0
    2.8764  -12.2317    0.0000 C   0  0  0  0  0  0  0  0  0  0  0  0
    3.5902  -11.8181    0.0000 C   0  0  0  0  0  0  0  0  0  0  0  0
    3.5874  -10.9913    0.0000 C   0  0  0  0  0  0  0  0  0  0  0  0
    2.8746  -10.5860    0.0000 C   0  0  0  0  0  0  0  0  0  0  0  0
    4.2977  -10.5800    0.0000 N   0  0  0  0  0  0  0  0  0  0  0  0
    5.0492  -10.9071    0.0000 C   0  0  0  0  0  0  0  0  0  0  0  0
    5.5978  -10.2936    0.0000 C   0  0  0  0  0  0  0  0  0  0  0  0
    5.1824   -9.5833    0.0000 N   0  0  0  0  0  0  0  0  0  0  0  0
    4.3796   -9.7604    0.0000 N   0  0  0  0  0  0  0  0  0  0  0  0
    6.4178  -10.2933    0.0000 C   0  0  0  0  0  0  0  0  0  0  0  0
    6.8242  -11.0062    0.0000 C   0  0  0  0  0  0  0  0  0  0  0  0
    7.6435  -11.0062    0.0000 C   0  0  0  0  0  0  0  0  0  0  0  0
    8.0561  -10.2948    0.0000 C   0  0  0  0  0  0  0  0  0  0  0  0
    7.6394   -9.5819    0.0000 C   0  0  0  0  0  0  0  0  0  0  0  0
    6.8215   -9.5854    0.0000 C   0  0  0  0  0  0  0  0  0  0  0  0
    4.3027  -12.2297    0.0000 N   0  0  0  0  0  0  0  0  0  0  0  0
    4.3040  -13.0510    0.0000 C   0  0  0  0  0  0  0  0  0  0  0  0
    5.0164  -13.4585    0.0000 C   0  0  0  0  0  0  0  0  0  0  0  0
    3.5928  -13.4607    0.0000 O   0  0  0  0  0  0  0  0  0  0  0  0
    5.0131  -14.2772    0.0000 C   0  0  0  0  0  0  0  0  0  0  0  0
    5.7248  -14.6887    0.0000 C   0  0  0  0  0  0  0  0  0  0  0  0
    6.4369  -14.2748    0.0000 C   0  0  0  0  0  0  0  0  0  0  0  0
    6.4330  -13.4493    0.0000 C   0  0  0  0  0  0  0  0  0  0  0  0
    5.7208  -13.0456    0.0000 C   0  0  0  0  0  0  0  0  0  0  0  0
  1  2  2  0
  2  3  1  0
  3  4  2  0
  4  5  1  0
  5  6  2  0
  6  1  1  0
  5  7  1  0
  7  8  1  0
  8  9  2  0
  9 10  1  0
 10 11  2  0
 11  7  1  0
  9 12  1  0
 12 13  2  0
 13 14  1  0
 14 15  2  0
 15 16  1  0
 16 17  2  0
 17 12  1  0
  4 18  1  0
 18 19  1  0
 19 20  1  0
 19 21  2  0
 20 22  2  0
 22 23  1  0
 23 24  2  0
 24 25  1  0
 25 26  2  0
 26 20  1  0
M  END
>  <Classification>  (840) 
0

>  <pchembl>  (840) 
4.67

>  <InChI_steorem>  (840) 
InChI=1S/C21H16N4O/c26-21(17-11-5-2-6-12-17)22-18-13-7-8-14-20(18)25-15-19(23-24-25)16-9-3-1-4-10-16/h1-15H,(H,22,26)

>  <source>  (840) 
ChEMBL26

>  <source_id>  (840) 
26

>  <optional_reference>  (840) 
10.1016/j.ejmech.2018.01.012

>  <optional_origin>  (840) 
None

>  <target>  (840) 
MDR1

$$$$

     RDKit          2D

 26 29  0  0  0  0  0  0  0  0999 V2000
   34.5641   -2.2369    0.0000 C   0  0  0  0  0  0  0  0  0  0  0  0
   34.5630   -3.0606    0.0000 C   0  0  0  0  0  0  0  0  0  0  0  0
   35.2751   -3.4737    0.0000 C   0  0  0  0  0  0  0  0  0  0  0  0
   35.9889   -3.0601    0.0000 C   0  0  0  0  0  0  0  0  0  0  0  0
   35.9861   -2.2333    0.0000 C   0  0  0  0  0  0  0  0  0  0  0  0
   35.2734   -1.8281    0.0000 C   0  0  0  0  0  0  0  0  0  0  0  0
   36.6964   -1.8221    0.0000 C   0  0  0  0  0  0  0  0  0  0  0  0
   37.4479   -2.1491    0.0000 N   0  0  0  0  0  0  0  0  0  0  0  0
   37.9966   -1.5356    0.0000 N   0  0  0  0  0  0  0  0  0  0  0  0
   37.5811   -0.8253    0.0000 N   0  0  0  0  0  0  0  0  0  0  0  0
   36.7784   -1.0024    0.0000 N   0  0  0  0  0  0  0  0  0  0  0  0
   38.8166   -1.5353    0.0000 C   0  0  0  0  0  0  0  0  0  0  0  0
   39.2229   -2.2482    0.0000 C   0  0  0  0  0  0  0  0  0  0  0  0
   40.0422   -2.2482    0.0000 C   0  0  0  0  0  0  0  0  0  0  0  0
   40.4548   -1.5368    0.0000 C   0  0  0  0  0  0  0  0  0  0  0  0
   40.0381   -0.8239    0.0000 C   0  0  0  0  0  0  0  0  0  0  0  0
   39.2202   -0.8274    0.0000 C   0  0  0  0  0  0  0  0  0  0  0  0
   36.6977   -3.4670    0.0000 N   0  0  0  0  0  0  0  0  0  0  0  0
   36.6997   -4.2841    0.0000 C   0  0  0  0  0  0  0  0  0  0  0  0
   37.4084   -4.6910    0.0000 C   0  0  0  0  0  0  0  0  0  0  0  0
   35.9930   -4.6945    0.0000 O   0  0  0  0  0  0  0  0  0  0  0  0
   37.4085   -5.5068    0.0000 N   0  0  0  0  0  0  0  0  0  0  0  0
   38.1164   -5.9136    0.0000 C   0  0  0  0  0  0  0  0  0  0  0  0
   38.1109   -4.2787    0.0000 C   0  0  0  0  0  0  0  0  0  0  0  0
   38.8159   -4.6812    0.0000 C   0  0  0  0  0  0  0  0  0  0  0  0
   38.8222   -5.4998    0.0000 C   0  0  0  0  0  0  0  0  0  0  0  0
  1  2  2  0
  2  3  1  0
  3  4  2  0
  4  5  1  0
  5  6  2  0
  6  1  1  0
  5  7  1  0
  7  8  2  0
  8  9  1  0
  9 10  1  0
 10 11  2  0
 11  7  1  0
  9 12  1  0
 12 13  2  0
 13 14  1  0
 14 15  2  0
 15 16  1  0
 16 17  2  0
 17 12  1  0
  4 18  1  0
 18 19  1  0
 19 20  1  0
 19 21  2  0
 20 22  2  0
 22 23  1  0
 23 26  2  0
 24 20  1  0
 24 25  2  0
 25 26  1  0
M  END
>  <Classification>  (841) 
1

>  <pchembl>  (841) 
5.23

>  <InChI_steorem>  (841) 
InChI=1S/C19H14N6O/c26-19(17-12-6-7-13-20-17)21-16-11-5-4-10-15(16)18-22-24-25(23-18)14-8-2-1-3-9-14/h1-13H,(H,21,26)

>  <source>  (841) 
ChEMBL26

>  <source_id>  (841) 
26

>  <optional_reference>  (841) 
10.1016/j.ejmech.2018.01.012

>  <optional_origin>  (841) 
None

>  <target>  (841) 
MDR1

$$$$

     RDKit          2D

 27 30  0  0  0  0  0  0  0  0999 V2000
   31.3738   -3.8342    0.0000 C   0  0  0  0  0  0  0  0  0  0  0  0
   31.3726   -4.6578    0.0000 C   0  0  0  0  0  0  0  0  0  0  0  0
   32.0848   -5.0709    0.0000 C   0  0  0  0  0  0  0  0  0  0  0  0
   32.0830   -3.4253    0.0000 C   0  0  0  0  0  0  0  0  0  0  0  0
   32.7958   -3.8306    0.0000 C   0  0  0  0  0  0  0  0  0  0  0  0
   32.7965   -4.6537    0.0000 C   0  0  0  0  0  0  0  0  0  0  0  0
   33.5092   -5.0649    0.0000 N   0  0  0  0  0  0  0  0  0  0  0  0
   34.2174   -4.6499    0.0000 C   0  0  0  0  0  0  0  0  0  0  0  0
   34.2127   -3.8237    0.0000 N   0  0  0  0  0  0  0  0  0  0  0  0
   33.5036   -3.4203    0.0000 C   0  0  0  0  0  0  0  0  0  0  0  0
   34.9273   -5.0558    0.0000 C   0  0  0  0  0  0  0  0  0  0  0  0
   34.9292   -5.8783    0.0000 C   0  0  0  0  0  0  0  0  0  0  0  0
   35.6417   -6.2840    0.0000 C   0  0  0  0  0  0  0  0  0  0  0  0
   36.3530   -5.8726    0.0000 C   0  0  0  0  0  0  0  0  0  0  0  0
   36.3471   -5.0471    0.0000 C   0  0  0  0  0  0  0  0  0  0  0  0
   35.6340   -4.6409    0.0000 C   0  0  0  0  0  0  0  0  0  0  0  0
   33.4993   -2.5990    0.0000 N   0  0  0  0  0  0  0  0  0  0  0  0
   34.2048   -2.1825    0.0000 C   0  0  0  0  0  0  0  0  0  0  0  0
   34.9142   -2.5949    0.0000 C   0  0  0  0  0  0  0  0  0  0  0  0
   35.6234   -2.1791    0.0000 C   0  0  0  0  0  0  0  0  0  0  0  0
   35.6195   -1.3569    0.0000 C   0  0  0  0  0  0  0  0  0  0  0  0
   34.9005   -0.9523    0.0000 C   0  0  0  0  0  0  0  0  0  0  0  0
   34.1943   -1.3663    0.0000 C   0  0  0  0  0  0  0  0  0  0  0  0
   37.0522   -4.6339    0.0000 O   0  0  0  0  0  0  0  0  0  0  0  0
   37.7625   -5.0380    0.0000 C   0  0  0  0  0  0  0  0  0  0  0  0
   36.3334   -2.5837    0.0000 O   0  0  0  0  0  0  0  0  0  0  0  0
   36.3381   -3.4008    0.0000 C   0  0  0  0  0  0  0  0  0  0  0  0
  1  2  2  0
  2  3  1  0
  3  6  2  0
  5  4  2  0
  4  1  1  0
  5  6  1  0
  6  7  1  0
  7  8  2  0
  8  9  1  0
  9 10  2  0
 10  5  1  0
 11 12  2  0
 12 13  1  0
 13 14  2  0
 14 15  1  0
 15 16  2  0
 16 11  1  0
  8 11  1  0
 10 17  1  0
 17 18  1  0
 18 19  2  0
 19 20  1  0
 20 21  2  0
 21 22  1  0
 22 23  2  0
 23 18  1  0
 15 24  1  0
 24 25  1  0
 20 26  1  0
 26 27  1  0
M  END
>  <Classification>  (842) 
1

>  <pchembl>  (842) 
5.73

>  <InChI_steorem>  (842) 
InChI=1S/C22H19N3O2/c1-26-17-9-5-7-15(13-17)21-24-20-12-4-3-11-19(20)22(25-21)23-16-8-6-10-18(14-16)27-2/h3-14H,1-2H3,(H,23,24,25)

>  <source>  (842) 
ChEMBL26

>  <source_id>  (842) 
26

>  <optional_reference>  (842) 
10.1016/j.ejmech.2017.08.020

>  <optional_origin>  (842) 
None

>  <target>  (842) 
MDR1

$$$$

     RDKit          2D

 27 31  0  0  0  0  0  0  0  0999 V2000
    1.9129   -4.7254    0.0000 C   0  0  0  0  0  0  0  0  0  0  0  0
    1.9117   -5.5535    0.0000 C   0  0  0  0  0  0  0  0  0  0  0  0
    2.6273   -5.9668    0.0000 C   0  0  0  0  0  0  0  0  0  0  0  0
    3.3444   -5.5531    0.0000 C   0  0  0  0  0  0  0  0  0  0  0  0
    3.3415   -4.7217    0.0000 C   0  0  0  0  0  0  0  0  0  0  0  0
    2.6255   -4.3123    0.0000 C   0  0  0  0  0  0  0  0  0  0  0  0
    4.0552   -4.3062    0.0000 C   0  0  0  0  0  0  0  0  0  0  0  0
    4.7692   -4.7186    0.0000 N   0  0  0  0  0  0  0  0  0  0  0  0
    4.7653   -3.0680    0.0000 C   0  0  0  0  0  0  0  0  0  0  0  0
    4.0475   -3.4818    0.0000 C   0  0  0  0  0  0  0  0  0  0  0  0
    4.7650   -2.2422    0.0000 O   0  0  0  0  0  0  0  0  0  0  0  0
    5.4818   -3.4804    0.0000 N   0  0  0  0  0  0  0  0  0  0  0  0
    5.4786   -4.3061    0.0000 C   0  0  0  0  0  0  0  0  0  0  0  0
    6.2630   -4.5644    0.0000 N   0  0  0  0  0  0  0  0  0  0  0  0
    6.7510   -3.8981    0.0000 C   0  0  0  0  0  0  0  0  0  0  0  0
    6.2681   -3.2283    0.0000 N   0  0  0  0  0  0  0  0  0  0  0  0
    7.5768   -3.9013    0.0000 S   0  0  0  0  0  0  0  0  0  0  0  0
    7.9924   -3.1876    0.0000 C   0  0  0  0  0  0  0  0  0  0  0  0
    8.8181   -3.1908    0.0000 C   0  0  0  0  0  0  0  0  0  0  0  0
    9.2966   -3.8621    0.0000 N   0  0  0  0  0  0  0  0  0  0  0  0
    9.3017   -2.5259    0.0000 N   0  0  0  0  0  0  0  0  0  0  0  0
   10.0860   -2.7840    0.0000 C   0  0  0  0  0  0  0  0  0  0  0  0
   10.0822   -3.6059    0.0000 C   0  0  0  0  0  0  0  0  0  0  0  0
   10.7909   -4.0183    0.0000 C   0  0  0  0  0  0  0  0  0  0  0  0
   11.5039   -3.6100    0.0000 C   0  0  0  0  0  0  0  0  0  0  0  0
   11.5038   -2.7850    0.0000 C   0  0  0  0  0  0  0  0  0  0  0  0
   10.7945   -2.3763    0.0000 C   0  0  0  0  0  0  0  0  0  0  0  0
  1  2  2  0
  2  3  1  0
  3  4  2  0
  4  5  1  0
  5  6  2  0
  6  1  1  0
  5  7  1  0
  7  8  1  0
  7 10  2  0
  8 13  1  0
 12  9  1  0
  9 10  1  0
  9 11  2  0
 12 13  1  0
 13 14  2  0
 14 15  1  0
 15 16  2  0
 16 12  1  0
 15 17  1  0
 17 18  1  0
 18 19  1  0
 19 20  2  0
 20 23  1  0
 22 21  1  0
 21 19  1  0
 22 23  2  0
 23 24  1  0
 24 25  2  0
 25 26  1  0
 26 27  2  0
 27 22  1  0
M  END
>  <Classification>  (843) 
1

>  <pchembl>  (843) 
5.83

>  <InChI_steorem>  (843) 
InChI=1S/C19H14N6OS/c26-17-10-15(12-6-2-1-3-7-12)22-18-23-19(24-25(17)18)27-11-16-20-13-8-4-5-9-14(13)21-16/h1-10H,11H2,(H,20,21)(H,22,23,24)

>  <source>  (843) 
ChEMBL26

>  <source_id>  (843) 
26

>  <optional_reference>  (843) 
10.1016/j.bmc.2018.08.021

>  <optional_origin>  (843) 
None

>  <target>  (843) 
MDR1

$$$$

     RDKit          2D

 29 32  0  0  0  0  0  0  0  0999 V2000
   20.2220  -11.1022    0.0000 C   0  0  0  0  0  0  0  0  0  0  0  0
   20.2209  -11.9259    0.0000 C   0  0  0  0  0  0  0  0  0  0  0  0
   20.9330  -12.3390    0.0000 C   0  0  0  0  0  0  0  0  0  0  0  0
   20.9312  -10.6933    0.0000 C   0  0  0  0  0  0  0  0  0  0  0  0
   21.6440  -11.0986    0.0000 C   0  0  0  0  0  0  0  0  0  0  0  0
   21.6447  -11.9217    0.0000 C   0  0  0  0  0  0  0  0  0  0  0  0
   22.3574  -12.3329    0.0000 N   0  0  0  0  0  0  0  0  0  0  0  0
   23.0657  -11.9180    0.0000 C   0  0  0  0  0  0  0  0  0  0  0  0
   23.0609  -11.0917    0.0000 N   0  0  0  0  0  0  0  0  0  0  0  0
   22.3518  -10.6884    0.0000 C   0  0  0  0  0  0  0  0  0  0  0  0
   23.7755  -12.3239    0.0000 C   0  0  0  0  0  0  0  0  0  0  0  0
   23.7774  -13.1463    0.0000 C   0  0  0  0  0  0  0  0  0  0  0  0
   24.4900  -13.5521    0.0000 C   0  0  0  0  0  0  0  0  0  0  0  0
   25.2012  -13.1407    0.0000 C   0  0  0  0  0  0  0  0  0  0  0  0
   25.1954  -12.3151    0.0000 C   0  0  0  0  0  0  0  0  0  0  0  0
   24.4822  -11.9090    0.0000 C   0  0  0  0  0  0  0  0  0  0  0  0
   22.3475   -9.8671    0.0000 N   0  0  0  0  0  0  0  0  0  0  0  0
   23.0530   -9.4506    0.0000 C   0  0  0  0  0  0  0  0  0  0  0  0
   23.7624   -9.8629    0.0000 C   0  0  0  0  0  0  0  0  0  0  0  0
   24.4716   -9.4472    0.0000 C   0  0  0  0  0  0  0  0  0  0  0  0
   24.4677   -8.6250    0.0000 C   0  0  0  0  0  0  0  0  0  0  0  0
   23.7488   -8.2203    0.0000 C   0  0  0  0  0  0  0  0  0  0  0  0
   23.0425   -8.6343    0.0000 C   0  0  0  0  0  0  0  0  0  0  0  0
   25.9105  -13.5465    0.0000 O   0  0  0  0  0  0  0  0  0  0  0  0
   25.9137  -14.3637    0.0000 C   0  0  0  0  0  0  0  0  0  0  0  0
   25.1816   -9.8517    0.0000 O   0  0  0  0  0  0  0  0  0  0  0  0
   25.1722   -8.2108    0.0000 O   0  0  0  0  0  0  0  0  0  0  0  0
   25.8831   -8.6139    0.0000 C   0  0  0  0  0  0  0  0  0  0  0  0
   25.8870   -9.4391    0.0000 C   0  0  0  0  0  0  0  0  0  0  0  0
  1  2  2  0
  2  3  1  0
  3  6  2  0
  5  4  2  0
  4  1  1  0
  5  6  1  0
  6  7  1  0
  7  8  2  0
  8  9  1  0
  9 10  2  0
 10  5  1  0
 11 12  2  0
 12 13  1  0
 13 14  2  0
 14 15  1  0
 15 16  2  0
 16 11  1  0
  8 11  1  0
 10 17  1  0
 17 18  1  0
 18 19  2  0
 19 20  1  0
 20 21  2  0
 21 22  1  0
 22 23  2  0
 23 18  1  0
 14 24  1  0
 24 25  1  0
 20 26  1  0
 21 27  1  0
 27 28  1  0
 26 29  1  0
M  END
>  <Classification>  (844) 
1

>  <pchembl>  (844) 
5.91

>  <InChI_steorem>  (844) 
InChI=1S/C23H21N3O3/c1-27-17-11-8-15(9-12-17)22-25-19-7-5-4-6-18(19)23(26-22)24-16-10-13-20(28-2)21(14-16)29-3/h4-14H,1-3H3,(H,24,25,26)

>  <source>  (844) 
ChEMBL26

>  <source_id>  (844) 
26

>  <optional_reference>  (844) 
10.1016/j.ejmech.2017.08.020

>  <optional_origin>  (844) 
None

>  <target>  (844) 
MDR1

$$$$

     RDKit          2D

 29 32  0  0  0  0  0  0  0  0999 V2000
   33.5612  -18.4115    0.0000 C   0  0  0  0  0  0  0  0  0  0  0  0
   33.5601  -19.2352    0.0000 C   0  0  0  0  0  0  0  0  0  0  0  0
   34.2722  -19.6483    0.0000 C   0  0  0  0  0  0  0  0  0  0  0  0
   34.2704  -18.0027    0.0000 C   0  0  0  0  0  0  0  0  0  0  0  0
   34.9832  -18.4079    0.0000 C   0  0  0  0  0  0  0  0  0  0  0  0
   34.9839  -19.2311    0.0000 C   0  0  0  0  0  0  0  0  0  0  0  0
   35.6966  -19.6423    0.0000 N   0  0  0  0  0  0  0  0  0  0  0  0
   36.4049  -19.2273    0.0000 C   0  0  0  0  0  0  0  0  0  0  0  0
   36.4001  -18.4011    0.0000 N   0  0  0  0  0  0  0  0  0  0  0  0
   35.6910  -17.9977    0.0000 C   0  0  0  0  0  0  0  0  0  0  0  0
   37.1147  -19.6332    0.0000 C   0  0  0  0  0  0  0  0  0  0  0  0
   37.1166  -20.4556    0.0000 C   0  0  0  0  0  0  0  0  0  0  0  0
   37.8292  -20.8614    0.0000 C   0  0  0  0  0  0  0  0  0  0  0  0
   38.5404  -20.4500    0.0000 C   0  0  0  0  0  0  0  0  0  0  0  0
   38.5346  -19.6245    0.0000 C   0  0  0  0  0  0  0  0  0  0  0  0
   37.8214  -19.2183    0.0000 C   0  0  0  0  0  0  0  0  0  0  0  0
   35.6867  -17.1764    0.0000 N   0  0  0  0  0  0  0  0  0  0  0  0
   36.3922  -16.7599    0.0000 C   0  0  0  0  0  0  0  0  0  0  0  0
   37.1016  -17.1723    0.0000 C   0  0  0  0  0  0  0  0  0  0  0  0
   37.8108  -16.7565    0.0000 C   0  0  0  0  0  0  0  0  0  0  0  0
   37.8069  -15.9343    0.0000 C   0  0  0  0  0  0  0  0  0  0  0  0
   37.0880  -15.5296    0.0000 C   0  0  0  0  0  0  0  0  0  0  0  0
   36.3817  -15.9436    0.0000 C   0  0  0  0  0  0  0  0  0  0  0  0
   39.2497  -20.8558    0.0000 O   0  0  0  0  0  0  0  0  0  0  0  0
   39.2529  -21.6730    0.0000 C   0  0  0  0  0  0  0  0  0  0  0  0
   39.2396  -19.2113    0.0000 O   0  0  0  0  0  0  0  0  0  0  0  0
   39.9500  -19.6153    0.0000 C   0  0  0  0  0  0  0  0  0  0  0  0
   38.5209  -17.1610    0.0000 O   0  0  0  0  0  0  0  0  0  0  0  0
   38.5255  -17.9782    0.0000 C   0  0  0  0  0  0  0  0  0  0  0  0
  1  2  2  0
  2  3  1  0
  3  6  2  0
  5  4  2  0
  4  1  1  0
  5  6  1  0
  6  7  1  0
  7  8  2  0
  8  9  1  0
  9 10  2  0
 10  5  1  0
 11 12  2  0
 12 13  1  0
 13 14  2  0
 14 15  1  0
 15 16  2  0
 16 11  1  0
  8 11  1  0
 10 17  1  0
 17 18  1  0
 18 19  2  0
 19 20  1  0
 20 21  2  0
 21 22  1  0
 22 23  2  0
 23 18  1  0
 14 24  1  0
 24 25  1  0
 15 26  1  0
 26 27  1  0
 20 28  1  0
 28 29  1  0
M  END
>  <Classification>  (845) 
1

>  <pchembl>  (845) 
5.98

>  <InChI_steorem>  (845) 
InChI=1S/C23H21N3O3/c1-27-17-8-6-7-16(14-17)24-23-18-9-4-5-10-19(18)25-22(26-23)15-11-12-20(28-2)21(13-15)29-3/h4-14H,1-3H3,(H,24,25,26)

>  <source>  (845) 
ChEMBL26

>  <source_id>  (845) 
26

>  <optional_reference>  (845) 
10.1016/j.ejmech.2017.08.020

>  <optional_origin>  (845) 
None

>  <target>  (845) 
MDR1

$$$$

     RDKit          2D

 29 32  0  0  0  0  0  0  0  0999 V2000
   38.7739   -3.5907    0.0000 C   0  0  0  0  0  0  0  0  0  0  0  0
   38.7727   -4.4143    0.0000 C   0  0  0  0  0  0  0  0  0  0  0  0
   39.4849   -4.8274    0.0000 C   0  0  0  0  0  0  0  0  0  0  0  0
   39.4831   -3.1818    0.0000 C   0  0  0  0  0  0  0  0  0  0  0  0
   40.1959   -3.5871    0.0000 C   0  0  0  0  0  0  0  0  0  0  0  0
   40.1966   -4.4102    0.0000 C   0  0  0  0  0  0  0  0  0  0  0  0
   40.9093   -4.8214    0.0000 N   0  0  0  0  0  0  0  0  0  0  0  0
   41.6176   -4.4064    0.0000 C   0  0  0  0  0  0  0  0  0  0  0  0
   41.6128   -3.5802    0.0000 N   0  0  0  0  0  0  0  0  0  0  0  0
   40.9037   -3.1768    0.0000 C   0  0  0  0  0  0  0  0  0  0  0  0
   42.3274   -4.8123    0.0000 C   0  0  0  0  0  0  0  0  0  0  0  0
   42.3293   -5.6348    0.0000 C   0  0  0  0  0  0  0  0  0  0  0  0
   43.0419   -6.0405    0.0000 C   0  0  0  0  0  0  0  0  0  0  0  0
   43.7531   -5.6291    0.0000 C   0  0  0  0  0  0  0  0  0  0  0  0
   43.7473   -4.8036    0.0000 C   0  0  0  0  0  0  0  0  0  0  0  0
   43.0341   -4.3974    0.0000 C   0  0  0  0  0  0  0  0  0  0  0  0
   40.8994   -2.3555    0.0000 N   0  0  0  0  0  0  0  0  0  0  0  0
   41.6049   -1.9390    0.0000 C   0  0  0  0  0  0  0  0  0  0  0  0
   42.3143   -2.3514    0.0000 C   0  0  0  0  0  0  0  0  0  0  0  0
   43.0235   -1.9356    0.0000 C   0  0  0  0  0  0  0  0  0  0  0  0
   43.0196   -1.1134    0.0000 C   0  0  0  0  0  0  0  0  0  0  0  0
   42.3007   -0.7088    0.0000 C   0  0  0  0  0  0  0  0  0  0  0  0
   41.5944   -1.1228    0.0000 C   0  0  0  0  0  0  0  0  0  0  0  0
   44.4523   -4.3904    0.0000 O   0  0  0  0  0  0  0  0  0  0  0  0
   45.1626   -4.7945    0.0000 C   0  0  0  0  0  0  0  0  0  0  0  0
   43.7335   -2.3402    0.0000 O   0  0  0  0  0  0  0  0  0  0  0  0
   43.7241   -0.6993    0.0000 O   0  0  0  0  0  0  0  0  0  0  0  0
   44.4350   -1.1023    0.0000 C   0  0  0  0  0  0  0  0  0  0  0  0
   44.4389   -1.9275    0.0000 C   0  0  0  0  0  0  0  0  0  0  0  0
  1  2  2  0
  2  3  1  0
  3  6  2  0
  5  4  2  0
  4  1  1  0
  5  6  1  0
  6  7  1  0
  7  8  2  0
  8  9  1  0
  9 10  2  0
 10  5  1  0
 11 12  2  0
 12 13  1  0
 13 14  2  0
 14 15  1  0
 15 16  2  0
 16 11  1  0
  8 11  1  0
 10 17  1  0
 17 18  1  0
 18 19  2  0
 19 20  1  0
 20 21  2  0
 21 22  1  0
 22 23  2  0
 23 18  1  0
 15 24  1  0
 24 25  1  0
 20 26  1  0
 21 27  1  0
 27 28  1  0
 26 29  1  0
M  END
>  <Classification>  (846) 
1

>  <pchembl>  (846) 
5.96

>  <InChI_steorem>  (846) 
InChI=1S/C23H21N3O3/c1-27-17-8-6-7-15(13-17)22-25-19-10-5-4-9-18(19)23(26-22)24-16-11-12-20(28-2)21(14-16)29-3/h4-14H,1-3H3,(H,24,25,26)

>  <source>  (846) 
ChEMBL26

>  <source_id>  (846) 
26

>  <optional_reference>  (846) 
10.1016/j.ejmech.2017.08.020

>  <optional_origin>  (846) 
None

>  <target>  (846) 
MDR1

$$$$

     RDKit          2D

 30 33  0  0  0  0  0  0  0  0999 V2000
    1.3936  -20.4793    0.0000 C   0  0  0  0  0  0  0  0  0  0  0  0
    1.3924  -21.3029    0.0000 C   0  0  0  0  0  0  0  0  0  0  0  0
    2.1046  -21.7160    0.0000 C   0  0  0  0  0  0  0  0  0  0  0  0
    2.1028  -20.0704    0.0000 C   0  0  0  0  0  0  0  0  0  0  0  0
    2.8156  -20.4757    0.0000 C   0  0  0  0  0  0  0  0  0  0  0  0
    2.8163  -21.2988    0.0000 C   0  0  0  0  0  0  0  0  0  0  0  0
    3.5290  -21.7100    0.0000 N   0  0  0  0  0  0  0  0  0  0  0  0
    4.2373  -21.2951    0.0000 C   0  0  0  0  0  0  0  0  0  0  0  0
    4.2325  -20.4688    0.0000 N   0  0  0  0  0  0  0  0  0  0  0  0
    3.5234  -20.0654    0.0000 C   0  0  0  0  0  0  0  0  0  0  0  0
    4.9471  -21.7009    0.0000 C   0  0  0  0  0  0  0  0  0  0  0  0
    4.9490  -22.5234    0.0000 C   0  0  0  0  0  0  0  0  0  0  0  0
    5.6615  -22.9291    0.0000 C   0  0  0  0  0  0  0  0  0  0  0  0
    6.3728  -22.5177    0.0000 C   0  0  0  0  0  0  0  0  0  0  0  0
    6.3669  -21.6922    0.0000 C   0  0  0  0  0  0  0  0  0  0  0  0
    5.6538  -21.2860    0.0000 C   0  0  0  0  0  0  0  0  0  0  0  0
    3.5191  -19.2441    0.0000 N   0  0  0  0  0  0  0  0  0  0  0  0
    4.2246  -18.8277    0.0000 C   0  0  0  0  0  0  0  0  0  0  0  0
    4.9340  -19.2400    0.0000 C   0  0  0  0  0  0  0  0  0  0  0  0
    5.6432  -18.8242    0.0000 C   0  0  0  0  0  0  0  0  0  0  0  0
    5.6393  -18.0020    0.0000 C   0  0  0  0  0  0  0  0  0  0  0  0
    4.9203  -17.5974    0.0000 C   0  0  0  0  0  0  0  0  0  0  0  0
    4.2141  -18.0114    0.0000 C   0  0  0  0  0  0  0  0  0  0  0  0
    5.6647  -23.7496    0.0000 N   0  0  0  0  0  0  0  0  0  0  0  0
    6.3738  -24.1558    0.0000 O   0  0  0  0  0  0  0  0  0  0  0  0
    4.9584  -24.1605    0.0000 O   0  0  0  0  0  0  0  0  0  0  0  0
    4.9132  -16.7802    0.0000 N   0  0  0  0  0  0  0  0  0  0  0  0
    5.6173  -16.3654    0.0000 C   0  0  0  0  0  0  0  0  0  0  0  0
    5.6101  -15.5483    0.0000 O   0  0  0  0  0  0  0  0  0  0  0  0
    6.3285  -16.7678    0.0000 C   0  0  0  0  0  0  0  0  0  0  0  0
  1  2  2  0
  2  3  1  0
  3  6  2  0
  5  4  2  0
  4  1  1  0
  5  6  1  0
  6  7  1  0
  7  8  2  0
  8  9  1  0
  9 10  2  0
 10  5  1  0
 11 12  2  0
 12 13  1  0
 13 14  2  0
 14 15  1  0
 15 16  2  0
 16 11  1  0
  8 11  1  0
 10 17  1  0
 17 18  1  0
 18 19  2  0
 19 20  1  0
 20 21  2  0
 21 22  1  0
 22 23  2  0
 23 18  1  0
 24 25  2  0
 24 26  1  0
 13 24  1  0
 22 27  1  0
 27 28  1  0
 28 29  2  0
 28 30  1  0
M  CHG  2  24   1  26  -1
M  END
>  <Classification>  (847) 
1

>  <pchembl>  (847) 
5.74

>  <InChI_steorem>  (847) 
InChI=1S/C22H17N5O3/c1-14(28)23-16-7-5-8-17(13-16)24-22-19-10-2-3-11-20(19)25-21(26-22)15-6-4-9-18(12-15)27(29)30/h2-13H,1H3,(H,23,28)(H,24,25,26)

>  <source>  (847) 
ChEMBL26

>  <source_id>  (847) 
26

>  <optional_reference>  (847) 
10.1016/j.ejmech.2017.08.020

>  <optional_origin>  (847) 
None

>  <target>  (847) 
MDR1

$$$$

     RDKit          2D

 30 33  0  0  0  0  0  0  0  0999 V2000
    1.4926  -26.0964    0.0000 C   0  0  0  0  0  0  0  0  0  0  0  0
    1.4915  -26.9201    0.0000 C   0  0  0  0  0  0  0  0  0  0  0  0
    2.2037  -27.3332    0.0000 C   0  0  0  0  0  0  0  0  0  0  0  0
    2.9175  -26.9196    0.0000 C   0  0  0  0  0  0  0  0  0  0  0  0
    2.9146  -26.0928    0.0000 C   0  0  0  0  0  0  0  0  0  0  0  0
    2.2019  -25.6876    0.0000 C   0  0  0  0  0  0  0  0  0  0  0  0
    3.6249  -25.6816    0.0000 C   0  0  0  0  0  0  0  0  0  0  0  0
    4.3764  -26.0086    0.0000 N   0  0  0  0  0  0  0  0  0  0  0  0
    4.9251  -25.3951    0.0000 N   0  0  0  0  0  0  0  0  0  0  0  0
    4.5097  -24.6848    0.0000 N   0  0  0  0  0  0  0  0  0  0  0  0
    3.7069  -24.8620    0.0000 N   0  0  0  0  0  0  0  0  0  0  0  0
    3.6262  -27.3265    0.0000 N   0  0  0  0  0  0  0  0  0  0  0  0
    3.6282  -28.1436    0.0000 C   0  0  0  0  0  0  0  0  0  0  0  0
    4.3369  -28.5505    0.0000 C   0  0  0  0  0  0  0  0  0  0  0  0
    2.9215  -28.5540    0.0000 O   0  0  0  0  0  0  0  0  0  0  0  0
    4.3370  -29.3663    0.0000 C   0  0  0  0  0  0  0  0  0  0  0  0
    5.0449  -29.7731    0.0000 C   0  0  0  0  0  0  0  0  0  0  0  0
    5.7525  -29.3627    0.0000 C   0  0  0  0  0  0  0  0  0  0  0  0
    5.7479  -28.5413    0.0000 C   0  0  0  0  0  0  0  0  0  0  0  0
    5.0394  -28.1382    0.0000 C   0  0  0  0  0  0  0  0  0  0  0  0
    5.7410  -25.3948    0.0000 C   0  0  0  0  0  0  0  0  0  0  0  0
    6.1473  -26.1036    0.0000 C   0  0  0  0  0  0  0  0  0  0  0  0
    6.9625  -26.1036    0.0000 N   0  0  0  0  0  0  0  0  0  0  0  0
    7.3710  -25.3964    0.0000 C   0  0  0  0  0  0  0  0  0  0  0  0
    6.9584  -24.6876    0.0000 C   0  0  0  0  0  0  0  0  0  0  0  0
    6.1446  -24.6910    0.0000 C   0  0  0  0  0  0  0  0  0  0  0  0
    8.1882  -25.3950    0.0000 O   0  0  0  0  0  0  0  0  0  0  0  0
    8.5980  -26.1020    0.0000 C   0  0  0  0  0  0  0  0  0  0  0  0
    6.4618  -29.7686    0.0000 O   0  0  0  0  0  0  0  0  0  0  0  0
    6.4649  -30.5858    0.0000 C   0  0  0  0  0  0  0  0  0  0  0  0
  1  2  2  0
  2  3  1  0
  3  4  2  0
  4  5  1  0
  5  6  2  0
  6  1  1  0
  5  7  1  0
  7  8  2  0
  8  9  1  0
  9 10  1  0
 10 11  2  0
 11  7  1  0
  4 12  1  0
 12 13  1  0
 13 14  1  0
 13 15  2  0
 14 16  2  0
 16 17  1  0
 17 18  2  0
 18 19  1  0
 19 20  2  0
 20 14  1  0
  9 21  1  0
 21 22  2  0
 22 23  1  0
 23 24  2  0
 24 25  1  0
 25 26  2  0
 26 21  1  0
 24 27  1  0
 27 28  1  0
 18 29  1  0
 29 30  1  0
M  END
>  <Classification>  (848) 
1

>  <pchembl>  (848) 
5.07

>  <InChI_steorem>  (848) 
InChI=1S/C21H18N6O3/c1-29-16-10-7-14(8-11-16)21(28)23-18-6-4-3-5-17(18)20-24-26-27(25-20)15-9-12-19(30-2)22-13-15/h3-13H,1-2H3,(H,23,28)

>  <source>  (848) 
ChEMBL26

>  <source_id>  (848) 
26

>  <optional_reference>  (848) 
10.1016/j.ejmech.2018.01.012

>  <optional_origin>  (848) 
None

>  <target>  (848) 
MDR1

$$$$

     RDKit          2D

 30 33  0  0  0  0  0  0  0  0999 V2000
   17.1721   -7.2364    0.0000 N   0  0  0  0  0  0  0  0  0  0  0  0
   17.8788   -6.8237    0.0000 C   0  0  0  0  0  0  0  0  0  0  0  0
   17.8740   -6.0089    0.0000 N   0  0  0  0  0  0  0  0  0  0  0  0
   17.1646   -5.6033    0.0000 C   0  0  0  0  0  0  0  0  0  0  0  0
   16.4599   -6.0124    0.0000 C   0  0  0  0  0  0  0  0  0  0  0  0
   15.7505   -5.6068    0.0000 C   0  0  0  0  0  0  0  0  0  0  0  0
   15.0438   -6.0196    0.0000 C   0  0  0  0  0  0  0  0  0  0  0  0
   15.0466   -6.8380    0.0000 C   0  0  0  0  0  0  0  0  0  0  0  0
   15.7560   -7.2436    0.0000 C   0  0  0  0  0  0  0  0  0  0  0  0
   16.4627   -6.8308    0.0000 C   0  0  0  0  0  0  0  0  0  0  0  0
   17.1618   -4.7849    0.0000 N   0  0  0  0  0  0  0  0  0  0  0  0
   17.8685   -4.3721    0.0000 C   0  0  0  0  0  0  0  0  0  0  0  0
   18.5779   -4.7777    0.0000 C   0  0  0  0  0  0  0  0  0  0  0  0
   19.2846   -4.3650    0.0000 C   0  0  0  0  0  0  0  0  0  0  0  0
   19.2798   -3.5502    0.0000 C   0  0  0  0  0  0  0  0  0  0  0  0
   18.5703   -3.1445    0.0000 C   0  0  0  0  0  0  0  0  0  0  0  0
   17.8657   -3.5537    0.0000 C   0  0  0  0  0  0  0  0  0  0  0  0
   19.9864   -3.1374    0.0000 N   0  0  0  0  0  0  0  0  0  0  0  0
   20.6959   -3.5430    0.0000 O   0  0  0  0  0  0  0  0  0  0  0  0
   19.9816   -2.3226    0.0000 O   0  0  0  0  0  0  0  0  0  0  0  0
   18.5882   -7.2293    0.0000 C   0  0  0  0  0  0  0  0  0  0  0  0
   18.5909   -8.0477    0.0000 C   0  0  0  0  0  0  0  0  0  0  0  0
   19.3004   -8.4533    0.0000 C   0  0  0  0  0  0  0  0  0  0  0  0
   20.0070   -8.0405    0.0000 C   0  0  0  0  0  0  0  0  0  0  0  0
   20.0022   -7.2257    0.0000 C   0  0  0  0  0  0  0  0  0  0  0  0
   19.2928   -6.8201    0.0000 C   0  0  0  0  0  0  0  0  0  0  0  0
   20.7164   -8.4461    0.0000 O   0  0  0  0  0  0  0  0  0  0  0  0
   20.7192   -9.2645    0.0000 C   0  0  0  0  0  0  0  0  0  0  0  0
   19.3031   -9.2717    0.0000 O   0  0  0  0  0  0  0  0  0  0  0  0
   20.0125   -9.6773    0.0000 C   0  0  0  0  0  0  0  0  0  0  0  0
  1  2  2  0
  2  3  1  0
  3  4  2  0
  4  5  1  0
  5  6  2  0
  6  7  1  0
  7  8  2  0
  8  9  1  0
  9 10  2  0
  1 10  1  0
  5 10  1  0
  4 11  1  0
 12 13  2  0
 13 14  1  0
 14 15  2  0
 15 16  1  0
 16 17  2  0
 12 17  1  0
 18 19  2  0
 18 20  1  0
 15 18  1  0
 11 12  1  0
 21 22  2  0
 22 23  1  0
 23 24  2  0
 24 25  1  0
 25 26  2  0
 21 26  1  0
 27 28  1  0
 24 27  1  0
 29 30  1  0
 23 29  1  0
  2 21  1  0
M  CHG  2  18   1  20  -1
M  END
>  <Classification>  (849) 
1

>  <pchembl>  (849) 
5.61

>  <InChI_steorem>  (849) 
InChI=1S/C22H18N4O4/c1-29-19-12-7-14(13-20(19)30-2)21-24-18-6-4-3-5-17(18)22(25-21)23-15-8-10-16(11-9-15)26(27)28/h3-13H,1-2H3,(H,23,24,25)

>  <source>  (849) 
ChEMBL26

>  <source_id>  (849) 
26

>  <optional_reference>  (849) 
10.1016/j.ejmech.2017.08.020

>  <optional_origin>  (849) 
None

>  <target>  (849) 
MDR1

$$$$

     RDKit          2D

 30 33  0  0  0  0  0  0  0  0999 V2000
   41.1429  -18.7335    0.0000 C   0  0  0  0  0  0  0  0  0  0  0  0
   41.1418  -19.5571    0.0000 C   0  0  0  0  0  0  0  0  0  0  0  0
   41.8540  -19.9702    0.0000 C   0  0  0  0  0  0  0  0  0  0  0  0
   41.8522  -18.3246    0.0000 C   0  0  0  0  0  0  0  0  0  0  0  0
   42.5649  -18.7299    0.0000 C   0  0  0  0  0  0  0  0  0  0  0  0
   42.5657  -19.5530    0.0000 C   0  0  0  0  0  0  0  0  0  0  0  0
   43.2783  -19.9642    0.0000 N   0  0  0  0  0  0  0  0  0  0  0  0
   43.9866  -19.5492    0.0000 C   0  0  0  0  0  0  0  0  0  0  0  0
   43.9819  -18.7230    0.0000 N   0  0  0  0  0  0  0  0  0  0  0  0
   43.2728  -18.3196    0.0000 C   0  0  0  0  0  0  0  0  0  0  0  0
   44.6965  -19.9551    0.0000 C   0  0  0  0  0  0  0  0  0  0  0  0
   44.6983  -20.7776    0.0000 C   0  0  0  0  0  0  0  0  0  0  0  0
   45.4109  -21.1833    0.0000 C   0  0  0  0  0  0  0  0  0  0  0  0
   46.1221  -20.7719    0.0000 C   0  0  0  0  0  0  0  0  0  0  0  0
   46.1163  -19.9464    0.0000 C   0  0  0  0  0  0  0  0  0  0  0  0
   45.4031  -19.5402    0.0000 C   0  0  0  0  0  0  0  0  0  0  0  0
   43.2684  -17.4983    0.0000 N   0  0  0  0  0  0  0  0  0  0  0  0
   43.9740  -17.0818    0.0000 C   0  0  0  0  0  0  0  0  0  0  0  0
   44.6834  -17.4942    0.0000 C   0  0  0  0  0  0  0  0  0  0  0  0
   45.3925  -17.0784    0.0000 C   0  0  0  0  0  0  0  0  0  0  0  0
   45.3886  -16.2562    0.0000 C   0  0  0  0  0  0  0  0  0  0  0  0
   44.6697  -15.8516    0.0000 C   0  0  0  0  0  0  0  0  0  0  0  0
   43.9634  -16.2656    0.0000 C   0  0  0  0  0  0  0  0  0  0  0  0
   46.8314  -21.1777    0.0000 O   0  0  0  0  0  0  0  0  0  0  0  0
   46.8346  -21.9949    0.0000 C   0  0  0  0  0  0  0  0  0  0  0  0
   46.8213  -19.5332    0.0000 O   0  0  0  0  0  0  0  0  0  0  0  0
   47.5317  -19.9373    0.0000 C   0  0  0  0  0  0  0  0  0  0  0  0
   46.1026  -17.4830    0.0000 O   0  0  0  0  0  0  0  0  0  0  0  0
   46.1072  -18.3001    0.0000 C   0  0  0  0  0  0  0  0  0  0  0  0
   46.0931  -15.8421    0.0000 Br  0  0  0  0  0  0  0  0  0  0  0  0
  1  2  2  0
  2  3  1  0
  3  6  2  0
  5  4  2  0
  4  1  1  0
  5  6  1  0
  6  7  1  0
  7  8  2  0
  8  9  1  0
  9 10  2  0
 10  5  1  0
 11 12  2  0
 12 13  1  0
 13 14  2  0
 14 15  1  0
 15 16  2  0
 16 11  1  0
  8 11  1  0
 10 17  1  0
 17 18  1  0
 18 19  2  0
 19 20  1  0
 20 21  2  0
 21 22  1  0
 22 23  2  0
 23 18  1  0
 14 24  1  0
 24 25  1  0
 15 26  1  0
 26 27  1  0
 20 28  1  0
 28 29  1  0
 21 30  1  0
M  END
>  <Classification>  (850) 
1

>  <pchembl>  (850) 
5.5

>  <InChI_steorem>  (850) 
InChI=1S/C23H20BrN3O3/c1-28-19-11-8-14(12-21(19)30-3)22-26-18-7-5-4-6-16(18)23(27-22)25-15-9-10-17(24)20(13-15)29-2/h4-13H,1-3H3,(H,25,26,27)

>  <source>  (850) 
ChEMBL26

>  <source_id>  (850) 
26

>  <optional_reference>  (850) 
10.1016/j.ejmech.2017.08.020

>  <optional_origin>  (850) 
None

>  <target>  (850) 
MDR1

$$$$

     RDKit          2D

 30 35  0  0  0  0  0  0  0  0999 V2000
   21.2510  -31.1744    0.0000 C   0  0  0  0  0  0  0  0  0  0  0  0
   21.2928  -30.2469    0.0000 C   0  0  0  0  0  0  0  0  0  0  0  0
   21.7079  -30.4894    0.0000 C   0  0  0  0  0  0  0  0  0  0  0  0
   21.9940  -29.9887    0.0000 C   0  0  0  0  0  0  0  0  0  0  0  0
   22.4724  -30.2294    0.0000 C   0  0  0  0  0  0  0  0  0  0  0  0
   22.4370  -29.3672    0.0000 C   0  0  0  0  0  0  0  0  0  0  0  0
   21.1592  -29.8529    0.0000 C   0  0  0  0  0  0  0  0  0  0  0  0
   21.1512  -28.9962    0.0000 C   0  0  0  0  0  0  0  0  0  0  0  0
   20.7768  -29.6514    0.0000 C   0  0  0  0  0  0  0  0  0  0  0  0
   21.9168  -28.7448    0.0000 C   0  0  0  0  0  0  0  0  0  0  0  0
   18.3070  -26.5422    0.0000 C   0  0  0  0  0  0  0  0  0  0  0  0
   18.3058  -27.3658    0.0000 C   0  0  0  0  0  0  0  0  0  0  0  0
   19.0180  -27.7789    0.0000 C   0  0  0  0  0  0  0  0  0  0  0  0
   19.7318  -27.3654    0.0000 C   0  0  0  0  0  0  0  0  0  0  0  0
   19.7290  -26.5386    0.0000 C   0  0  0  0  0  0  0  0  0  0  0  0
   19.0162  -26.1333    0.0000 C   0  0  0  0  0  0  0  0  0  0  0  0
   20.4392  -26.1273    0.0000 C   0  0  0  0  0  0  0  0  0  0  0  0
   21.1908  -26.4544    0.0000 N   0  0  0  0  0  0  0  0  0  0  0  0
   21.7394  -25.8409    0.0000 N   0  0  0  0  0  0  0  0  0  0  0  0
   21.3240  -25.1305    0.0000 N   0  0  0  0  0  0  0  0  0  0  0  0
   20.5212  -25.3077    0.0000 N   0  0  0  0  0  0  0  0  0  0  0  0
   22.5594  -25.8406    0.0000 C   0  0  0  0  0  0  0  0  0  0  0  0
   22.9658  -26.5534    0.0000 C   0  0  0  0  0  0  0  0  0  0  0  0
   23.7850  -26.5535    0.0000 C   0  0  0  0  0  0  0  0  0  0  0  0
   24.1977  -25.8421    0.0000 C   0  0  0  0  0  0  0  0  0  0  0  0
   23.7810  -25.1292    0.0000 C   0  0  0  0  0  0  0  0  0  0  0  0
   22.9631  -25.1326    0.0000 C   0  0  0  0  0  0  0  0  0  0  0  0
   20.4405  -27.7722    0.0000 N   0  0  0  0  0  0  0  0  0  0  0  0
   20.4425  -28.5894    0.0000 C   0  0  0  0  0  0  0  0  0  0  0  0
   19.7358  -28.9997    0.0000 O   0  0  0  0  0  0  0  0  0  0  0  0
  1  2  1  0
  1  3  1  0
  2  4  1  0
  3  5  1  0
  4  6  1  0
  5  6  1  0
  7  8  1  0
  3  7  1  0
  2  9  1  0
  6 10  1  0
 10  8  1  0
  8  9  1  0
 11 12  2  0
 12 13  1  0
 13 14  2  0
 14 15  1  0
 15 16  2  0
 16 11  1  0
 15 17  1  0
 17 18  2  0
 18 19  1  0
 19 20  1  0
 20 21  2  0
 21 17  1  0
 19 22  1  0
 22 23  2  0
 23 24  1  0
 24 25  2  0
 25 26  1  0
 26 27  2  0
 27 22  1  0
 14 28  1  0
 28 29  1  0
 29  8  1  0
 29 30  2  0
M  END
>  <Classification>  (851) 
0

>  <pchembl>  (851) 
4.96

>  <InChI_steorem>  (851) 
InChI=1S/C24H25N5O/c30-23(24-13-16-10-17(14-24)12-18(11-16)15-24)25-21-9-5-4-8-20(21)22-26-28-29(27-22)19-6-2-1-3-7-19/h1-9,16-18H,10-15H2,(H,25,30)

>  <source>  (851) 
ChEMBL26

>  <source_id>  (851) 
26

>  <optional_reference>  (851) 
10.1016/j.ejmech.2018.01.012

>  <optional_origin>  (851) 
None

>  <target>  (851) 
MDR1

$$$$

     RDKit          2D

 31 34  0  0  0  0  0  0  0  0999 V2000
   16.1168  -25.6714    0.0000 O   0  0  0  0  0  0  0  0  0  0  0  0
   15.7124  -24.9656    0.0000 S   0  0  0  0  0  0  0  0  0  0  0  0
   15.3034  -25.6688    0.0000 O   0  0  0  0  0  0  0  0  0  0  0  0
   10.7541  -26.2161    0.0000 C   0  0  0  0  0  0  0  0  0  0  0  0
   10.7530  -27.0398    0.0000 C   0  0  0  0  0  0  0  0  0  0  0  0
   11.4652  -27.4529    0.0000 C   0  0  0  0  0  0  0  0  0  0  0  0
   11.4634  -25.8073    0.0000 C   0  0  0  0  0  0  0  0  0  0  0  0
   12.1761  -26.2125    0.0000 C   0  0  0  0  0  0  0  0  0  0  0  0
   12.1769  -27.0357    0.0000 C   0  0  0  0  0  0  0  0  0  0  0  0
   12.8895  -27.4469    0.0000 N   0  0  0  0  0  0  0  0  0  0  0  0
   13.5978  -27.0319    0.0000 C   0  0  0  0  0  0  0  0  0  0  0  0
   13.5931  -26.2056    0.0000 N   0  0  0  0  0  0  0  0  0  0  0  0
   12.8840  -25.8023    0.0000 C   0  0  0  0  0  0  0  0  0  0  0  0
   14.3077  -27.4378    0.0000 C   0  0  0  0  0  0  0  0  0  0  0  0
   14.3095  -28.2602    0.0000 C   0  0  0  0  0  0  0  0  0  0  0  0
   15.0221  -28.6660    0.0000 C   0  0  0  0  0  0  0  0  0  0  0  0
   15.7333  -28.2546    0.0000 C   0  0  0  0  0  0  0  0  0  0  0  0
   15.7275  -27.4291    0.0000 C   0  0  0  0  0  0  0  0  0  0  0  0
   15.0144  -27.0229    0.0000 C   0  0  0  0  0  0  0  0  0  0  0  0
   12.8796  -24.9810    0.0000 N   0  0  0  0  0  0  0  0  0  0  0  0
   13.5852  -24.5645    0.0000 C   0  0  0  0  0  0  0  0  0  0  0  0
   14.2946  -24.9769    0.0000 C   0  0  0  0  0  0  0  0  0  0  0  0
   15.0038  -24.5611    0.0000 C   0  0  0  0  0  0  0  0  0  0  0  0
   14.9999  -23.7389    0.0000 C   0  0  0  0  0  0  0  0  0  0  0  0
   14.2809  -23.3342    0.0000 C   0  0  0  0  0  0  0  0  0  0  0  0
   13.5746  -23.7482    0.0000 C   0  0  0  0  0  0  0  0  0  0  0  0
   16.4426  -28.6604    0.0000 O   0  0  0  0  0  0  0  0  0  0  0  0
   16.4458  -29.4776    0.0000 C   0  0  0  0  0  0  0  0  0  0  0  0
   16.4326  -27.0159    0.0000 O   0  0  0  0  0  0  0  0  0  0  0  0
   17.1429  -27.4199    0.0000 C   0  0  0  0  0  0  0  0  0  0  0  0
   16.4192  -24.5530    0.0000 F   0  0  0  0  0  0  0  0  0  0  0  0
  2  1  2  0
  3  2  2  0
  4  5  2  0
  5  6  1  0
  6  9  2  0
  8  7  2  0
  7  4  1  0
  8  9  1  0
  9 10  1  0
 10 11  2  0
 11 12  1  0
 12 13  2  0
 13  8  1  0
 14 15  2  0
 15 16  1  0
 16 17  2  0
 17 18  1  0
 18 19  2  0
 19 14  1  0
 11 14  1  0
 13 20  1  0
 20 21  1  0
 21 22  2  0
 22 23  1  0
 23 24  2  0
 24 25  1  0
 25 26  2  0
 26 21  1  0
 17 27  1  0
 27 28  1  0
 18 29  1  0
 29 30  1  0
 23  2  1  0
  2 31  1  0
M  END
>  <Classification>  (852) 
1

>  <pchembl>  (852) 
5.49

>  <InChI_steorem>  (852) 
InChI=1S/C22H18FN3O4S/c1-29-19-11-10-14(12-20(19)30-2)21-25-18-9-4-3-8-17(18)22(26-21)24-15-6-5-7-16(13-15)31(23,27)28/h3-13H,1-2H3,(H,24,25,26)

>  <source>  (852) 
ChEMBL26

>  <source_id>  (852) 
26

>  <optional_reference>  (852) 
10.1016/j.ejmech.2017.08.020

>  <optional_origin>  (852) 
None

>  <target>  (852) 
MDR1

$$$$

     RDKit          2D

 31 34  0  0  0  0  0  0  0  0999 V2000
    6.5213   -8.2582    0.0000 C   0  0  0  0  0  0  0  0  0  0  0  0
    7.3090   -8.4993    0.0000 C   0  0  0  0  0  0  0  0  0  0  0  0
    7.5731   -9.2838    0.0000 C   0  0  0  0  0  0  0  0  0  0  0  0
    7.1004   -9.9559    0.0000 O   0  0  0  0  0  0  0  0  0  0  0  0
    8.3980   -9.2717    0.0000 C   0  0  0  0  0  0  0  0  0  0  0  0
    8.8944   -9.9296    0.0000 O   0  0  0  0  0  0  0  0  0  0  0  0
    8.6432   -8.4797    0.0000 C   0  0  0  0  0  0  0  0  0  0  0  0
    7.9670   -8.0071    0.0000 O   0  0  0  0  0  0  0  0  0  0  0  0
    9.4236   -8.2157    0.0000 N   0  0  0  0  0  0  0  0  0  0  0  0
   10.0998   -8.6883    0.0000 C   0  0  0  0  0  0  0  0  0  0  0  0
   10.7578   -8.1961    0.0000 N   0  0  0  0  0  0  0  0  0  0  0  0
   10.4937   -7.4158    0.0000 C   0  0  0  0  0  0  0  0  0  0  0  0
   10.8957   -6.6936    0.0000 C   0  0  0  0  0  0  0  0  0  0  0  0
   11.7206   -6.6815    0.0000 N   0  0  0  0  0  0  0  0  0  0  0  0
   10.4728   -5.9877    0.0000 N   0  0  0  0  0  0  0  0  0  0  0  0
    9.6479   -5.9998    0.0000 C   0  0  0  0  0  0  0  0  0  0  0  0
    9.2459   -6.7178    0.0000 N   0  0  0  0  0  0  0  0  0  0  0  0
    9.6688   -7.4279    0.0000 C   0  0  0  0  0  0  0  0  0  0  0  0
    5.9454   -8.8512    0.0000 O   0  0  0  0  0  0  0  0  0  0  0  0
    5.1455   -8.6494    0.0000 C   0  0  0  0  0  0  0  0  0  0  0  0
    4.5707   -9.2412    0.0000 C   0  0  0  0  0  0  0  0  0  0  0  0
    4.9203   -7.8557    0.0000 O   0  0  0  0  0  0  0  0  0  0  0  0
    3.7740   -9.0375    0.0000 C   0  0  0  0  0  0  0  0  0  0  0  0
    3.1995   -9.6285    0.0000 C   0  0  0  0  0  0  0  0  0  0  0  0
    3.4245  -10.4232    0.0000 C   0  0  0  0  0  0  0  0  0  0  0  0
    4.2292  -10.6235    0.0000 C   0  0  0  0  0  0  0  0  0  0  0  0
    4.8002  -10.0309    0.0000 C   0  0  0  0  0  0  0  0  0  0  0  0
    2.8505  -11.0158    0.0000 S   0  0  0  0  0  0  0  0  0  0  0  0
    2.2625  -11.5958    0.0000 F   0  0  0  0  0  0  0  0  0  0  0  0
    3.4366  -11.5965    0.0000 O   0  0  0  0  0  0  0  0  0  0  0  0
    2.2652  -10.4344    0.0000 O   0  0  0  0  0  0  0  0  0  0  0  0
 11 12  1  0
 12 13  2  0
 13 14  1  0
 13 15  1  0
 15 16  2  0
 16 17  1  0
 17 18  2  0
 12 18  1  0
  9 18  1  0
  1 19  1  0
 19 20  1  0
  2  1  1  0
 20 21  1  0
  2  3  1  0
 20 22  2  0
  3  4  1  0
 21 23  2  0
  3  5  1  0
 23 24  1  0
  5  6  1  0
 24 25  2  0
  5  7  1  0
 25 26  1  0
  7  8  1  0
 26 27  2  0
 27 21  1  0
  2  8  1  0
 25 28  1  0
  7  9  1  0
 28 29  1  0
  9 10  1  0
 28 30  2  0
 10 11  2  0
 28 31  2  0
M  END
>  <Classification>  (853) 
1

>  <pchembl>  (853) 
6.77

>  <InChI_steorem>  (853) 
InChI=1S/C17H16FN5O7S/c18-31(27,28)9-3-1-8(2-4-9)17(26)29-5-10-12(24)13(25)16(30-10)23-7-22-11-14(19)20-6-21-15(11)23/h1-4,6-7,10,12-13,16,24-25H,5H2,(H2,19,20,21)

>  <source>  (853) 
ChEMBL26

>  <source_id>  (853) 
26

>  <optional_reference>  (853) 
10.1016/j.ejmech.2017.06.047

>  <optional_origin>  (853) 
None

>  <target>  (853) 
MDR1

$$$$

     RDKit          2D

 33 36  0  0  0  0  0  0  0  0999 V2000
   25.5337  -18.7087    0.0000 C   0  0  0  0  0  0  0  0  0  0  0  0
   25.5326  -19.5324    0.0000 C   0  0  0  0  0  0  0  0  0  0  0  0
   26.2448  -19.9454    0.0000 C   0  0  0  0  0  0  0  0  0  0  0  0
   26.2430  -18.2998    0.0000 C   0  0  0  0  0  0  0  0  0  0  0  0
   26.9557  -18.7051    0.0000 C   0  0  0  0  0  0  0  0  0  0  0  0
   26.9565  -19.5282    0.0000 C   0  0  0  0  0  0  0  0  0  0  0  0
   27.6692  -19.9394    0.0000 N   0  0  0  0  0  0  0  0  0  0  0  0
   28.3774  -19.5245    0.0000 C   0  0  0  0  0  0  0  0  0  0  0  0
   28.3727  -18.6982    0.0000 N   0  0  0  0  0  0  0  0  0  0  0  0
   27.6636  -18.2949    0.0000 C   0  0  0  0  0  0  0  0  0  0  0  0
   29.0873  -19.9304    0.0000 C   0  0  0  0  0  0  0  0  0  0  0  0
   29.0891  -20.7528    0.0000 C   0  0  0  0  0  0  0  0  0  0  0  0
   29.8017  -21.1586    0.0000 C   0  0  0  0  0  0  0  0  0  0  0  0
   30.5129  -20.7472    0.0000 C   0  0  0  0  0  0  0  0  0  0  0  0
   30.5071  -19.9216    0.0000 C   0  0  0  0  0  0  0  0  0  0  0  0
   29.7940  -19.5154    0.0000 C   0  0  0  0  0  0  0  0  0  0  0  0
   27.6592  -17.4735    0.0000 N   0  0  0  0  0  0  0  0  0  0  0  0
   28.3648  -17.0571    0.0000 C   0  0  0  0  0  0  0  0  0  0  0  0
   29.0742  -17.4694    0.0000 C   0  0  0  0  0  0  0  0  0  0  0  0
   29.7834  -17.0536    0.0000 C   0  0  0  0  0  0  0  0  0  0  0  0
   29.7795  -16.2315    0.0000 C   0  0  0  0  0  0  0  0  0  0  0  0
   29.0605  -15.8268    0.0000 C   0  0  0  0  0  0  0  0  0  0  0  0
   28.3542  -16.2408    0.0000 C   0  0  0  0  0  0  0  0  0  0  0  0
   31.2222  -21.1530    0.0000 O   0  0  0  0  0  0  0  0  0  0  0  0
   31.2255  -21.9701    0.0000 C   0  0  0  0  0  0  0  0  0  0  0  0
   31.2122  -19.5085    0.0000 O   0  0  0  0  0  0  0  0  0  0  0  0
   31.9225  -19.9125    0.0000 C   0  0  0  0  0  0  0  0  0  0  0  0
   30.4934  -17.4582    0.0000 C   0  0  0  0  0  0  0  0  0  0  0  0
   30.4981  -18.2754    0.0000 F   0  0  0  0  0  0  0  0  0  0  0  0
   31.1988  -17.0456    0.0000 F   0  0  0  0  0  0  0  0  0  0  0  0
   31.1977  -17.8668    0.0000 F   0  0  0  0  0  0  0  0  0  0  0  0
   30.4839  -15.8173    0.0000 O   0  0  0  0  0  0  0  0  0  0  0  0
   31.1948  -16.2203    0.0000 C   0  0  0  0  0  0  0  0  0  0  0  0
  1  2  2  0
  2  3  1  0
  3  6  2  0
  5  4  2  0
  4  1  1  0
  5  6  1  0
  6  7  1  0
  7  8  2  0
  8  9  1  0
  9 10  2  0
 10  5  1  0
 11 12  2  0
 12 13  1  0
 13 14  2  0
 14 15  1  0
 15 16  2  0
 16 11  1  0
  8 11  1  0
 10 17  1  0
 17 18  1  0
 18 19  2  0
 19 20  1  0
 20 21  2  0
 21 22  1  0
 22 23  2  0
 23 18  1  0
 14 24  1  0
 24 25  1  0
 15 26  1  0
 26 27  1  0
 20 28  1  0
 28 29  1  0
 28 30  1  0
 28 31  1  0
 21 32  1  0
 32 33  1  0
M  END
>  <Classification>  (854) 
1

>  <pchembl>  (854) 
5.78

>  <InChI_steorem>  (854) 
InChI=1S/C24H20F3N3O3/c1-31-19-11-9-15(13-17(19)24(25,26)27)28-23-16-6-4-5-7-18(16)29-22(30-23)14-8-10-20(32-2)21(12-14)33-3/h4-13H,1-3H3,(H,28,29,30)

>  <source>  (854) 
ChEMBL26

>  <source_id>  (854) 
26

>  <optional_reference>  (854) 
10.1016/j.ejmech.2017.08.020

>  <optional_origin>  (854) 
None

>  <target>  (854) 
MDR1

$$$$

     RDKit          2D

 44 50  0  0  0  0  0  0  0  0999 V2000
   19.8811   -4.8236    0.0000 C   0  0  0  0  0  0  0  0  0  0  0  0
   20.6694   -4.6090    0.0000 C   0  0  0  0  0  0  0  0  0  0  0  0
   19.4334   -4.1402    0.0000 O   0  0  0  0  0  0  0  0  0  0  0  0
   19.1668   -5.2292    0.0000 N   0  0  0  0  0  0  0  0  0  0  0  0
   14.2086   -3.9786    0.0000 C   0  0  0  0  0  0  0  0  0  0  0  0
   14.2075   -4.7981    0.0000 C   0  0  0  0  0  0  0  0  0  0  0  0
   15.6224   -3.9750    0.0000 C   0  0  0  0  0  0  0  0  0  0  0  0
   14.9137   -3.5697    0.0000 C   0  0  0  0  0  0  0  0  0  0  0  0
   15.6252   -4.7977    0.0000 C   0  0  0  0  0  0  0  0  0  0  0  0
   14.9120   -5.2042    0.0000 C   0  0  0  0  0  0  0  0  0  0  0  0
   14.9076   -6.0206    0.0000 C   0  0  0  0  0  0  0  0  0  0  0  0
   15.6146   -6.4365    0.0000 C   0  0  0  0  0  0  0  0  0  0  0  0
   16.3339   -5.2075    0.0000 C   0  0  0  0  0  0  0  0  0  0  0  0
   16.3273   -6.0299    0.0000 C   0  0  0  0  0  0  0  0  0  0  0  0
   17.0323   -6.4445    0.0000 N   0  0  0  0  0  0  0  0  0  0  0  0
   17.7484   -6.0413    0.0000 C   0  0  0  0  0  0  0  0  0  0  0  0
   17.7550   -5.2189    0.0000 C   0  0  0  0  0  0  0  0  0  0  0  0
   17.0455   -4.7997    0.0000 C   0  0  0  0  0  0  0  0  0  0  0  0
   13.6199   -5.4273    0.0000 N   0  0  0  0  0  0  0  0  0  0  0  0
   13.9913   -6.1702    0.0000 C   0  0  0  0  0  0  0  0  0  0  0  0
   13.6193   -6.8978    0.0000 Br  0  0  0  0  0  0  0  0  0  0  0  0
   16.3191   -6.8429    0.0000 C   0  0  0  0  0  0  0  0  0  0  0  0
   17.0246   -7.2616    0.0000 C   0  0  0  0  0  0  0  0  0  0  0  0
   18.4664   -4.8167    0.0000 C   0  0  0  0  0  0  0  0  0  0  0  0
   18.4737   -3.9995    0.0000 O   0  0  0  0  0  0  0  0  0  0  0  0
   19.8767   -5.6378    0.0000 C   0  0  0  0  0  0  0  0  0  0  0  0
   19.1668   -6.0426    0.0000 C   0  0  0  0  0  0  0  0  0  0  0  0
   20.5822   -6.0502    0.0000 C   0  0  0  0  0  0  0  0  0  0  0  0
   19.9450   -3.5031    0.0000 C   0  0  0  0  0  0  0  0  0  0  0  0
   20.7079   -3.7956    0.0000 N   0  0  0  0  0  0  0  0  0  0  0  0
   21.3391   -3.2839    0.0000 C   0  0  0  0  0  0  0  0  0  0  0  0
   21.2132   -2.4772    0.0000 C   0  0  0  0  0  0  0  0  0  0  0  0
   19.8132   -2.6990    0.0000 C   0  0  0  0  0  0  0  0  0  0  0  0
   20.4487   -2.1898    0.0000 N   0  0  0  0  0  0  0  0  0  0  0  0
   20.1608   -1.4281    0.0000 C   0  0  0  0  0  0  0  0  0  0  0  0
   19.3474   -1.4665    0.0000 C   0  0  0  0  0  0  0  0  0  0  0  0
   19.1327   -2.2520    0.0000 C   0  0  0  0  0  0  0  0  0  0  0  0
   21.8471   -1.9614    0.0000 O   0  0  0  0  0  0  0  0  0  0  0  0
   22.1018   -3.5774    0.0000 C   0  0  0  0  0  0  0  0  0  0  0  0
   22.7373   -3.0637    0.0000 C   0  0  0  0  0  0  0  0  0  0  0  0
   23.5000   -3.3573    0.0000 C   0  0  0  0  0  0  0  0  0  0  0  0
   22.6102   -2.2565    0.0000 C   0  0  0  0  0  0  0  0  0  0  0  0
   19.1503   -3.2853    0.0000 O   0  0  0  0  0  0  0  0  0  0  0  0
   21.3068   -5.1204    0.0000 O   0  0  0  0  0  0  0  0  0  0  0  0
  1  2  1  0
  2 30  1  0
 29  3  1  0
  3  1  1  0
  5  6  2  0
  6 10  1  0
  9  7  1  0
  7  8  2  0
  8  5  1  0
  9 10  2  0
  9 13  1  0
 10 11  1  0
 11 12  1  0
 12 14  1  0
 13 14  1  0
 13 18  2  0
 14 15  1  0
 15 16  1  0
 16 17  1  0
 17 18  1  0
  6 19  1  0
 11 20  2  0
 20 19  1  0
 20 21  1  0
 14 22  1  0
 15 23  1  0
 17 24  1  0
 24  4  1  0
 24 25  2  0
  4  1  1  0
  1 26  1  0
 26 27  1  0
 26 28  1  0
 29 30  1  0
 29 33  1  0
 30 31  1  0
 31 32  1  0
 32 34  1  0
 33 34  1  0
 34 35  1  0
 35 36  1  0
 36 37  1  0
 37 33  1  0
 32 38  2  0
 31 39  1  0
 39 40  1  0
 40 41  1  0
 40 42  1  0
 29 43  1  0
  2 44  2  0
M  END
>  <Classification>  (855) 
1

>  <pchembl>  (855) 
5.4

>  <InChI_steorem>  (855) 
InChI=1S/C33H42BrN5O5/c1-17(2)13-24-29(41)38-12-8-11-25(38)33(43)39(24)30(42)32(44-33,18(3)4)36-28(40)19-14-22-20-9-7-10-23-26(20)21(27(34)35-23)15-31(22,5)37(6)16-19/h7,9-10,14,17-19,24-25,35,43H,8,11-13,15-16H2,1-6H3,(H,36,40)

>  <source>  (855) 
ChEMBL26

>  <source_id>  (855) 
26

>  <optional_reference>  (855) 
10.1016/j.ejmech.2017.06.047

>  <optional_origin>  (855) 
None

>  <target>  (855) 
MDR1

$$$$

     RDKit          2D

 22 23  0  0  0  0  0  0  0  0999 V2000
    7.7652   -6.8083    0.0000 C   0  0  0  0  0  0  0  0  0  0  0  0
    7.7641   -7.6357    0.0000 C   0  0  0  0  0  0  0  0  0  0  0  0
    8.4789   -8.0485    0.0000 C   0  0  0  0  0  0  0  0  0  0  0  0
    9.1953   -7.6352    0.0000 C   0  0  0  0  0  0  0  0  0  0  0  0
    9.1925   -6.8047    0.0000 C   0  0  0  0  0  0  0  0  0  0  0  0
    8.4771   -6.3955    0.0000 C   0  0  0  0  0  0  0  0  0  0  0  0
    8.4746   -5.5705    0.0000 C   0  0  0  0  0  0  0  0  0  0  0  0
    7.0507   -6.3960    0.0000 O   0  0  0  0  0  0  0  0  0  0  0  0
    7.0493   -8.0476    0.0000 C   0  0  0  0  0  0  0  0  0  0  0  0
    9.9054   -6.3895    0.0000 O   0  0  0  0  0  0  0  0  0  0  0  0
    9.9023   -5.5645    0.0000 C   0  0  0  0  0  0  0  0  0  0  0  0
    9.9105   -8.0466    0.0000 C   0  0  0  0  0  0  0  0  0  0  0  0
    9.9117   -8.8716    0.0000 O   0  0  0  0  0  0  0  0  0  0  0  0
   10.6243   -7.6329    0.0000 C   0  0  0  0  0  0  0  0  0  0  0  0
   10.6230   -6.8079    0.0000 C   0  0  0  0  0  0  0  0  0  0  0  0
   11.3368   -6.3943    0.0000 C   0  0  0  0  0  0  0  0  0  0  0  0
   12.0495   -6.8067    0.0000 C   0  0  0  0  0  0  0  0  0  0  0  0
   12.7628   -6.3938    0.0000 C   0  0  0  0  0  0  0  0  0  0  0  0
   12.7620   -5.5679    0.0000 C   0  0  0  0  0  0  0  0  0  0  0  0
   12.0419   -5.1567    0.0000 C   0  0  0  0  0  0  0  0  0  0  0  0
   11.3315   -5.5720    0.0000 C   0  0  0  0  0  0  0  0  0  0  0  0
    8.4787   -8.8735    0.0000 O   0  0  0  0  0  0  0  0  0  0  0  0
 10 11  1  0
  5  6  1  0
  4 12  1  0
  6  1  2  0
 12 13  2  0
  1  2  1  0
 12 14  1  0
  6  7  1  0
 14 15  2  3
  3  4  1  0
 15 16  1  0
  1  8  1  0
 16 17  2  0
 17 18  1  0
  2  9  1  0
 18 19  2  0
  4  5  2  0
 19 20  1  0
  5 10  1  0
 20 21  2  0
 21 16  1  0
  2  3  2  0
  3 22  1  0
M  END
>  <Classification>  (856) 
0

>  <pchembl>  (856) 
4.61

>  <InChI_steorem>  (856) 
InChI=1S/C18H18O4/c1-11-16(20)12(2)18(22-3)15(17(11)21)14(19)10-9-13-7-5-4-6-8-13/h4-10,20-21H,1-3H3

>  <source>  (856) 
ChEMBL28

>  <source_id>  (856) 
28

>  <optional_reference>  (856) 
10.1016/j.ejmech.2019.05.053

>  <optional_origin>  (856) 
None

>  <target>  (856) 
MDR1

$$$$

     RDKit          2D

 24 27  0  0  0  0  0  0  0  0999 V2000
    0.1931    0.5119    0.0000 N   0  0  0  0  0  0  0  0  0  0  0  0
    0.9076    1.7494    0.0000 N   0  0  0  0  0  0  0  0  0  0  0  0
    0.9076   -0.7256    0.0000 N   0  0  0  0  0  0  0  0  0  0  0  0
    1.6221    0.5119    0.0000 C   0  0  0  0  0  0  0  0  0  0  0  0
    0.9076    0.0994    0.0000 C   0  0  0  0  0  0  0  0  0  0  0  0
    1.6221    1.3369    0.0000 C   0  0  0  0  0  0  0  0  0  0  0  0
    0.1931    1.3369    0.0000 C   0  0  0  0  0  0  0  0  0  0  0  0
   -0.5214    1.7494    0.0000 C   0  0  0  0  0  0  0  0  0  0  0  0
    2.3365    0.0994    0.0000 C   0  0  0  0  0  0  0  0  0  0  0  0
    2.3365    1.7494    0.0000 C   0  0  0  0  0  0  0  0  0  0  0  0
    1.6221   -1.1381    0.0000 C   0  0  0  0  0  0  0  0  0  0  0  0
    3.0510    0.5119    0.0000 C   0  0  0  0  0  0  0  0  0  0  0  0
    3.0510    1.3369    0.0000 C   0  0  0  0  0  0  0  0  0  0  0  0
   -1.2358    1.3369    0.0000 C   0  0  0  0  0  0  0  0  0  0  0  0
   -0.5214    2.5744    0.0000 C   0  0  0  0  0  0  0  0  0  0  0  0
    2.3365   -0.7256    0.0000 C   0  0  0  0  0  0  0  0  0  0  0  0
    1.6221   -1.9631    0.0000 C   0  0  0  0  0  0  0  0  0  0  0  0
    3.0510   -1.1381    0.0000 C   0  0  0  0  0  0  0  0  0  0  0  0
   -1.9503    1.7494    0.0000 C   0  0  0  0  0  0  0  0  0  0  0  0
   -1.2358    2.9869    0.0000 C   0  0  0  0  0  0  0  0  0  0  0  0
    2.3365   -2.3756    0.0000 C   0  0  0  0  0  0  0  0  0  0  0  0
    3.0510   -1.9631    0.0000 C   0  0  0  0  0  0  0  0  0  0  0  0
   -1.9503    2.5744    0.0000 C   0  0  0  0  0  0  0  0  0  0  0  0
    3.7655   -0.7256    0.0000 C   0  0  0  0  0  0  0  0  0  0  0  0
  1  5  2  0
  1  7  1  0
  2  6  1  0
  2  7  2  0
  3  5  1  0
  3 11  1  0
  4  5  1  0
  4  6  2  0
  4  9  1  0
  6 10  1  0
  7  8  1  0
  8 14  2  0
  8 15  1  0
  9 12  2  0
 10 13  2  0
 11 16  2  0
 11 17  1  0
 12 13  1  0
 14 19  1  0
 15 20  2  0
 16 18  1  0
 17 21  2  0
 18 22  2  0
 18 24  1  0
 19 23  2  0
 20 23  1  0
 21 22  1  0
M  END
>  <Classification>  (857) 
1

>  <pchembl>  (857) 
5.52

>  <InChI_steorem>  (857) 
InChI=1S/C21H17N3/c1-15-8-7-11-17(14-15)22-21-18-12-5-6-13-19(18)23-20(24-21)16-9-3-2-4-10-16/h2-14H,1H3,(H,22,23,24)

>  <source>  (857) 
ChEMBL28

>  <source_id>  (857) 
28

>  <optional_reference>  (857) 
10.1021/acs.jmedchem.6b00330

>  <optional_origin>  (857) 
None

>  <target>  (857) 
MDR1

$$$$

     RDKit          2D

 24 27  0  0  0  0  0  0  0  0999 V2000
   18.0139  -12.3404    0.0000 C   0  0  0  0  0  0  0  0  0  0  0  0
   18.0128  -13.1599    0.0000 C   0  0  0  0  0  0  0  0  0  0  0  0
   18.7208  -13.5689    0.0000 C   0  0  0  0  0  0  0  0  0  0  0  0
   18.7190  -11.9315    0.0000 C   0  0  0  0  0  0  0  0  0  0  0  0
   19.4277  -12.3368    0.0000 C   0  0  0  0  0  0  0  0  0  0  0  0
   19.4284  -13.1558    0.0000 C   0  0  0  0  0  0  0  0  0  0  0  0
   20.1370  -13.5629    0.0000 N   0  0  0  0  0  0  0  0  0  0  0  0
   20.8452  -13.1520    0.0000 C   0  0  0  0  0  0  0  0  0  0  0  0
   20.8405  -12.3299    0.0000 N   0  0  0  0  0  0  0  0  0  0  0  0
   20.1314  -11.9265    0.0000 C   0  0  0  0  0  0  0  0  0  0  0  0
   21.5587  -13.5550    0.0000 C   0  0  0  0  0  0  0  0  0  0  0  0
   21.6473  -14.3674    0.0000 C   0  0  0  0  0  0  0  0  0  0  0  0
   22.4473  -14.5342    0.0000 C   0  0  0  0  0  0  0  0  0  0  0  0
   22.8531  -13.8248    0.0000 C   0  0  0  0  0  0  0  0  0  0  0  0
   22.3039  -13.2198    0.0000 N   0  0  0  0  0  0  0  0  0  0  0  0
   20.1270  -11.1094    0.0000 N   0  0  0  0  0  0  0  0  0  0  0  0
   20.8326  -10.6970    0.0000 C   0  0  0  0  0  0  0  0  0  0  0  0
   21.5379  -11.1052    0.0000 C   0  0  0  0  0  0  0  0  0  0  0  0
   22.2429  -10.6936    0.0000 C   0  0  0  0  0  0  0  0  0  0  0  0
   22.2390   -9.8755    0.0000 C   0  0  0  0  0  0  0  0  0  0  0  0
   21.5242   -9.4709    0.0000 C   0  0  0  0  0  0  0  0  0  0  0  0
   20.8221   -9.8849    0.0000 C   0  0  0  0  0  0  0  0  0  0  0  0
   22.9440   -9.4622    0.0000 O   0  0  0  0  0  0  0  0  0  0  0  0
   23.6544   -9.8661    0.0000 C   0  0  0  0  0  0  0  0  0  0  0  0
  1  2  2  0
  2  3  1  0
  3  6  2  0
  5  4  2  0
  4  1  1  0
  5  6  1  0
  6  7  1  0
  7  8  2  0
  8  9  1  0
  9 10  2  0
 10  5  1  0
 11 12  2  0
 12 13  1  0
 13 14  2  0
 14 15  1  0
 15 11  1  0
  8 11  1  0
 10 16  1  0
 16 17  1  0
 17 18  2  0
 18 19  1  0
 19 20  2  0
 20 21  1  0
 21 22  2  0
 22 17  1  0
 20 23  1  0
 23 24  1  0
M  END
>  <Classification>  (858) 
1

>  <pchembl>  (858) 
5.09

>  <InChI_steorem>  (858) 
InChI=1S/C19H16N4O/c1-24-14-10-8-13(9-11-14)21-18-15-5-2-3-6-16(15)22-19(23-18)17-7-4-12-20-17/h2-12,20H,1H3,(H,21,22,23)

>  <source>  (858) 
ChEMBL28

>  <source_id>  (858) 
28

>  <optional_reference>  (858) 
10.1016/j.ejmech.2018.10.026

>  <optional_origin>  (858) 
None

>  <target>  (858) 
MDR1

$$$$

     RDKit          2D

 24 27  0  0  0  0  0  0  0  0999 V2000
    9.2601  -12.6169    0.0000 C   0  0  0  0  0  0  0  0  0  0  0  0
    9.2589  -13.4364    0.0000 C   0  0  0  0  0  0  0  0  0  0  0  0
    9.9670  -13.8454    0.0000 C   0  0  0  0  0  0  0  0  0  0  0  0
    9.9652  -12.2080    0.0000 C   0  0  0  0  0  0  0  0  0  0  0  0
   10.6738  -12.6133    0.0000 C   0  0  0  0  0  0  0  0  0  0  0  0
   10.6746  -13.4323    0.0000 C   0  0  0  0  0  0  0  0  0  0  0  0
   11.3831  -13.8394    0.0000 N   0  0  0  0  0  0  0  0  0  0  0  0
   12.0914  -13.4286    0.0000 C   0  0  0  0  0  0  0  0  0  0  0  0
   12.0866  -12.6064    0.0000 N   0  0  0  0  0  0  0  0  0  0  0  0
   11.3775  -12.2031    0.0000 C   0  0  0  0  0  0  0  0  0  0  0  0
   12.8048  -13.8316    0.0000 C   0  0  0  0  0  0  0  0  0  0  0  0
   12.8934  -14.6439    0.0000 C   0  0  0  0  0  0  0  0  0  0  0  0
   13.6934  -14.8107    0.0000 C   0  0  0  0  0  0  0  0  0  0  0  0
   14.0993  -14.1014    0.0000 C   0  0  0  0  0  0  0  0  0  0  0  0
   13.5500  -13.4963    0.0000 N   0  0  0  0  0  0  0  0  0  0  0  0
   11.3732  -11.3859    0.0000 N   0  0  0  0  0  0  0  0  0  0  0  0
   12.0787  -10.9735    0.0000 C   0  0  0  0  0  0  0  0  0  0  0  0
   12.7840  -11.3818    0.0000 C   0  0  0  0  0  0  0  0  0  0  0  0
   13.4891  -10.9701    0.0000 C   0  0  0  0  0  0  0  0  0  0  0  0
   13.4852  -10.1520    0.0000 C   0  0  0  0  0  0  0  0  0  0  0  0
   12.7703   -9.7474    0.0000 C   0  0  0  0  0  0  0  0  0  0  0  0
   12.0682  -10.1614    0.0000 C   0  0  0  0  0  0  0  0  0  0  0  0
   14.1981  -11.3741    0.0000 C   0  0  0  0  0  0  0  0  0  0  0  0
   14.9077  -11.7793    0.0000 N   0  0  0  0  0  0  0  0  0  0  0  0
  1  2  2  0
  2  3  1  0
  3  6  2  0
  5  4  2  0
  4  1  1  0
  5  6  1  0
  6  7  1  0
  7  8  2  0
  8  9  1  0
  9 10  2  0
 10  5  1  0
 11 12  2  0
 12 13  1  0
 13 14  2  0
 14 15  1  0
 15 11  1  0
  8 11  1  0
 10 16  1  0
 16 17  1  0
 17 18  2  0
 18 19  1  0
 19 20  2  0
 20 21  1  0
 21 22  2  0
 22 17  1  0
 23 24  3  0
 19 23  1  0
M  END
>  <Classification>  (859) 
0

>  <pchembl>  (859) 
4.73

>  <InChI_steorem>  (859) 
InChI=1S/C19H13N5/c20-12-13-5-3-6-14(11-13)22-18-15-7-1-2-8-16(15)23-19(24-18)17-9-4-10-21-17/h1-11,21H,(H,22,23,24)

>  <source>  (859) 
ChEMBL28

>  <source_id>  (859) 
28

>  <optional_reference>  (859) 
10.1016/j.ejmech.2018.10.026

>  <optional_origin>  (859) 
None

>  <target>  (859) 
MDR1

$$$$

     RDKit          2D

 25 28  0  0  0  0  0  0  0  0999 V2000
    0.9272   -3.6361    0.0000 C   0  0  0  0  0  0  0  0  0  0  0  0
    0.9261   -4.4597    0.0000 C   0  0  0  0  0  0  0  0  0  0  0  0
    1.6341   -4.8687    0.0000 C   0  0  0  0  0  0  0  0  0  0  0  0
    1.6323   -3.2231    0.0000 C   0  0  0  0  0  0  0  0  0  0  0  0
    2.3451   -3.6325    0.0000 C   0  0  0  0  0  0  0  0  0  0  0  0
    2.3458   -4.4556    0.0000 C   0  0  0  0  0  0  0  0  0  0  0  0
    3.0585   -4.8627    0.0000 N   0  0  0  0  0  0  0  0  0  0  0  0
    3.7709   -4.4518    0.0000 C   0  0  0  0  0  0  0  0  0  0  0  0
    3.7661   -3.6256    0.0000 C   0  0  0  0  0  0  0  0  0  0  0  0
    3.0529   -3.2181    0.0000 C   0  0  0  0  0  0  0  0  0  0  0  0
    3.0486   -2.3968    0.0000 N   0  0  0  0  0  0  0  0  0  0  0  0
    3.7582   -1.9844    0.0000 C   0  0  0  0  0  0  0  0  0  0  0  0
    4.4676   -2.3927    0.0000 C   0  0  0  0  0  0  0  0  0  0  0  0
    5.1768   -1.9810    0.0000 C   0  0  0  0  0  0  0  0  0  0  0  0
    5.1729   -1.1588    0.0000 C   0  0  0  0  0  0  0  0  0  0  0  0
    4.4540   -0.7500    0.0000 C   0  0  0  0  0  0  0  0  0  0  0  0
    3.7477   -1.1682    0.0000 C   0  0  0  0  0  0  0  0  0  0  0  0
    4.4807   -4.8536    0.0000 C   0  0  0  0  0  0  0  0  0  0  0  0
    4.4826   -5.6760    0.0000 C   0  0  0  0  0  0  0  0  0  0  0  0
    5.1952   -6.0859    0.0000 C   0  0  0  0  0  0  0  0  0  0  0  0
    5.9064   -5.6704    0.0000 C   0  0  0  0  0  0  0  0  0  0  0  0
    5.9006   -4.8449    0.0000 C   0  0  0  0  0  0  0  0  0  0  0  0
    5.1874   -4.4428    0.0000 C   0  0  0  0  0  0  0  0  0  0  0  0
    5.8822   -0.7432    0.0000 C   0  0  0  0  0  0  0  0  0  0  0  0
    6.5872   -0.3258    0.0000 N   0  0  0  0  0  0  0  0  0  0  0  0
  1  2  2  0
  2  3  1  0
  3  6  2  0
  5  4  2  0
  4  1  1  0
  5  6  1  0
  6  7  1  0
  7  8  2  0
  8  9  1  0
  9 10  2  0
 10  5  1  0
 10 11  1  0
 11 12  1  0
 12 13  2  0
 13 14  1  0
 14 15  2  0
 15 16  1  0
 16 17  2  0
 17 12  1  0
 18 19  2  0
 19 20  1  0
 20 21  2  0
 21 22  1  0
 22 23  2  0
 23 18  1  0
  8 18  1  0
 24 25  3  0
 15 24  1  0
M  END
>  <Classification>  (860) 
1

>  <pchembl>  (860) 
5.32

>  <InChI_steorem>  (860) 
InChI=1S/C22H15N3/c23-15-16-10-12-18(13-11-16)24-22-14-21(17-6-2-1-3-7-17)25-20-9-5-4-8-19(20)22/h1-14H,(H,24,25)

>  <source>  (860) 
ChEMBL28

>  <source_id>  (860) 
28

>  <optional_reference>  (860) 
10.1021/acs.jmedchem.6b00330

>  <optional_origin>  (860) 
None

>  <target>  (860) 
MDR1

$$$$

     RDKit          2D

 25 28  0  0  0  0  0  0  0  0999 V2000
    1.8022   -3.7186    0.0000 C   0  0  0  0  0  0  0  0  0  0  0  0
    1.8010   -4.5381    0.0000 C   0  0  0  0  0  0  0  0  0  0  0  0
    2.5091   -4.9471    0.0000 C   0  0  0  0  0  0  0  0  0  0  0  0
    2.5073   -3.3097    0.0000 C   0  0  0  0  0  0  0  0  0  0  0  0
    3.2159   -3.7150    0.0000 C   0  0  0  0  0  0  0  0  0  0  0  0
    3.2162   -4.5382    0.0000 C   0  0  0  0  0  0  0  0  0  0  0  0
    3.9991   -4.7923    0.0000 N   0  0  0  0  0  0  0  0  0  0  0  0
    3.9987   -3.4604    0.0000 C   0  0  0  0  0  0  0  0  0  0  0  0
    4.4829   -4.1276    0.0000 C   0  0  0  0  0  0  0  0  0  0  0  0
    5.2982   -4.0423    0.0000 C   0  0  0  0  0  0  0  0  0  0  0  0
    5.6357   -3.2909    0.0000 N   0  0  0  0  0  0  0  0  0  0  0  0
    5.1515   -2.6238    0.0000 C   0  0  0  0  0  0  0  0  0  0  0  0
    4.3298   -2.7081    0.0000 C   0  0  0  0  0  0  0  0  0  0  0  0
    6.4486   -3.2070    0.0000 C   0  0  0  0  0  0  0  0  0  0  0  0
    6.9276   -3.8690    0.0000 O   0  0  0  0  0  0  0  0  0  0  0  0
    6.7823   -2.4611    0.0000 C   0  0  0  0  0  0  0  0  0  0  0  0
    7.5954   -2.3812    0.0000 C   0  0  0  0  0  0  0  0  0  0  0  0
    7.9292   -1.6361    0.0000 C   0  0  0  0  0  0  0  0  0  0  0  0
    7.4500   -0.9732    0.0000 C   0  0  0  0  0  0  0  0  0  0  0  0
    6.6332   -1.0601    0.0000 C   0  0  0  0  0  0  0  0  0  0  0  0
    6.3031   -1.8054    0.0000 C   0  0  0  0  0  0  0  0  0  0  0  0
    5.7773   -4.7043    0.0000 C   0  0  0  0  0  0  0  0  0  0  0  0
    5.4435   -5.4502    0.0000 C   0  0  0  0  0  0  0  0  0  0  0  0
    5.9226   -6.1122    0.0000 C   0  0  0  0  0  0  0  0  0  0  0  0
    4.6307   -5.5341    0.0000 C   0  0  0  0  0  0  0  0  0  0  0  0
  1  2  2  0
  2  3  1  0
  3  6  2  0
  5  4  2  0
  4  1  1  0
  5  6  1  0
  6  7  1  0
  7  9  1  0
  8  5  1  0
  8  9  2  0
  8 13  1  0
  9 10  1  0
 10 11  1  0
 11 12  1  0
 12 13  1  0
 11 14  1  0
 14 15  2  0
 14 16  1  0
 16 17  2  0
 17 18  1  0
 18 19  2  0
 19 20  1  0
 20 21  2  0
 21 16  1  0
 10 22  1  0
 22 23  1  0
 23 24  1  0
 23 25  1  0
M  END
>  <Classification>  (861) 
0

>  <pchembl>  (861) 
4.89

>  <InChI_steorem>  (861) 
InChI=1S/C22H24N2O/c1-15(2)14-20-21-18(17-10-6-7-11-19(17)23-21)12-13-24(20)22(25)16-8-4-3-5-9-16/h3-11,15,20,23H,12-14H2,1-2H3

>  <source>  (861) 
ChEMBL28

>  <source_id>  (861) 
28

>  <optional_reference>  (861) 
10.1021/acs.jmedchem.6b00035

>  <optional_origin>  (861) 
None

>  <target>  (861) 
MDR1

$$$$

     RDKit          2D

 25 28  0  0  0  0  0  0  0  0999 V2000
   33.3714   -3.5122    0.0000 C   0  0  0  0  0  0  0  0  0  0  0  0
   33.3702   -4.3318    0.0000 C   0  0  0  0  0  0  0  0  0  0  0  0
   34.0783   -4.7407    0.0000 C   0  0  0  0  0  0  0  0  0  0  0  0
   34.0765   -3.1034    0.0000 C   0  0  0  0  0  0  0  0  0  0  0  0
   34.7851   -3.5086    0.0000 C   0  0  0  0  0  0  0  0  0  0  0  0
   34.7858   -4.3276    0.0000 C   0  0  0  0  0  0  0  0  0  0  0  0
   35.4944   -4.7347    0.0000 N   0  0  0  0  0  0  0  0  0  0  0  0
   36.2026   -4.3239    0.0000 C   0  0  0  0  0  0  0  0  0  0  0  0
   36.1979   -3.5018    0.0000 C   0  0  0  0  0  0  0  0  0  0  0  0
   35.4888   -3.0984    0.0000 C   0  0  0  0  0  0  0  0  0  0  0  0
   35.4845   -2.2812    0.0000 N   0  0  0  0  0  0  0  0  0  0  0  0
   36.1900   -1.8689    0.0000 C   0  0  0  0  0  0  0  0  0  0  0  0
   36.8953   -2.2771    0.0000 C   0  0  0  0  0  0  0  0  0  0  0  0
   37.6003   -1.8654    0.0000 C   0  0  0  0  0  0  0  0  0  0  0  0
   37.5964   -1.0474    0.0000 C   0  0  0  0  0  0  0  0  0  0  0  0
   36.8816   -0.6427    0.0000 C   0  0  0  0  0  0  0  0  0  0  0  0
   36.1795   -1.0567    0.0000 C   0  0  0  0  0  0  0  0  0  0  0  0
   36.9084   -4.7257    0.0000 C   0  0  0  0  0  0  0  0  0  0  0  0
   36.9102   -5.5440    0.0000 C   0  0  0  0  0  0  0  0  0  0  0  0
   37.6187   -5.9497    0.0000 C   0  0  0  0  0  0  0  0  0  0  0  0
   38.3258   -5.5383    0.0000 C   0  0  0  0  0  0  0  0  0  0  0  0
   38.3200   -4.7169    0.0000 C   0  0  0  0  0  0  0  0  0  0  0  0
   37.6109   -4.3149    0.0000 C   0  0  0  0  0  0  0  0  0  0  0  0
   38.3100   -2.2706    0.0000 O   0  0  0  0  0  0  0  0  0  0  0  0
   38.3139   -3.0878    0.0000 C   0  0  0  0  0  0  0  0  0  0  0  0
  1  2  2  0
  2  3  1  0
  3  6  2  0
  5  4  2  0
  4  1  1  0
  5  6  1  0
  6  7  1  0
  7  8  2  0
  8  9  1  0
  9 10  2  0
 10  5  1  0
 10 11  1  0
 11 12  1  0
 12 13  2  0
 13 14  1  0
 14 15  2  0
 15 16  1  0
 16 17  2  0
 17 12  1  0
 18 19  2  0
 19 20  1  0
 20 21  2  0
 21 22  1  0
 22 23  2  0
 23 18  1  0
  8 18  1  0
 14 24  1  0
 24 25  1  0
M  END
>  <Classification>  (862) 
1

>  <pchembl>  (862) 
5.54

>  <InChI_steorem>  (862) 
InChI=1S/C22H18N2O/c1-25-18-11-7-10-17(14-18)23-22-15-21(16-8-3-2-4-9-16)24-20-13-6-5-12-19(20)22/h2-15H,1H3,(H,23,24)

>  <source>  (862) 
ChEMBL28

>  <source_id>  (862) 
28

>  <optional_reference>  (862) 
10.1021/acs.jmedchem.6b00330

>  <optional_origin>  (862) 
None

>  <target>  (862) 
MDR1

$$$$

     RDKit          2D

 25 28  0  0  0  0  0  0  0  0999 V2000
   33.5901  -10.6565    0.0000 C   0  0  0  0  0  0  0  0  0  0  0  0
   33.5890  -11.4760    0.0000 C   0  0  0  0  0  0  0  0  0  0  0  0
   34.2970  -11.8850    0.0000 C   0  0  0  0  0  0  0  0  0  0  0  0
   34.2952  -10.2476    0.0000 C   0  0  0  0  0  0  0  0  0  0  0  0
   35.0038  -10.6529    0.0000 C   0  0  0  0  0  0  0  0  0  0  0  0
   35.0046  -11.4719    0.0000 C   0  0  0  0  0  0  0  0  0  0  0  0
   35.7131  -11.8789    0.0000 N   0  0  0  0  0  0  0  0  0  0  0  0
   36.4214  -11.4681    0.0000 C   0  0  0  0  0  0  0  0  0  0  0  0
   36.4166  -10.6460    0.0000 C   0  0  0  0  0  0  0  0  0  0  0  0
   35.7075  -10.2426    0.0000 C   0  0  0  0  0  0  0  0  0  0  0  0
   35.7032   -9.4255    0.0000 N   0  0  0  0  0  0  0  0  0  0  0  0
   36.4087   -9.0131    0.0000 C   0  0  0  0  0  0  0  0  0  0  0  0
   37.1140   -9.4213    0.0000 C   0  0  0  0  0  0  0  0  0  0  0  0
   37.8191   -9.0097    0.0000 C   0  0  0  0  0  0  0  0  0  0  0  0
   37.8152   -8.1916    0.0000 C   0  0  0  0  0  0  0  0  0  0  0  0
   37.1003   -7.7870    0.0000 C   0  0  0  0  0  0  0  0  0  0  0  0
   36.3982   -8.2010    0.0000 C   0  0  0  0  0  0  0  0  0  0  0  0
   37.1271  -11.8699    0.0000 C   0  0  0  0  0  0  0  0  0  0  0  0
   37.1290  -12.6882    0.0000 C   0  0  0  0  0  0  0  0  0  0  0  0
   37.8374  -13.0940    0.0000 C   0  0  0  0  0  0  0  0  0  0  0  0
   38.5445  -12.6826    0.0000 C   0  0  0  0  0  0  0  0  0  0  0  0
   38.5387  -11.8611    0.0000 C   0  0  0  0  0  0  0  0  0  0  0  0
   37.8297  -11.4591    0.0000 C   0  0  0  0  0  0  0  0  0  0  0  0
   38.5287   -9.4149    0.0000 S   0  0  0  0  0  0  0  0  0  0  0  0
   38.5327  -10.2320    0.0000 C   0  0  0  0  0  0  0  0  0  0  0  0
  1  2  2  0
  2  3  1  0
  3  6  2  0
  5  4  2  0
  4  1  1  0
  5  6  1  0
  6  7  1  0
  7  8  2  0
  8  9  1  0
  9 10  2  0
 10  5  1  0
 10 11  1  0
 11 12  1  0
 12 13  2  0
 13 14  1  0
 14 15  2  0
 15 16  1  0
 16 17  2  0
 17 12  1  0
 18 19  2  0
 19 20  1  0
 20 21  2  0
 21 22  1  0
 22 23  2  0
 23 18  1  0
  8 18  1  0
 14 24  1  0
 24 25  1  0
M  END
>  <Classification>  (863) 
1

>  <pchembl>  (863) 
5.85

>  <InChI_steorem>  (863) 
InChI=1S/C22H18N2S/c1-25-18-11-7-10-17(14-18)23-22-15-21(16-8-3-2-4-9-16)24-20-13-6-5-12-19(20)22/h2-15H,1H3,(H,23,24)

>  <source>  (863) 
ChEMBL28

>  <source_id>  (863) 
28

>  <optional_reference>  (863) 
10.1021/acs.jmedchem.6b00330

>  <optional_origin>  (863) 
None

>  <target>  (863) 
MDR1

$$$$

     RDKit          2D

 26 26  0  0  0  0  0  0  0  0999 V2000
   18.5024   -8.6094    0.0000 C   0  0  0  0  0  0  0  0  0  0  0  0
   19.2142   -8.2008    0.0000 C   0  0  0  0  0  0  0  0  0  0  0  0
   19.9260   -8.6094    0.0000 N   0  0  0  0  0  0  0  0  0  0  0  0
   19.2142   -7.3795    0.0000 O   0  0  0  0  0  0  0  0  0  0  0  0
   17.7905   -8.2008    0.0000 N   0  0  0  0  0  0  0  0  0  0  0  0
   18.5024   -9.4307    0.0000 C   0  0  0  0  0  0  0  0  0  0  0  0
   17.7905   -9.8434    0.0000 C   0  0  0  0  0  0  0  0  0  0  0  0
   17.0844   -9.4259    0.0000 C   0  0  0  0  0  0  0  0  0  0  0  0
   16.3730   -9.8380    0.0000 C   0  0  0  0  0  0  0  0  0  0  0  0
   16.3726  -10.6602    0.0000 C   0  0  0  0  0  0  0  0  0  0  0  0
   17.0894  -11.0686    0.0000 C   0  0  0  0  0  0  0  0  0  0  0  0
   17.7937  -10.6583    0.0000 C   0  0  0  0  0  0  0  0  0  0  0  0
   15.6613  -11.0697    0.0000 O   0  0  0  0  0  0  0  0  0  0  0  0
   20.6379   -8.2008    0.0000 C   0  0  0  0  0  0  0  0  0  0  0  0
   21.3497   -8.6094    0.0000 C   0  0  0  0  0  0  0  0  0  0  0  0
   20.6379   -7.3795    0.0000 C   0  0  0  0  0  0  0  0  0  0  0  0
   21.3497   -6.9668    0.0000 O   0  0  0  0  0  0  0  0  0  0  0  0
   22.0615   -8.2008    0.0000 N   0  0  0  0  0  0  0  0  0  0  0  0
   21.3497   -9.4307    0.0000 O   0  0  0  0  0  0  0  0  0  0  0  0
   22.7693   -8.6094    0.0000 C   0  0  0  0  0  0  0  0  0  0  0  0
   23.4811   -8.2008    0.0000 C   0  0  0  0  0  0  0  0  0  0  0  0
   22.7693   -9.4307    0.0000 C   0  0  0  0  0  0  0  0  0  0  0  0
   22.0615   -9.8434    0.0000 C   0  0  0  0  0  0  0  0  0  0  0  0
   23.4811   -9.8434    0.0000 C   0  0  0  0  0  0  0  0  0  0  0  0
   24.1929   -8.6094    0.0000 O   0  0  0  0  0  0  0  0  0  0  0  0
   23.4811   -7.3795    0.0000 O   0  0  0  0  0  0  0  0  0  0  0  0
  1  2  1  0
  2  3  1  0
  2  4  2  0
  1  5  1  0
  1  6  1  0
  6  7  1  0
  7  8  2  0
  8  9  1  0
  9 10  2  0
 10 11  1  0
 11 12  2  0
 12  7  1  0
 10 13  1  0
  3 14  1  0
 14 15  1  0
 14 16  1  0
 16 17  1  0
 15 18  1  0
 15 19  2  0
 18 20  1  0
 20 21  1  0
 20 22  1  0
 22 23  1  0
 22 24  1  0
 21 25  1  0
 21 26  2  0
M  END
>  <Classification>  (864) 
1

>  <pchembl>  (864) 
6.16

>  <InChI_steorem>  (864) 
InChI=1S/C17H25N3O6/c1-9(2)14(17(25)26)20-16(24)13(8-21)19-15(23)12(18)7-10-3-5-11(22)6-4-10/h3-6,9,12-14,21-22H,7-8,18H2,1-2H3,(H,19,23)(H,20,24)(H,25,26)

>  <source>  (864) 
ChEMBL28

>  <source_id>  (864) 
28

>  <optional_reference>  (864) 
10.1016/j.ejmech.2019.05.027

>  <optional_origin>  (864) 
None

>  <target>  (864) 
MDR1

$$$$

     RDKit          2D

 26 27  0  0  0  0  0  0  0  0999 V2000
   16.3300   -2.3484    0.0000 C   0  0  0  0  0  0  0  0  0  0  0  0
   16.3289   -3.1679    0.0000 C   0  0  0  0  0  0  0  0  0  0  0  0
   17.0369   -3.5769    0.0000 C   0  0  0  0  0  0  0  0  0  0  0  0
   17.7466   -3.1674    0.0000 C   0  0  0  0  0  0  0  0  0  0  0  0
   17.7438   -2.3448    0.0000 C   0  0  0  0  0  0  0  0  0  0  0  0
   17.0351   -1.9395    0.0000 C   0  0  0  0  0  0  0  0  0  0  0  0
   18.4499   -1.9335    0.0000 C   0  0  0  0  0  0  0  0  0  0  0  0
   19.1592   -2.3394    0.0000 C   0  0  0  0  0  0  0  0  0  0  0  0
   19.8653   -1.9282    0.0000 C   0  0  0  0  0  0  0  0  0  0  0  0
   20.5746   -2.3341    0.0000 C   0  0  0  0  0  0  0  0  0  0  0  0
   20.5746   -3.1502    0.0000 C   0  0  0  0  0  0  0  0  0  0  0  0
   21.2830   -3.5560    0.0000 C   0  0  0  0  0  0  0  0  0  0  0  0
   21.9901   -3.1447    0.0000 C   0  0  0  0  0  0  0  0  0  0  0  0
   21.9844   -2.3233    0.0000 C   0  0  0  0  0  0  0  0  0  0  0  0
   21.2754   -1.9211    0.0000 C   0  0  0  0  0  0  0  0  0  0  0  0
   18.4549   -3.5749    0.0000 O   0  0  0  0  0  0  0  0  0  0  0  0
   15.6208   -3.5759    0.0000 O   0  0  0  0  0  0  0  0  0  0  0  0
   15.6222   -1.9399    0.0000 C   0  0  0  0  0  0  0  0  0  0  0  0
   17.0327   -1.1223    0.0000 O   0  0  0  0  0  0  0  0  0  0  0  0
   18.4562   -4.3921    0.0000 C   0  0  0  0  0  0  0  0  0  0  0  0
   18.4468   -1.1163    0.0000 O   0  0  0  0  0  0  0  0  0  0  0  0
   15.6202   -4.3931    0.0000 C   0  0  0  0  0  0  0  0  0  0  0  0
   14.9146   -2.3487    0.0000 C   0  0  0  0  0  0  0  0  0  0  0  0
   14.2068   -1.9403    0.0000 C   0  0  0  0  0  0  0  0  0  0  0  0
   13.4992   -2.3490    0.0000 C   0  0  0  0  0  0  0  0  0  0  0  0
   14.2066   -1.1231    0.0000 C   0  0  0  0  0  0  0  0  0  0  0  0
  1  2  2  0
  2  3  1  0
  3  4  2  0
  4  5  1  0
  5  6  2  0
  6  1  1  0
  5  7  1  0
  7  8  1  0
  8  9  2  3
  9 10  1  0
 10 11  2  0
 11 12  1  0
 12 13  2  0
 13 14  1  0
 14 15  2  0
 15 10  1  0
  4 16  1  0
  2 17  1  0
  1 18  1  0
  6 19  1  0
 16 20  1  0
  7 21  2  0
 17 22  1  0
 18 23  1  0
 23 24  2  3
 24 25  1  0
 24 26  1  0
M  END
>  <Classification>  (865) 
0

>  <pchembl>  (865) 
4.68

>  <InChI_steorem>  (865) 
InChI=1S/C22H24O4/c1-15(2)10-12-17-19(25-3)14-20(26-4)21(22(17)24)18(23)13-11-16-8-6-5-7-9-16/h5-11,13-14,24H,12H2,1-4H3

>  <source>  (865) 
ChEMBL28

>  <source_id>  (865) 
28

>  <optional_reference>  (865) 
10.1016/j.ejmech.2019.05.053

>  <optional_origin>  (865) 
None

>  <target>  (865) 
MDR1

$$$$

     RDKit          2D

 26 28  0  0  0  0  0  0  0  0999 V2000
   20.3582   -3.1779    0.0000 C   0  0  0  0  0  0  0  0  0  0  0  0
   20.3571   -3.9975    0.0000 C   0  0  0  0  0  0  0  0  0  0  0  0
   21.0651   -4.4064    0.0000 C   0  0  0  0  0  0  0  0  0  0  0  0
   21.7748   -3.9970    0.0000 C   0  0  0  0  0  0  0  0  0  0  0  0
   21.7719   -3.1743    0.0000 C   0  0  0  0  0  0  0  0  0  0  0  0
   21.0633   -2.7691    0.0000 C   0  0  0  0  0  0  0  0  0  0  0  0
   22.4781   -2.7631    0.0000 C   0  0  0  0  0  0  0  0  0  0  0  0
   23.1873   -3.1690    0.0000 C   0  0  0  0  0  0  0  0  0  0  0  0
   23.8935   -2.7577    0.0000 C   0  0  0  0  0  0  0  0  0  0  0  0
   24.6027   -3.1637    0.0000 C   0  0  0  0  0  0  0  0  0  0  0  0
   24.6027   -3.9797    0.0000 C   0  0  0  0  0  0  0  0  0  0  0  0
   25.3111   -4.3856    0.0000 C   0  0  0  0  0  0  0  0  0  0  0  0
   26.0183   -3.9743    0.0000 C   0  0  0  0  0  0  0  0  0  0  0  0
   26.0126   -3.1529    0.0000 C   0  0  0  0  0  0  0  0  0  0  0  0
   25.3036   -2.7507    0.0000 C   0  0  0  0  0  0  0  0  0  0  0  0
   22.4831   -4.4045    0.0000 O   0  0  0  0  0  0  0  0  0  0  0  0
   19.6490   -4.4055    0.0000 O   0  0  0  0  0  0  0  0  0  0  0  0
   22.4844   -5.2217    0.0000 C   0  0  0  0  0  0  0  0  0  0  0  0
   22.4750   -1.9459    0.0000 O   0  0  0  0  0  0  0  0  0  0  0  0
   19.6484   -5.2227    0.0000 C   0  0  0  0  0  0  0  0  0  0  0  0
   26.7176   -2.7415    0.0000 N   0  0  0  0  0  0  0  0  0  0  0  0
   27.4282   -3.1471    0.0000 C   0  0  0  0  0  0  0  0  0  0  0  0
   28.1308   -2.7368    0.0000 C   0  0  0  0  0  0  0  0  0  0  0  0
   28.1290   -1.9193    0.0000 N   0  0  0  0  0  0  0  0  0  0  0  0
   27.4185   -1.5137    0.0000 C   0  0  0  0  0  0  0  0  0  0  0  0
   26.7097   -1.9256    0.0000 C   0  0  0  0  0  0  0  0  0  0  0  0
  1  2  2  0
  2  3  1  0
  3  4  2  0
  4  5  1  0
  5  6  2  0
  6  1  1  0
  5  7  1  0
  7  8  1  0
  8  9  2  3
  9 10  1  0
 10 11  2  0
 11 12  1  0
 12 13  2  0
 13 14  1  0
 14 15  2  0
 15 10  1  0
  4 16  1  0
  2 17  1  0
 16 18  1  0
  7 19  2  0
 17 20  1  0
 21 22  1  0
 21 26  1  0
 22 23  1  0
 23 24  1  0
 24 25  1  0
 25 26  1  0
 14 21  1  0
M  END
>  <Classification>  (866) 
1

>  <pchembl>  (866) 
5.31

>  <InChI_steorem>  (866) 
InChI=1S/C21H24N2O3/c1-25-18-7-8-19(21(15-18)26-2)20(24)9-6-16-4-3-5-17(14-16)23-12-10-22-11-13-23/h3-9,14-15,22H,10-13H2,1-2H3

>  <source>  (866) 
ChEMBL28

>  <source_id>  (866) 
28

>  <optional_reference>  (866) 
10.1016/j.ejmech.2019.05.053

>  <optional_origin>  (866) 
None

>  <target>  (866) 
MDR1

$$$$

     RDKit          2D

 26 29  0  0  0  0  0  0  0  0999 V2000
   24.5143   -2.4144    0.0000 C   0  0  0  0  0  0  0  0  0  0  0  0
   24.5132   -3.2339    0.0000 C   0  0  0  0  0  0  0  0  0  0  0  0
   25.2212   -3.6429    0.0000 C   0  0  0  0  0  0  0  0  0  0  0  0
   25.2194   -2.0055    0.0000 C   0  0  0  0  0  0  0  0  0  0  0  0
   25.9281   -2.4108    0.0000 C   0  0  0  0  0  0  0  0  0  0  0  0
   25.9269   -3.2314    0.0000 C   0  0  0  0  0  0  0  0  0  0  0  0
   26.6331   -3.6405    0.0000 C   0  0  0  0  0  0  0  0  0  0  0  0
   27.3450   -3.2334    0.0000 C   0  0  0  0  0  0  0  0  0  0  0  0
   27.3461   -2.4128    0.0000 N   0  0  0  0  0  0  0  0  0  0  0  0
   26.6354   -1.9992    0.0000 C   0  0  0  0  0  0  0  0  0  0  0  0
   28.0548   -2.0059    0.0000 C   0  0  0  0  0  0  0  0  0  0  0  0
   28.7615   -2.4162    0.0000 C   0  0  0  0  0  0  0  0  0  0  0  0
   29.4702   -2.0093    0.0000 O   0  0  0  0  0  0  0  0  0  0  0  0
   30.1770   -2.4196    0.0000 C   0  0  0  0  0  0  0  0  0  0  0  0
   30.1736   -3.2368    0.0000 C   0  0  0  0  0  0  0  0  0  0  0  0
   31.5885   -2.4187    0.0000 C   0  0  0  0  0  0  0  0  0  0  0  0
   30.8820   -2.0122    0.0000 C   0  0  0  0  0  0  0  0  0  0  0  0
   31.5891   -3.2401    0.0000 C   0  0  0  0  0  0  0  0  0  0  0  0
   30.8800   -3.6421    0.0000 C   0  0  0  0  0  0  0  0  0  0  0  0
   30.8737   -4.4527    0.0000 O   0  0  0  0  0  0  0  0  0  0  0  0
   31.5747   -4.8674    0.0000 C   0  0  0  0  0  0  0  0  0  0  0  0
   32.2838   -4.4654    0.0000 C   0  0  0  0  0  0  0  0  0  0  0  0
   32.2919   -3.6487    0.0000 C   0  0  0  0  0  0  0  0  0  0  0  0
   31.5672   -5.6846    0.0000 O   0  0  0  0  0  0  0  0  0  0  0  0
   32.9879   -4.8802    0.0000 C   0  0  0  0  0  0  0  0  0  0  0  0
   33.0022   -3.2446    0.0000 C   0  0  0  0  0  0  0  0  0  0  0  0
  1  2  2  0
  2  3  1  0
  3  6  2  0
  5  4  2  0
  4  1  1  0
  5  6  1  0
  5 10  1  0
  6  7  1  0
  7  8  1  0
  8  9  1  0
  9 10  1  0
  9 11  1  0
 11 12  1  0
 12 13  1  0
 13 14  1  0
 14 15  2  0
 15 19  1  0
 18 16  1  0
 16 17  2  0
 17 14  1  0
 18 19  2  0
 18 23  1  0
 19 20  1  0
 20 21  1  0
 21 22  1  0
 22 23  2  0
 21 24  2  0
 22 25  1  0
 23 26  1  0
M  END
>  <Classification>  (867) 
0

>  <pchembl>  (867) 
4.82

>  <InChI_steorem>  (867) 
InChI=1S/C22H23NO3/c1-15-16(2)22(24)26-21-13-19(7-8-20(15)21)25-12-11-23-10-9-17-5-3-4-6-18(17)14-23/h3-8,13H,9-12,14H2,1-2H3

>  <source>  (867) 
ChEMBL28

>  <source_id>  (867) 
28

>  <optional_reference>  (867) 
10.1016/j.ejmech.2018.10.043

>  <optional_origin>  (867) 
None

>  <target>  (867) 
MDR1

$$$$

     RDKit          2D

 26 29  0  0  0  0  0  0  0  0999 V2000
   25.8928   -4.8825    0.0000 C   0  0  0  0  0  0  0  0  0  0  0  0
   25.8917   -5.7020    0.0000 C   0  0  0  0  0  0  0  0  0  0  0  0
   26.5997   -6.1110    0.0000 C   0  0  0  0  0  0  0  0  0  0  0  0
   26.5979   -4.4736    0.0000 C   0  0  0  0  0  0  0  0  0  0  0  0
   27.3065   -4.8789    0.0000 C   0  0  0  0  0  0  0  0  0  0  0  0
   27.3073   -5.6979    0.0000 C   0  0  0  0  0  0  0  0  0  0  0  0
   28.0158   -6.1050    0.0000 N   0  0  0  0  0  0  0  0  0  0  0  0
   28.7241   -5.6941    0.0000 C   0  0  0  0  0  0  0  0  0  0  0  0
   28.7194   -4.8720    0.0000 N   0  0  0  0  0  0  0  0  0  0  0  0
   28.0103   -4.4686    0.0000 C   0  0  0  0  0  0  0  0  0  0  0  0
   29.4375   -6.0971    0.0000 C   0  0  0  0  0  0  0  0  0  0  0  0
   29.5261   -6.9095    0.0000 C   0  0  0  0  0  0  0  0  0  0  0  0
   30.3261   -7.0763    0.0000 C   0  0  0  0  0  0  0  0  0  0  0  0
   30.7320   -6.3669    0.0000 C   0  0  0  0  0  0  0  0  0  0  0  0
   30.1828   -5.7619    0.0000 S   0  0  0  0  0  0  0  0  0  0  0  0
   28.0059   -3.6515    0.0000 N   0  0  0  0  0  0  0  0  0  0  0  0
   28.7115   -3.2391    0.0000 C   0  0  0  0  0  0  0  0  0  0  0  0
   29.4167   -3.6473    0.0000 C   0  0  0  0  0  0  0  0  0  0  0  0
   30.1218   -3.2357    0.0000 C   0  0  0  0  0  0  0  0  0  0  0  0
   30.1179   -2.4176    0.0000 C   0  0  0  0  0  0  0  0  0  0  0  0
   29.4031   -2.0130    0.0000 C   0  0  0  0  0  0  0  0  0  0  0  0
   28.7009   -2.4270    0.0000 C   0  0  0  0  0  0  0  0  0  0  0  0
   30.8315   -3.6409    0.0000 O   0  0  0  0  0  0  0  0  0  0  0  0
   30.8229   -2.0043    0.0000 O   0  0  0  0  0  0  0  0  0  0  0  0
   31.5333   -2.4082    0.0000 C   0  0  0  0  0  0  0  0  0  0  0  0
   30.8354   -4.4580    0.0000 C   0  0  0  0  0  0  0  0  0  0  0  0
  1  2  2  0
  2  3  1  0
  3  6  2  0
  5  4  2  0
  4  1  1  0
  5  6  1  0
  6  7  1  0
  7  8  2  0
  8  9  1  0
  9 10  2  0
 10  5  1  0
 11 12  2  0
 12 13  1  0
 13 14  2  0
 14 15  1  0
 15 11  1  0
  8 11  1  0
 10 16  1  0
 16 17  1  0
 17 18  2  0
 18 19  1  0
 19 20  2  0
 20 21  1  0
 21 22  2  0
 22 17  1  0
 19 23  1  0
 20 24  1  0
 24 25  1  0
 23 26  1  0
M  END
>  <Classification>  (868) 
1

>  <pchembl>  (868) 
5.73

>  <InChI_steorem>  (868) 
InChI=1S/C20H17N3O2S/c1-24-16-10-9-13(12-17(16)25-2)21-19-14-6-3-4-7-15(14)22-20(23-19)18-8-5-11-26-18/h3-12H,1-2H3,(H,21,22,23)

>  <source>  (868) 
ChEMBL28

>  <source_id>  (868) 
28

>  <optional_reference>  (868) 
10.1016/j.ejmech.2018.10.026

>  <optional_origin>  (868) 
None

>  <target>  (868) 
MDR1

$$$$

     RDKit          2D

 26 29  0  0  0  0  0  0  0  0999 V2000
   26.1446  -12.1794    0.0000 C   0  0  0  0  0  0  0  0  0  0  0  0
   26.1434  -12.9990    0.0000 C   0  0  0  0  0  0  0  0  0  0  0  0
   26.8515  -13.4079    0.0000 C   0  0  0  0  0  0  0  0  0  0  0  0
   26.8497  -11.7706    0.0000 C   0  0  0  0  0  0  0  0  0  0  0  0
   27.5583  -12.1758    0.0000 C   0  0  0  0  0  0  0  0  0  0  0  0
   27.5591  -12.9948    0.0000 C   0  0  0  0  0  0  0  0  0  0  0  0
   28.2676  -13.4019    0.0000 N   0  0  0  0  0  0  0  0  0  0  0  0
   28.9759  -12.9911    0.0000 C   0  0  0  0  0  0  0  0  0  0  0  0
   28.9711  -12.1689    0.0000 N   0  0  0  0  0  0  0  0  0  0  0  0
   28.2620  -11.7656    0.0000 C   0  0  0  0  0  0  0  0  0  0  0  0
   29.6893  -13.3941    0.0000 C   0  0  0  0  0  0  0  0  0  0  0  0
   29.7779  -14.2064    0.0000 C   0  0  0  0  0  0  0  0  0  0  0  0
   30.5779  -14.3732    0.0000 C   0  0  0  0  0  0  0  0  0  0  0  0
   30.9838  -13.6639    0.0000 C   0  0  0  0  0  0  0  0  0  0  0  0
   30.4345  -13.0588    0.0000 N   0  0  0  0  0  0  0  0  0  0  0  0
   28.2577  -10.9484    0.0000 N   0  0  0  0  0  0  0  0  0  0  0  0
   28.9632  -10.5361    0.0000 C   0  0  0  0  0  0  0  0  0  0  0  0
   29.6685  -10.9443    0.0000 C   0  0  0  0  0  0  0  0  0  0  0  0
   30.3736  -10.5326    0.0000 C   0  0  0  0  0  0  0  0  0  0  0  0
   30.3697   -9.7146    0.0000 C   0  0  0  0  0  0  0  0  0  0  0  0
   29.6548   -9.3099    0.0000 C   0  0  0  0  0  0  0  0  0  0  0  0
   28.9527   -9.7239    0.0000 C   0  0  0  0  0  0  0  0  0  0  0  0
   31.0832  -10.9378    0.0000 O   0  0  0  0  0  0  0  0  0  0  0  0
   31.0746   -9.3013    0.0000 O   0  0  0  0  0  0  0  0  0  0  0  0
   31.7850   -9.7052    0.0000 C   0  0  0  0  0  0  0  0  0  0  0  0
   31.0872  -11.7550    0.0000 C   0  0  0  0  0  0  0  0  0  0  0  0
  1  2  2  0
  2  3  1  0
  3  6  2  0
  5  4  2  0
  4  1  1  0
  5  6  1  0
  6  7  1  0
  7  8  2  0
  8  9  1  0
  9 10  2  0
 10  5  1  0
 11 12  2  0
 12 13  1  0
 13 14  2  0
 14 15  1  0
 15 11  1  0
  8 11  1  0
 10 16  1  0
 16 17  1  0
 17 18  2  0
 18 19  1  0
 19 20  2  0
 20 21  1  0
 21 22  2  0
 22 17  1  0
 19 23  1  0
 20 24  1  0
 24 25  1  0
 23 26  1  0
M  END
>  <Classification>  (869) 
1

>  <pchembl>  (869) 
5.74

>  <InChI_steorem>  (869) 
InChI=1S/C20H18N4O2/c1-25-17-10-9-13(12-18(17)26-2)22-19-14-6-3-4-7-15(14)23-20(24-19)16-8-5-11-21-16/h3-12,21H,1-2H3,(H,22,23,24)

>  <source>  (869) 
ChEMBL28

>  <source_id>  (869) 
28

>  <optional_reference>  (869) 
10.1016/j.ejmech.2018.10.026

>  <optional_origin>  (869) 
None

>  <target>  (869) 
MDR1

$$$$

     RDKit          2D

 26 29  0  0  0  0  0  0  0  0999 V2000
   -3.8764    2.9156    0.0000 S   0  0  0  0  0  0  0  0  0  0  0  0
    1.9256   -0.3799    0.0000 O   0  0  0  0  0  0  0  0  0  0  0  0
   -3.0757    0.8576    0.0000 N   0  0  0  0  0  0  0  0  0  0  0  0
   -2.3612    2.0951    0.0000 N   0  0  0  0  0  0  0  0  0  0  0  0
   -2.3612   -0.3799    0.0000 N   0  0  0  0  0  0  0  0  0  0  0  0
    0.4967   -0.3799    0.0000 N   0  0  0  0  0  0  0  0  0  0  0  0
   -1.6468    0.8576    0.0000 C   0  0  0  0  0  0  0  0  0  0  0  0
   -2.3612    0.4451    0.0000 C   0  0  0  0  0  0  0  0  0  0  0  0
   -1.6468    1.6826    0.0000 C   0  0  0  0  0  0  0  0  0  0  0  0
   -3.0757    1.6826    0.0000 C   0  0  0  0  0  0  0  0  0  0  0  0
   -3.7902    2.0951    0.0000 C   0  0  0  0  0  0  0  0  0  0  0  0
   -0.9323    0.4451    0.0000 C   0  0  0  0  0  0  0  0  0  0  0  0
   -1.6468   -0.7924    0.0000 C   0  0  0  0  0  0  0  0  0  0  0  0
   -0.9323    2.0951    0.0000 C   0  0  0  0  0  0  0  0  0  0  0  0
   -4.5438    1.7595    0.0000 C   0  0  0  0  0  0  0  0  0  0  0  0
   -0.2178    0.8576    0.0000 C   0  0  0  0  0  0  0  0  0  0  0  0
   -0.2178    1.6826    0.0000 C   0  0  0  0  0  0  0  0  0  0  0  0
   -0.9323   -0.3799    0.0000 C   0  0  0  0  0  0  0  0  0  0  0  0
   -0.2178   -0.7924    0.0000 C   0  0  0  0  0  0  0  0  0  0  0  0
   -1.6468   -1.6174    0.0000 C   0  0  0  0  0  0  0  0  0  0  0  0
   -4.6834    3.0871    0.0000 C   0  0  0  0  0  0  0  0  0  0  0  0
   -5.0959    2.3726    0.0000 C   0  0  0  0  0  0  0  0  0  0  0  0
   -0.2178   -1.6174    0.0000 C   0  0  0  0  0  0  0  0  0  0  0  0
   -0.9323   -2.0299    0.0000 C   0  0  0  0  0  0  0  0  0  0  0  0
    1.2111   -0.7924    0.0000 C   0  0  0  0  0  0  0  0  0  0  0  0
    1.2111   -1.6174    0.0000 C   0  0  0  0  0  0  0  0  0  0  0  0
  1 11  1  0
  1 21  1  0
  2 25  2  0
  3  8  2  0
  3 10  1  0
  4  9  1  0
  4 10  2  0
  5  8  1  0
  5 13  1  0
  6 19  1  0
  6 25  1  0
  7  8  1  0
  7  9  2  0
  7 12  1  0
  9 14  1  0
 10 11  1  0
 11 15  2  0
 12 16  2  0
 13 18  2  0
 13 20  1  0
 14 17  2  0
 15 22  1  0
 16 17  1  0
 18 19  1  0
 19 23  2  0
 20 24  2  0
 21 22  2  0
 23 24  1  0
 25 26  1  0
M  END
>  <Classification>  (870) 
0

>  <pchembl>  (870) 
4.83

>  <InChI_steorem>  (870) 
InChI=1S/C20H16N4OS/c1-13(25)21-14-6-4-7-15(12-14)22-19-16-8-2-3-9-17(16)23-20(24-19)18-10-5-11-26-18/h2-12H,1H3,(H,21,25)(H,22,23,24)

>  <source>  (870) 
ChEMBL28

>  <source_id>  (870) 
28

>  <optional_reference>  (870) 
10.1016/j.ejmech.2018.10.026

>  <optional_origin>  (870) 
None

>  <target>  (870) 
MDR1

$$$$

     RDKit          2D

 27 28  0  0  0  0  0  0  0  0999 V2000
   16.8005   -9.1253    0.0000 C   0  0  0  0  0  0  0  0  0  0  0  0
   16.7994   -9.9448    0.0000 C   0  0  0  0  0  0  0  0  0  0  0  0
   17.5074  -10.3538    0.0000 C   0  0  0  0  0  0  0  0  0  0  0  0
   18.2171   -9.9443    0.0000 C   0  0  0  0  0  0  0  0  0  0  0  0
   18.2143   -9.1217    0.0000 C   0  0  0  0  0  0  0  0  0  0  0  0
   17.5056   -8.7164    0.0000 C   0  0  0  0  0  0  0  0  0  0  0  0
   18.9204   -8.7104    0.0000 C   0  0  0  0  0  0  0  0  0  0  0  0
   19.6297   -9.1163    0.0000 C   0  0  0  0  0  0  0  0  0  0  0  0
   20.3358   -8.7051    0.0000 C   0  0  0  0  0  0  0  0  0  0  0  0
   21.0451   -9.1110    0.0000 C   0  0  0  0  0  0  0  0  0  0  0  0
   21.0451   -9.9271    0.0000 C   0  0  0  0  0  0  0  0  0  0  0  0
   21.7535  -10.3329    0.0000 C   0  0  0  0  0  0  0  0  0  0  0  0
   22.4606   -9.9216    0.0000 C   0  0  0  0  0  0  0  0  0  0  0  0
   22.4549   -9.1002    0.0000 C   0  0  0  0  0  0  0  0  0  0  0  0
   21.7459   -8.6980    0.0000 C   0  0  0  0  0  0  0  0  0  0  0  0
   18.9254  -10.3518    0.0000 O   0  0  0  0  0  0  0  0  0  0  0  0
   16.0914  -10.3528    0.0000 O   0  0  0  0  0  0  0  0  0  0  0  0
   16.0927   -8.7168    0.0000 C   0  0  0  0  0  0  0  0  0  0  0  0
   17.5032   -7.8992    0.0000 O   0  0  0  0  0  0  0  0  0  0  0  0
   18.9267  -11.1690    0.0000 C   0  0  0  0  0  0  0  0  0  0  0  0
   18.9173   -7.8932    0.0000 O   0  0  0  0  0  0  0  0  0  0  0  0
   16.0907  -11.1700    0.0000 C   0  0  0  0  0  0  0  0  0  0  0  0
   15.3851   -9.1256    0.0000 C   0  0  0  0  0  0  0  0  0  0  0  0
   14.6773   -8.7172    0.0000 C   0  0  0  0  0  0  0  0  0  0  0  0
   13.9697   -9.1259    0.0000 C   0  0  0  0  0  0  0  0  0  0  0  0
   14.6771   -7.9000    0.0000 C   0  0  0  0  0  0  0  0  0  0  0  0
   23.1704  -10.3266    0.0000 Cl  0  0  0  0  0  0  0  0  0  0  0  0
  1  2  2  0
  2  3  1  0
  3  4  2  0
  4  5  1  0
  5  6  2  0
  6  1  1  0
  5  7  1  0
  7  8  1  0
  8  9  2  3
  9 10  1  0
 10 11  2  0
 11 12  1  0
 12 13  2  0
 13 14  1  0
 14 15  2  0
 15 10  1  0
  4 16  1  0
  2 17  1  0
  1 18  1  0
  6 19  1  0
 16 20  1  0
  7 21  2  0
 17 22  1  0
 18 23  1  0
 23 24  2  3
 24 25  1  0
 24 26  1  0
 13 27  1  0
M  END
>  <Classification>  (871) 
0

>  <pchembl>  (871) 
4.66

>  <InChI_steorem>  (871) 
InChI=1S/C22H23ClO4/c1-14(2)5-11-17-19(26-3)13-20(27-4)21(22(17)25)18(24)12-8-15-6-9-16(23)10-7-15/h5-10,12-13,25H,11H2,1-4H3

>  <source>  (871) 
ChEMBL28

>  <source_id>  (871) 
28

>  <optional_reference>  (871) 
10.1016/j.ejmech.2019.05.053

>  <optional_origin>  (871) 
None

>  <target>  (871) 
MDR1

$$$$

     RDKit          2D

 27 28  0  0  0  0  0  0  0  0999 V2000
   41.1099   -9.4554    0.0000 C   0  0  0  0  0  0  0  0  0  0  0  0
   41.1088  -10.2750    0.0000 C   0  0  0  0  0  0  0  0  0  0  0  0
   41.8168  -10.6839    0.0000 C   0  0  0  0  0  0  0  0  0  0  0  0
   42.5265  -10.2745    0.0000 C   0  0  0  0  0  0  0  0  0  0  0  0
   42.5236   -9.4518    0.0000 C   0  0  0  0  0  0  0  0  0  0  0  0
   41.8150   -9.0466    0.0000 C   0  0  0  0  0  0  0  0  0  0  0  0
   43.2298   -9.0406    0.0000 C   0  0  0  0  0  0  0  0  0  0  0  0
   43.9390   -9.4465    0.0000 C   0  0  0  0  0  0  0  0  0  0  0  0
   44.6452   -9.0353    0.0000 C   0  0  0  0  0  0  0  0  0  0  0  0
   45.3545   -9.4412    0.0000 C   0  0  0  0  0  0  0  0  0  0  0  0
   45.3544  -10.2572    0.0000 C   0  0  0  0  0  0  0  0  0  0  0  0
   46.0628  -10.6631    0.0000 C   0  0  0  0  0  0  0  0  0  0  0  0
   46.7700  -10.2518    0.0000 C   0  0  0  0  0  0  0  0  0  0  0  0
   46.7643   -9.4304    0.0000 C   0  0  0  0  0  0  0  0  0  0  0  0
   46.0553   -9.0282    0.0000 C   0  0  0  0  0  0  0  0  0  0  0  0
   43.2348  -10.6820    0.0000 O   0  0  0  0  0  0  0  0  0  0  0  0
   40.4007  -10.6830    0.0000 O   0  0  0  0  0  0  0  0  0  0  0  0
   40.4021   -9.0470    0.0000 C   0  0  0  0  0  0  0  0  0  0  0  0
   41.8126   -8.2294    0.0000 O   0  0  0  0  0  0  0  0  0  0  0  0
   43.2361  -11.4992    0.0000 C   0  0  0  0  0  0  0  0  0  0  0  0
   43.2267   -8.2234    0.0000 O   0  0  0  0  0  0  0  0  0  0  0  0
   40.4001  -11.5002    0.0000 C   0  0  0  0  0  0  0  0  0  0  0  0
   39.6945   -9.4558    0.0000 C   0  0  0  0  0  0  0  0  0  0  0  0
   38.9867   -9.0474    0.0000 C   0  0  0  0  0  0  0  0  0  0  0  0
   38.2791   -9.4561    0.0000 C   0  0  0  0  0  0  0  0  0  0  0  0
   38.9865   -8.2302    0.0000 C   0  0  0  0  0  0  0  0  0  0  0  0
   46.0655  -11.4803    0.0000 F   0  0  0  0  0  0  0  0  0  0  0  0
  1  2  2  0
  2  3  1  0
  3  4  2  0
  4  5  1  0
  5  6  2  0
  6  1  1  0
  5  7  1  0
  7  8  1  0
  8  9  2  3
  9 10  1  0
 10 11  2  0
 11 12  1  0
 12 13  2  0
 13 14  1  0
 14 15  2  0
 15 10  1  0
  4 16  1  0
  2 17  1  0
  1 18  1  0
  6 19  1  0
 16 20  1  0
  7 21  2  0
 17 22  1  0
 18 23  1  0
 23 24  2  3
 24 25  1  0
 24 26  1  0
 12 27  1  0
M  END
>  <Classification>  (872) 
0

>  <pchembl>  (872) 
4.9

>  <InChI_steorem>  (872) 
InChI=1S/C22H23FO4/c1-14(2)8-10-17-19(26-3)13-20(27-4)21(22(17)25)18(24)11-9-15-6-5-7-16(23)12-15/h5-9,11-13,25H,10H2,1-4H3

>  <source>  (872) 
ChEMBL28

>  <source_id>  (872) 
28

>  <optional_reference>  (872) 
10.1016/j.ejmech.2019.05.053

>  <optional_origin>  (872) 
None

>  <target>  (872) 
MDR1

$$$$

     RDKit          2D

 27 28  0  0  0  0  0  0  0  0999 V2000
    4.4312   -9.4018    0.0000 C   0  0  0  0  0  0  0  0  0  0  0  0
    4.4301  -10.2213    0.0000 C   0  0  0  0  0  0  0  0  0  0  0  0
    5.1381  -10.6303    0.0000 C   0  0  0  0  0  0  0  0  0  0  0  0
    5.8478  -10.2209    0.0000 C   0  0  0  0  0  0  0  0  0  0  0  0
    5.8450   -9.3982    0.0000 C   0  0  0  0  0  0  0  0  0  0  0  0
    5.1363   -8.9929    0.0000 C   0  0  0  0  0  0  0  0  0  0  0  0
    6.5511   -8.9869    0.0000 C   0  0  0  0  0  0  0  0  0  0  0  0
    7.2604   -9.3929    0.0000 C   0  0  0  0  0  0  0  0  0  0  0  0
    7.9665   -8.9816    0.0000 C   0  0  0  0  0  0  0  0  0  0  0  0
    8.6758   -9.3875    0.0000 C   0  0  0  0  0  0  0  0  0  0  0  0
    8.6758  -10.2036    0.0000 C   0  0  0  0  0  0  0  0  0  0  0  0
    9.3842  -10.6094    0.0000 C   0  0  0  0  0  0  0  0  0  0  0  0
   10.0913  -10.1981    0.0000 C   0  0  0  0  0  0  0  0  0  0  0  0
   10.0856   -9.3767    0.0000 C   0  0  0  0  0  0  0  0  0  0  0  0
    9.3766   -8.9746    0.0000 C   0  0  0  0  0  0  0  0  0  0  0  0
    6.5561  -10.6283    0.0000 O   0  0  0  0  0  0  0  0  0  0  0  0
    3.7220  -10.6294    0.0000 O   0  0  0  0  0  0  0  0  0  0  0  0
    3.7234   -8.9934    0.0000 C   0  0  0  0  0  0  0  0  0  0  0  0
    5.1339   -8.1757    0.0000 O   0  0  0  0  0  0  0  0  0  0  0  0
    6.5574  -11.4455    0.0000 C   0  0  0  0  0  0  0  0  0  0  0  0
    6.5480   -8.1697    0.0000 O   0  0  0  0  0  0  0  0  0  0  0  0
    3.7214  -11.4466    0.0000 C   0  0  0  0  0  0  0  0  0  0  0  0
    3.0158   -9.4021    0.0000 C   0  0  0  0  0  0  0  0  0  0  0  0
    2.3080   -8.9937    0.0000 C   0  0  0  0  0  0  0  0  0  0  0  0
    1.6004   -9.4025    0.0000 C   0  0  0  0  0  0  0  0  0  0  0  0
    2.3078   -8.1765    0.0000 C   0  0  0  0  0  0  0  0  0  0  0  0
    9.3868  -11.4266    0.0000 Cl  0  0  0  0  0  0  0  0  0  0  0  0
  1  2  2  0
  2  3  1  0
  3  4  2  0
  4  5  1  0
  5  6  2  0
  6  1  1  0
  5  7  1  0
  7  8  1  0
  8  9  2  3
  9 10  1  0
 10 11  2  0
 11 12  1  0
 12 13  2  0
 13 14  1  0
 14 15  2  0
 15 10  1  0
  4 16  1  0
  2 17  1  0
  1 18  1  0
  6 19  1  0
 16 20  1  0
  7 21  2  0
 17 22  1  0
 18 23  1  0
 23 24  2  3
 24 25  1  0
 24 26  1  0
 12 27  1  0
M  END
>  <Classification>  (873) 
1

>  <pchembl>  (873) 
5.03

>  <InChI_steorem>  (873) 
InChI=1S/C22H23ClO4/c1-14(2)8-10-17-19(26-3)13-20(27-4)21(22(17)25)18(24)11-9-15-6-5-7-16(23)12-15/h5-9,11-13,25H,10H2,1-4H3

>  <source>  (873) 
ChEMBL28

>  <source_id>  (873) 
28

>  <optional_reference>  (873) 
10.1016/j.ejmech.2019.05.053

>  <optional_origin>  (873) 
None

>  <target>  (873) 
MDR1

$$$$

     RDKit          2D

 27 28  0  0  0  0  0  0  0  0999 V2000
    4.6500  -16.2654    0.0000 C   0  0  0  0  0  0  0  0  0  0  0  0
    4.6488  -17.0849    0.0000 C   0  0  0  0  0  0  0  0  0  0  0  0
    5.3569  -17.4939    0.0000 C   0  0  0  0  0  0  0  0  0  0  0  0
    6.0665  -17.0844    0.0000 C   0  0  0  0  0  0  0  0  0  0  0  0
    6.0637  -16.2618    0.0000 C   0  0  0  0  0  0  0  0  0  0  0  0
    5.3551  -15.8565    0.0000 C   0  0  0  0  0  0  0  0  0  0  0  0
    6.7699  -15.8505    0.0000 C   0  0  0  0  0  0  0  0  0  0  0  0
    7.4791  -16.2564    0.0000 C   0  0  0  0  0  0  0  0  0  0  0  0
    8.1853  -15.8452    0.0000 C   0  0  0  0  0  0  0  0  0  0  0  0
    8.8945  -16.2511    0.0000 C   0  0  0  0  0  0  0  0  0  0  0  0
    8.8945  -17.0672    0.0000 C   0  0  0  0  0  0  0  0  0  0  0  0
    9.6029  -17.4730    0.0000 C   0  0  0  0  0  0  0  0  0  0  0  0
   10.3101  -17.0617    0.0000 C   0  0  0  0  0  0  0  0  0  0  0  0
   10.3043  -16.2403    0.0000 C   0  0  0  0  0  0  0  0  0  0  0  0
    9.5954  -15.8381    0.0000 C   0  0  0  0  0  0  0  0  0  0  0  0
    6.7749  -17.4919    0.0000 O   0  0  0  0  0  0  0  0  0  0  0  0
    3.9408  -17.4929    0.0000 O   0  0  0  0  0  0  0  0  0  0  0  0
    3.9422  -15.8569    0.0000 C   0  0  0  0  0  0  0  0  0  0  0  0
    5.3526  -15.0393    0.0000 O   0  0  0  0  0  0  0  0  0  0  0  0
    6.7762  -18.3091    0.0000 C   0  0  0  0  0  0  0  0  0  0  0  0
    6.7668  -15.0333    0.0000 O   0  0  0  0  0  0  0  0  0  0  0  0
    3.9401  -18.3101    0.0000 C   0  0  0  0  0  0  0  0  0  0  0  0
    3.2346  -16.2657    0.0000 C   0  0  0  0  0  0  0  0  0  0  0  0
    2.5267  -15.8573    0.0000 C   0  0  0  0  0  0  0  0  0  0  0  0
    1.8191  -16.2660    0.0000 C   0  0  0  0  0  0  0  0  0  0  0  0
    2.5265  -15.0401    0.0000 C   0  0  0  0  0  0  0  0  0  0  0  0
   11.0198  -17.4667    0.0000 F   0  0  0  0  0  0  0  0  0  0  0  0
  1  2  2  0
  2  3  1  0
  3  4  2  0
  4  5  1  0
  5  6  2  0
  6  1  1  0
  5  7  1  0
  7  8  1  0
  8  9  2  3
  9 10  1  0
 10 11  2  0
 11 12  1  0
 12 13  2  0
 13 14  1  0
 14 15  2  0
 15 10  1  0
  4 16  1  0
  2 17  1  0
  1 18  1  0
  6 19  1  0
 16 20  1  0
  7 21  2  0
 17 22  1  0
 18 23  1  0
 23 24  2  3
 24 25  1  0
 24 26  1  0
 13 27  1  0
M  END
>  <Classification>  (874) 
0

>  <pchembl>  (874) 
4.75

>  <InChI_steorem>  (874) 
InChI=1S/C22H23FO4/c1-14(2)5-11-17-19(26-3)13-20(27-4)21(22(17)25)18(24)12-8-15-6-9-16(23)10-7-15/h5-10,12-13,25H,11H2,1-4H3

>  <source>  (874) 
ChEMBL28

>  <source_id>  (874) 
28

>  <optional_reference>  (874) 
10.1016/j.ejmech.2019.05.053

>  <optional_origin>  (874) 
None

>  <target>  (874) 
MDR1

$$$$

     RDKit          2D

 27 29  0  0  0  0  0  0  0  0999 V2000
   20.8576  -25.6548    0.0000 C   0  0  0  0  0  0  0  0  0  0  0  0
   20.8564  -26.4744    0.0000 C   0  0  0  0  0  0  0  0  0  0  0  0
   21.5645  -26.8833    0.0000 C   0  0  0  0  0  0  0  0  0  0  0  0
   22.2742  -26.4739    0.0000 C   0  0  0  0  0  0  0  0  0  0  0  0
   22.2713  -25.6512    0.0000 C   0  0  0  0  0  0  0  0  0  0  0  0
   21.5627  -25.2460    0.0000 C   0  0  0  0  0  0  0  0  0  0  0  0
   22.9775  -25.2400    0.0000 C   0  0  0  0  0  0  0  0  0  0  0  0
   23.6867  -25.6459    0.0000 C   0  0  0  0  0  0  0  0  0  0  0  0
   24.3929  -25.2346    0.0000 C   0  0  0  0  0  0  0  0  0  0  0  0
   25.1021  -25.6405    0.0000 C   0  0  0  0  0  0  0  0  0  0  0  0
   25.1021  -26.4566    0.0000 C   0  0  0  0  0  0  0  0  0  0  0  0
   25.8105  -26.8625    0.0000 C   0  0  0  0  0  0  0  0  0  0  0  0
   26.5177  -26.4511    0.0000 C   0  0  0  0  0  0  0  0  0  0  0  0
   26.5120  -25.6297    0.0000 C   0  0  0  0  0  0  0  0  0  0  0  0
   25.8030  -25.2276    0.0000 C   0  0  0  0  0  0  0  0  0  0  0  0
   22.9825  -26.8814    0.0000 O   0  0  0  0  0  0  0  0  0  0  0  0
   20.1484  -26.8824    0.0000 O   0  0  0  0  0  0  0  0  0  0  0  0
   21.5603  -24.4288    0.0000 O   0  0  0  0  0  0  0  0  0  0  0  0
   22.9838  -27.6986    0.0000 C   0  0  0  0  0  0  0  0  0  0  0  0
   22.9744  -24.4228    0.0000 O   0  0  0  0  0  0  0  0  0  0  0  0
   20.1478  -27.6996    0.0000 C   0  0  0  0  0  0  0  0  0  0  0  0
   27.2273  -26.8559    0.0000 N   0  0  0  0  0  0  0  0  0  0  0  0
   27.2295  -27.6740    0.0000 C   0  0  0  0  0  0  0  0  0  0  0  0
   27.9352  -28.0789    0.0000 C   0  0  0  0  0  0  0  0  0  0  0  0
   28.6433  -27.6702    0.0000 N   0  0  0  0  0  0  0  0  0  0  0  0
   28.6411  -26.8520    0.0000 C   0  0  0  0  0  0  0  0  0  0  0  0
   27.9308  -26.4426    0.0000 C   0  0  0  0  0  0  0  0  0  0  0  0
  1  2  2  0
  2  3  1  0
  3  4  2  0
  4  5  1  0
  5  6  2  0
  6  1  1  0
  5  7  1  0
  7  8  1  0
  8  9  2  3
  9 10  1  0
 10 11  2  0
 11 12  1  0
 12 13  2  0
 13 14  1  0
 14 15  2  0
 15 10  1  0
  4 16  1  0
  2 17  1  0
  6 18  1  0
 16 19  1  0
  7 20  2  0
 17 21  1  0
 22 23  1  0
 22 27  1  0
 23 24  1  0
 24 25  1  0
 25 26  1  0
 26 27  1  0
 13 22  1  0
M  END
>  <Classification>  (875) 
0

>  <pchembl>  (875) 
4.78

>  <InChI_steorem>  (875) 
InChI=1S/C21H24N2O4/c1-26-17-13-19(25)21(20(14-17)27-2)18(24)8-5-15-3-6-16(7-4-15)23-11-9-22-10-12-23/h3-8,13-14,22,25H,9-12H2,1-2H3

>  <source>  (875) 
ChEMBL28

>  <source_id>  (875) 
28

>  <optional_reference>  (875) 
10.1016/j.ejmech.2019.05.053

>  <optional_origin>  (875) 
None

>  <target>  (875) 
MDR1

$$$$

     RDKit          2D

 27 29  0  0  0  0  0  0  0  0999 V2000
   35.8807  -18.2629    0.0000 C   0  0  0  0  0  0  0  0  0  0  0  0
   35.8796  -19.0825    0.0000 C   0  0  0  0  0  0  0  0  0  0  0  0
   36.5876  -19.4914    0.0000 C   0  0  0  0  0  0  0  0  0  0  0  0
   37.2973  -19.0820    0.0000 C   0  0  0  0  0  0  0  0  0  0  0  0
   37.2944  -18.2593    0.0000 C   0  0  0  0  0  0  0  0  0  0  0  0
   36.5858  -17.8541    0.0000 C   0  0  0  0  0  0  0  0  0  0  0  0
   38.0006  -17.8481    0.0000 C   0  0  0  0  0  0  0  0  0  0  0  0
   38.7098  -18.2540    0.0000 C   0  0  0  0  0  0  0  0  0  0  0  0
   39.4160  -17.8428    0.0000 C   0  0  0  0  0  0  0  0  0  0  0  0
   40.1253  -18.2487    0.0000 C   0  0  0  0  0  0  0  0  0  0  0  0
   40.1252  -19.0647    0.0000 C   0  0  0  0  0  0  0  0  0  0  0  0
   40.8336  -19.4706    0.0000 C   0  0  0  0  0  0  0  0  0  0  0  0
   41.5408  -19.0593    0.0000 C   0  0  0  0  0  0  0  0  0  0  0  0
   41.5351  -18.2379    0.0000 C   0  0  0  0  0  0  0  0  0  0  0  0
   40.8261  -17.8357    0.0000 C   0  0  0  0  0  0  0  0  0  0  0  0
   38.0056  -19.4895    0.0000 O   0  0  0  0  0  0  0  0  0  0  0  0
   35.1715  -19.4905    0.0000 O   0  0  0  0  0  0  0  0  0  0  0  0
   36.5834  -17.0369    0.0000 O   0  0  0  0  0  0  0  0  0  0  0  0
   38.0069  -20.3067    0.0000 C   0  0  0  0  0  0  0  0  0  0  0  0
   37.9975  -17.0309    0.0000 O   0  0  0  0  0  0  0  0  0  0  0  0
   35.1709  -20.3077    0.0000 C   0  0  0  0  0  0  0  0  0  0  0  0
   42.2401  -17.8265    0.0000 N   0  0  0  0  0  0  0  0  0  0  0  0
   42.9507  -18.2321    0.0000 C   0  0  0  0  0  0  0  0  0  0  0  0
   43.6533  -17.8218    0.0000 C   0  0  0  0  0  0  0  0  0  0  0  0
   43.6516  -17.0043    0.0000 N   0  0  0  0  0  0  0  0  0  0  0  0
   42.9410  -16.5987    0.0000 C   0  0  0  0  0  0  0  0  0  0  0  0
   42.2322  -17.0107    0.0000 C   0  0  0  0  0  0  0  0  0  0  0  0
  1  2  2  0
  2  3  1  0
  3  4  2  0
  4  5  1  0
  5  6  2  0
  6  1  1  0
  5  7  1  0
  7  8  1  0
  8  9  2  3
  9 10  1  0
 10 11  2  0
 11 12  1  0
 12 13  2  0
 13 14  1  0
 14 15  2  0
 15 10  1  0
  4 16  1  0
  2 17  1  0
  6 18  1  0
 16 19  1  0
  7 20  2  0
 17 21  1  0
 22 23  1  0
 22 27  1  0
 23 24  1  0
 24 25  1  0
 25 26  1  0
 26 27  1  0
 14 22  1  0
M  END
>  <Classification>  (876) 
1

>  <pchembl>  (876) 
5.58

>  <InChI_steorem>  (876) 
InChI=1S/C21H24N2O4/c1-26-17-13-19(25)21(20(14-17)27-2)18(24)7-6-15-4-3-5-16(12-15)23-10-8-22-9-11-23/h3-7,12-14,22,25H,8-11H2,1-2H3

>  <source>  (876) 
ChEMBL28

>  <source_id>  (876) 
28

>  <optional_reference>  (876) 
10.1016/j.ejmech.2019.05.053

>  <optional_origin>  (876) 
None

>  <target>  (876) 
MDR1

$$$$

     RDKit          2D

 27 29  0  0  0  0  0  0  0  0999 V2000
   35.9798  -25.9107    0.0000 C   0  0  0  0  0  0  0  0  0  0  0  0
   35.9786  -26.7302    0.0000 C   0  0  0  0  0  0  0  0  0  0  0  0
   36.6867  -27.1392    0.0000 C   0  0  0  0  0  0  0  0  0  0  0  0
   37.3963  -26.7298    0.0000 C   0  0  0  0  0  0  0  0  0  0  0  0
   37.3935  -25.9071    0.0000 C   0  0  0  0  0  0  0  0  0  0  0  0
   36.6849  -25.5018    0.0000 C   0  0  0  0  0  0  0  0  0  0  0  0
   38.0997  -25.4958    0.0000 C   0  0  0  0  0  0  0  0  0  0  0  0
   38.8089  -25.9018    0.0000 C   0  0  0  0  0  0  0  0  0  0  0  0
   39.5151  -25.4905    0.0000 C   0  0  0  0  0  0  0  0  0  0  0  0
   40.2243  -25.8964    0.0000 C   0  0  0  0  0  0  0  0  0  0  0  0
   40.2243  -26.7125    0.0000 C   0  0  0  0  0  0  0  0  0  0  0  0
   40.9327  -27.1183    0.0000 C   0  0  0  0  0  0  0  0  0  0  0  0
   41.6398  -26.7070    0.0000 C   0  0  0  0  0  0  0  0  0  0  0  0
   41.6341  -25.8856    0.0000 C   0  0  0  0  0  0  0  0  0  0  0  0
   40.9251  -25.4835    0.0000 C   0  0  0  0  0  0  0  0  0  0  0  0
   38.1047  -27.1373    0.0000 O   0  0  0  0  0  0  0  0  0  0  0  0
   35.2706  -27.1383    0.0000 O   0  0  0  0  0  0  0  0  0  0  0  0
   36.6824  -24.6847    0.0000 O   0  0  0  0  0  0  0  0  0  0  0  0
   38.1060  -27.9544    0.0000 C   0  0  0  0  0  0  0  0  0  0  0  0
   38.0966  -24.6787    0.0000 O   0  0  0  0  0  0  0  0  0  0  0  0
   35.2699  -27.9555    0.0000 C   0  0  0  0  0  0  0  0  0  0  0  0
   42.3353  -25.4720    0.0000 N   0  0  0  0  0  0  0  0  0  0  0  0
   43.0458  -25.8776    0.0000 C   0  0  0  0  0  0  0  0  0  0  0  0
   43.7484  -25.4674    0.0000 C   0  0  0  0  0  0  0  0  0  0  0  0
   43.7467  -24.6498    0.0000 O   0  0  0  0  0  0  0  0  0  0  0  0
   43.0362  -24.2442    0.0000 C   0  0  0  0  0  0  0  0  0  0  0  0
   42.3274  -24.6562    0.0000 C   0  0  0  0  0  0  0  0  0  0  0  0
  1  2  2  0
  2  3  1  0
  3  4  2  0
  4  5  1  0
  5  6  2  0
  6  1  1  0
  5  7  1  0
  7  8  1  0
  8  9  2  3
  9 10  1  0
 10 11  2  0
 11 12  1  0
 12 13  2  0
 13 14  1  0
 14 15  2  0
 15 10  1  0
  4 16  1  0
  2 17  1  0
  6 18  1  0
 16 19  1  0
  7 20  2  0
 17 21  1  0
 22 23  1  0
 22 27  1  0
 23 24  1  0
 24 25  1  0
 25 26  1  0
 26 27  1  0
 14 22  1  0
M  END
>  <Classification>  (877) 
0

>  <pchembl>  (877) 
4.73

>  <InChI_steorem>  (877) 
InChI=1S/C21H23NO5/c1-25-17-13-19(24)21(20(14-17)26-2)18(23)7-6-15-4-3-5-16(12-15)22-8-10-27-11-9-22/h3-7,12-14,24H,8-11H2,1-2H3

>  <source>  (877) 
ChEMBL28

>  <source_id>  (877) 
28

>  <optional_reference>  (877) 
10.1016/j.ejmech.2019.05.053

>  <optional_origin>  (877) 
None

>  <target>  (877) 
MDR1

$$$$

     RDKit          2D

 27 30  0  0  0  0  0  0  0  0999 V2000
   33.9615  -20.4297    0.0000 C   0  0  0  0  0  0  0  0  0  0  0  0
   33.9604  -21.2493    0.0000 C   0  0  0  0  0  0  0  0  0  0  0  0
   34.6684  -21.6582    0.0000 C   0  0  0  0  0  0  0  0  0  0  0  0
   34.6667  -20.0209    0.0000 C   0  0  0  0  0  0  0  0  0  0  0  0
   35.3753  -20.4261    0.0000 C   0  0  0  0  0  0  0  0  0  0  0  0
   35.3760  -21.2452    0.0000 C   0  0  0  0  0  0  0  0  0  0  0  0
   36.0846  -21.6522    0.0000 N   0  0  0  0  0  0  0  0  0  0  0  0
   36.7928  -21.2414    0.0000 C   0  0  0  0  0  0  0  0  0  0  0  0
   36.7881  -20.4193    0.0000 C   0  0  0  0  0  0  0  0  0  0  0  0
   36.0790  -20.0159    0.0000 C   0  0  0  0  0  0  0  0  0  0  0  0
   36.0747  -19.1987    0.0000 N   0  0  0  0  0  0  0  0  0  0  0  0
   36.7802  -18.7864    0.0000 C   0  0  0  0  0  0  0  0  0  0  0  0
   37.4855  -19.1946    0.0000 C   0  0  0  0  0  0  0  0  0  0  0  0
   38.1905  -18.7829    0.0000 C   0  0  0  0  0  0  0  0  0  0  0  0
   38.1866  -17.9649    0.0000 C   0  0  0  0  0  0  0  0  0  0  0  0
   37.4718  -17.5602    0.0000 C   0  0  0  0  0  0  0  0  0  0  0  0
   36.7697  -17.9742    0.0000 C   0  0  0  0  0  0  0  0  0  0  0  0
   37.4986  -21.6432    0.0000 C   0  0  0  0  0  0  0  0  0  0  0  0
   37.5004  -22.4615    0.0000 C   0  0  0  0  0  0  0  0  0  0  0  0
   38.2089  -22.8672    0.0000 C   0  0  0  0  0  0  0  0  0  0  0  0
   38.9160  -22.4558    0.0000 C   0  0  0  0  0  0  0  0  0  0  0  0
   38.9101  -21.6344    0.0000 C   0  0  0  0  0  0  0  0  0  0  0  0
   38.2011  -21.2324    0.0000 C   0  0  0  0  0  0  0  0  0  0  0  0
   38.9002  -19.1881    0.0000 N   0  0  0  0  0  0  0  0  0  0  0  0
   39.6059  -18.7761    0.0000 C   0  0  0  0  0  0  0  0  0  0  0  0
   40.3156  -19.1813    0.0000 C   0  0  0  0  0  0  0  0  0  0  0  0
   39.6020  -17.9589    0.0000 O   0  0  0  0  0  0  0  0  0  0  0  0
  1  2  2  0
  2  3  1  0
  3  6  2  0
  5  4  2  0
  4  1  1  0
  5  6  1  0
  6  7  1  0
  7  8  2  0
  8  9  1  0
  9 10  2  0
 10  5  1  0
 10 11  1  0
 11 12  1  0
 12 13  2  0
 13 14  1  0
 14 15  2  0
 15 16  1  0
 16 17  2  0
 17 12  1  0
 18 19  2  0
 19 20  1  0
 20 21  2  0
 21 22  1  0
 22 23  2  0
 23 18  1  0
  8 18  1  0
 14 24  1  0
 24 25  1  0
 25 26  1  0
 25 27  2  0
M  END
>  <Classification>  (878) 
1

>  <pchembl>  (878) 
6.18

>  <InChI_steorem>  (878) 
InChI=1S/C23H19N3O/c1-16(27)24-18-10-7-11-19(14-18)25-23-15-22(17-8-3-2-4-9-17)26-21-13-6-5-12-20(21)23/h2-15H,1H3,(H,24,27)(H,25,26)

>  <source>  (878) 
ChEMBL28

>  <source_id>  (878) 
28

>  <optional_reference>  (878) 
10.1021/acs.jmedchem.6b00330

>  <optional_origin>  (878) 
None

>  <target>  (878) 
MDR1

$$$$

     RDKit          2D

 27 30  0  0  0  0  0  0  0  0999 V2000
   35.5985   -3.5435    0.0000 C   0  0  0  0  0  0  0  0  0  0  0  0
   35.5974   -4.3630    0.0000 C   0  0  0  0  0  0  0  0  0  0  0  0
   36.3054   -4.7720    0.0000 C   0  0  0  0  0  0  0  0  0  0  0  0
   36.3037   -3.1346    0.0000 C   0  0  0  0  0  0  0  0  0  0  0  0
   37.0123   -3.5399    0.0000 C   0  0  0  0  0  0  0  0  0  0  0  0
   37.0111   -4.3606    0.0000 C   0  0  0  0  0  0  0  0  0  0  0  0
   37.7173   -4.7696    0.0000 C   0  0  0  0  0  0  0  0  0  0  0  0
   38.4292   -4.3626    0.0000 C   0  0  0  0  0  0  0  0  0  0  0  0
   38.4303   -3.5419    0.0000 N   0  0  0  0  0  0  0  0  0  0  0  0
   37.7196   -3.1283    0.0000 C   0  0  0  0  0  0  0  0  0  0  0  0
   39.1390   -3.1350    0.0000 C   0  0  0  0  0  0  0  0  0  0  0  0
   39.8458   -3.5453    0.0000 C   0  0  0  0  0  0  0  0  0  0  0  0
   40.5545   -3.1385    0.0000 C   0  0  0  0  0  0  0  0  0  0  0  0
   41.2612   -3.5488    0.0000 O   0  0  0  0  0  0  0  0  0  0  0  0
   41.9677   -3.1381    0.0000 C   0  0  0  0  0  0  0  0  0  0  0  0
   42.6759   -3.5458    0.0000 C   0  0  0  0  0  0  0  0  0  0  0  0
   42.6661   -1.9114    0.0000 C   0  0  0  0  0  0  0  0  0  0  0  0
   41.9630   -2.3238    0.0000 C   0  0  0  0  0  0  0  0  0  0  0  0
   43.3799   -2.3178    0.0000 C   0  0  0  0  0  0  0  0  0  0  0  0
   43.3779   -3.1329    0.0000 C   0  0  0  0  0  0  0  0  0  0  0  0
   44.0789   -3.5399    0.0000 O   0  0  0  0  0  0  0  0  0  0  0  0
   44.7864   -3.1364    0.0000 C   0  0  0  0  0  0  0  0  0  0  0  0
   44.7885   -2.3213    0.0000 C   0  0  0  0  0  0  0  0  0  0  0  0
   44.0830   -1.9097    0.0000 C   0  0  0  0  0  0  0  0  0  0  0  0
   45.4926   -3.5477    0.0000 O   0  0  0  0  0  0  0  0  0  0  0  0
   45.4976   -1.9151    0.0000 C   0  0  0  0  0  0  0  0  0  0  0  0
   44.0838   -1.0925    0.0000 C   0  0  0  0  0  0  0  0  0  0  0  0
  1  2  2  0
  2  3  1  0
  3  6  2  0
  5  4  2  0
  4  1  1  0
  5  6  1  0
  5 10  1  0
  6  7  1  0
  7  8  1  0
  8  9  1  0
  9 10  1  0
  9 11  1  0
 11 12  1  0
 12 13  1  0
 13 14  1  0
 14 15  1  0
 15 16  2  0
 16 20  1  0
 19 17  1  0
 17 18  2  0
 18 15  1  0
 19 20  2  0
 19 24  1  0
 20 21  1  0
 21 22  1  0
 22 23  1  0
 23 24  2  0
 22 25  2  0
 23 26  1  0
 24 27  1  0
M  END
>  <Classification>  (879) 
1

>  <pchembl>  (879) 
5.57

>  <InChI_steorem>  (879) 
InChI=1S/C23H25NO3/c1-16-17(2)23(25)27-22-14-20(8-9-21(16)22)26-13-5-11-24-12-10-18-6-3-4-7-19(18)15-24/h3-4,6-9,14H,5,10-13,15H2,1-2H3

>  <source>  (879) 
ChEMBL28

>  <source_id>  (879) 
28

>  <optional_reference>  (879) 
10.1016/j.ejmech.2018.10.043

>  <optional_origin>  (879) 
None

>  <target>  (879) 
MDR1

$$$$

     RDKit          2D

 27 31  0  0  0  0  0  0  0  0999 V2000
    2.4171   -8.7332    0.0000 C   0  0  0  0  0  0  0  0  0  0  0  0
    2.4160   -9.5527    0.0000 C   0  0  0  0  0  0  0  0  0  0  0  0
    3.1240   -9.9617    0.0000 C   0  0  0  0  0  0  0  0  0  0  0  0
    3.1222   -8.3243    0.0000 C   0  0  0  0  0  0  0  0  0  0  0  0
    3.8309   -8.7296    0.0000 C   0  0  0  0  0  0  0  0  0  0  0  0
    3.8311   -9.5528    0.0000 C   0  0  0  0  0  0  0  0  0  0  0  0
    4.6141   -9.8069    0.0000 N   0  0  0  0  0  0  0  0  0  0  0  0
    4.6137   -8.4750    0.0000 C   0  0  0  0  0  0  0  0  0  0  0  0
    5.0979   -9.1421    0.0000 C   0  0  0  0  0  0  0  0  0  0  0  0
    5.9132   -9.0569    0.0000 C   0  0  0  0  0  0  0  0  0  0  0  0
    6.2506   -8.3055    0.0000 N   0  0  0  0  0  0  0  0  0  0  0  0
    5.7665   -7.6384    0.0000 C   0  0  0  0  0  0  0  0  0  0  0  0
    4.9448   -7.7226    0.0000 C   0  0  0  0  0  0  0  0  0  0  0  0
    7.0635   -8.2216    0.0000 C   0  0  0  0  0  0  0  0  0  0  0  0
    7.5426   -8.8836    0.0000 O   0  0  0  0  0  0  0  0  0  0  0  0
    7.3973   -7.4757    0.0000 C   0  0  0  0  0  0  0  0  0  0  0  0
    8.2104   -7.3958    0.0000 C   0  0  0  0  0  0  0  0  0  0  0  0
    8.5442   -6.6507    0.0000 C   0  0  0  0  0  0  0  0  0  0  0  0
    8.0649   -5.9877    0.0000 C   0  0  0  0  0  0  0  0  0  0  0  0
    7.2481   -6.0747    0.0000 C   0  0  0  0  0  0  0  0  0  0  0  0
    6.9181   -6.8200    0.0000 C   0  0  0  0  0  0  0  0  0  0  0  0
    6.3923   -9.7189    0.0000 C   0  0  0  0  0  0  0  0  0  0  0  0
    6.0577  -10.4619    0.0000 C   0  0  0  0  0  0  0  0  0  0  0  0
    6.5360  -11.1235    0.0000 C   0  0  0  0  0  0  0  0  0  0  0  0
    7.3498  -11.0400    0.0000 C   0  0  0  0  0  0  0  0  0  0  0  0
    7.6829  -10.2891    0.0000 C   0  0  0  0  0  0  0  0  0  0  0  0
    7.2025   -9.6306    0.0000 C   0  0  0  0  0  0  0  0  0  0  0  0
  1  2  2  0
  2  3  1  0
  3  6  2  0
  5  4  2  0
  4  1  1  0
  5  6  1  0
  6  7  1  0
  7  9  1  0
  8  5  1  0
  8  9  2  0
  8 13  1  0
  9 10  1  0
 10 11  1  0
 11 12  1  0
 12 13  1  0
 11 14  1  0
 14 15  2  0
 14 16  1  0
 16 17  2  0
 17 18  1  0
 18 19  2  0
 19 20  1  0
 20 21  2  0
 21 16  1  0
 10 22  1  0
 22 23  2  0
 23 24  1  0
 24 25  2  0
 25 26  1  0
 26 27  2  0
 27 22  1  0
M  END
>  <Classification>  (880) 
1

>  <pchembl>  (880) 
5.1

>  <InChI_steorem>  (880) 
InChI=1S/C24H20N2O/c27-24(18-11-5-2-6-12-18)26-16-15-20-19-13-7-8-14-21(19)25-22(20)23(26)17-9-3-1-4-10-17/h1-14,23,25H,15-16H2

>  <source>  (880) 
ChEMBL28

>  <source_id>  (880) 
28

>  <optional_reference>  (880) 
10.1021/acs.jmedchem.6b00035

>  <optional_origin>  (880) 
None

>  <target>  (880) 
MDR1

$$$$

     RDKit          2D

 28 29  0  0  0  0  0  0  0  0999 V2000
   29.1905   -2.2576    0.0000 C   0  0  0  0  0  0  0  0  0  0  0  0
   29.1893   -3.0771    0.0000 C   0  0  0  0  0  0  0  0  0  0  0  0
   29.8974   -3.4861    0.0000 C   0  0  0  0  0  0  0  0  0  0  0  0
   30.6070   -3.0766    0.0000 C   0  0  0  0  0  0  0  0  0  0  0  0
   30.6042   -2.2540    0.0000 C   0  0  0  0  0  0  0  0  0  0  0  0
   29.8956   -1.8487    0.0000 C   0  0  0  0  0  0  0  0  0  0  0  0
   31.3104   -1.8427    0.0000 C   0  0  0  0  0  0  0  0  0  0  0  0
   32.0196   -2.2486    0.0000 C   0  0  0  0  0  0  0  0  0  0  0  0
   32.7258   -1.8374    0.0000 C   0  0  0  0  0  0  0  0  0  0  0  0
   33.4350   -2.2433    0.0000 C   0  0  0  0  0  0  0  0  0  0  0  0
   33.4350   -3.0594    0.0000 C   0  0  0  0  0  0  0  0  0  0  0  0
   34.1434   -3.4652    0.0000 C   0  0  0  0  0  0  0  0  0  0  0  0
   34.8506   -3.0539    0.0000 C   0  0  0  0  0  0  0  0  0  0  0  0
   34.8448   -2.2325    0.0000 C   0  0  0  0  0  0  0  0  0  0  0  0
   34.1359   -1.8303    0.0000 C   0  0  0  0  0  0  0  0  0  0  0  0
   31.3154   -3.4841    0.0000 O   0  0  0  0  0  0  0  0  0  0  0  0
   28.4813   -3.4851    0.0000 O   0  0  0  0  0  0  0  0  0  0  0  0
   28.4827   -1.8491    0.0000 C   0  0  0  0  0  0  0  0  0  0  0  0
   29.8931   -1.0315    0.0000 O   0  0  0  0  0  0  0  0  0  0  0  0
   31.3167   -4.3013    0.0000 C   0  0  0  0  0  0  0  0  0  0  0  0
   31.3073   -1.0255    0.0000 O   0  0  0  0  0  0  0  0  0  0  0  0
   28.4806   -4.3023    0.0000 C   0  0  0  0  0  0  0  0  0  0  0  0
   27.7751   -2.2579    0.0000 C   0  0  0  0  0  0  0  0  0  0  0  0
   27.0672   -1.8495    0.0000 C   0  0  0  0  0  0  0  0  0  0  0  0
   26.3596   -2.2582    0.0000 C   0  0  0  0  0  0  0  0  0  0  0  0
   27.0671   -1.0323    0.0000 C   0  0  0  0  0  0  0  0  0  0  0  0
   34.1461   -4.2824    0.0000 O   0  0  0  0  0  0  0  0  0  0  0  0
   34.8551   -4.6887    0.0000 C   0  0  0  0  0  0  0  0  0  0  0  0
  1  2  2  0
  2  3  1  0
  3  4  2  0
  4  5  1  0
  5  6  2  0
  6  1  1  0
  5  7  1  0
  7  8  1  0
  8  9  2  3
  9 10  1  0
 10 11  2  0
 11 12  1  0
 12 13  2  0
 13 14  1  0
 14 15  2  0
 15 10  1  0
  4 16  1  0
  2 17  1  0
  1 18  1  0
  6 19  1  0
 16 20  1  0
  7 21  2  0
 17 22  1  0
 18 23  1  0
 23 24  2  3
 24 25  1  0
 24 26  1  0
 12 27  1  0
 27 28  1  0
M  END
>  <Classification>  (881) 
1

>  <pchembl>  (881) 
5.11

>  <InChI_steorem>  (881) 
InChI=1S/C23H26O5/c1-15(2)9-11-18-20(27-4)14-21(28-5)22(23(18)25)19(24)12-10-16-7-6-8-17(13-16)26-3/h6-10,12-14,25H,11H2,1-5H3

>  <source>  (881) 
ChEMBL28

>  <source_id>  (881) 
28

>  <optional_reference>  (881) 
10.1016/j.ejmech.2019.05.053

>  <optional_origin>  (881) 
None

>  <target>  (881) 
MDR1

$$$$

     RDKit          2D

 28 29  0  0  0  0  0  0  0  0999 V2000
   40.0657   -2.3153    0.0000 C   0  0  0  0  0  0  0  0  0  0  0  0
   40.0646   -3.1349    0.0000 C   0  0  0  0  0  0  0  0  0  0  0  0
   40.7726   -3.5438    0.0000 C   0  0  0  0  0  0  0  0  0  0  0  0
   41.4823   -3.1344    0.0000 C   0  0  0  0  0  0  0  0  0  0  0  0
   41.4794   -2.3117    0.0000 C   0  0  0  0  0  0  0  0  0  0  0  0
   40.7708   -1.9065    0.0000 C   0  0  0  0  0  0  0  0  0  0  0  0
   42.1856   -1.9005    0.0000 C   0  0  0  0  0  0  0  0  0  0  0  0
   42.8949   -2.3064    0.0000 C   0  0  0  0  0  0  0  0  0  0  0  0
   43.6010   -1.8951    0.0000 C   0  0  0  0  0  0  0  0  0  0  0  0
   44.3103   -2.3011    0.0000 C   0  0  0  0  0  0  0  0  0  0  0  0
   44.3102   -3.1171    0.0000 C   0  0  0  0  0  0  0  0  0  0  0  0
   45.0187   -3.5230    0.0000 C   0  0  0  0  0  0  0  0  0  0  0  0
   45.7258   -3.1117    0.0000 C   0  0  0  0  0  0  0  0  0  0  0  0
   45.7201   -2.2903    0.0000 C   0  0  0  0  0  0  0  0  0  0  0  0
   45.0111   -1.8881    0.0000 C   0  0  0  0  0  0  0  0  0  0  0  0
   42.1906   -3.5419    0.0000 O   0  0  0  0  0  0  0  0  0  0  0  0
   39.3565   -3.5429    0.0000 O   0  0  0  0  0  0  0  0  0  0  0  0
   39.3579   -1.9069    0.0000 C   0  0  0  0  0  0  0  0  0  0  0  0
   40.7684   -1.0893    0.0000 O   0  0  0  0  0  0  0  0  0  0  0  0
   42.1919   -4.3591    0.0000 C   0  0  0  0  0  0  0  0  0  0  0  0
   42.1825   -1.0833    0.0000 O   0  0  0  0  0  0  0  0  0  0  0  0
   39.3559   -4.3601    0.0000 C   0  0  0  0  0  0  0  0  0  0  0  0
   38.6503   -2.3157    0.0000 C   0  0  0  0  0  0  0  0  0  0  0  0
   37.9425   -1.9072    0.0000 C   0  0  0  0  0  0  0  0  0  0  0  0
   37.2349   -2.3160    0.0000 C   0  0  0  0  0  0  0  0  0  0  0  0
   37.9423   -1.0901    0.0000 C   0  0  0  0  0  0  0  0  0  0  0  0
   46.4356   -3.5166    0.0000 O   0  0  0  0  0  0  0  0  0  0  0  0
   46.4397   -4.3338    0.0000 C   0  0  0  0  0  0  0  0  0  0  0  0
  1  2  2  0
  2  3  1  0
  3  4  2  0
  4  5  1  0
  5  6  2  0
  6  1  1  0
  5  7  1  0
  7  8  1  0
  8  9  2  3
  9 10  1  0
 10 11  2  0
 11 12  1  0
 12 13  2  0
 13 14  1  0
 14 15  2  0
 15 10  1  0
  4 16  1  0
  2 17  1  0
  1 18  1  0
  6 19  1  0
 16 20  1  0
  7 21  2  0
 17 22  1  0
 18 23  1  0
 23 24  2  3
 24 25  1  0
 24 26  1  0
 13 27  1  0
 27 28  1  0
M  END
>  <Classification>  (882) 
0

>  <pchembl>  (882) 
4.68

>  <InChI_steorem>  (882) 
InChI=1S/C23H26O5/c1-15(2)6-12-18-20(27-4)14-21(28-5)22(23(18)25)19(24)13-9-16-7-10-17(26-3)11-8-16/h6-11,13-14,25H,12H2,1-5H3

>  <source>  (882) 
ChEMBL28

>  <source_id>  (882) 
28

>  <optional_reference>  (882) 
10.1016/j.ejmech.2019.05.053

>  <optional_origin>  (882) 
None

>  <target>  (882) 
MDR1

$$$$

     RDKit          2D

 28 30  0  0  0  0  0  0  0  0999 V2000
    3.3540  -18.8738    0.0000 C   0  0  0  0  0  0  0  0  0  0  0  0
    3.3529  -19.6933    0.0000 C   0  0  0  0  0  0  0  0  0  0  0  0
    4.0609  -20.1023    0.0000 C   0  0  0  0  0  0  0  0  0  0  0  0
    4.7706  -19.6928    0.0000 C   0  0  0  0  0  0  0  0  0  0  0  0
    4.7678  -18.8702    0.0000 C   0  0  0  0  0  0  0  0  0  0  0  0
    4.0591  -18.4649    0.0000 C   0  0  0  0  0  0  0  0  0  0  0  0
    5.4739  -18.4589    0.0000 C   0  0  0  0  0  0  0  0  0  0  0  0
    6.1832  -18.8648    0.0000 C   0  0  0  0  0  0  0  0  0  0  0  0
    6.8893  -18.4536    0.0000 C   0  0  0  0  0  0  0  0  0  0  0  0
    7.5986  -18.8595    0.0000 C   0  0  0  0  0  0  0  0  0  0  0  0
    7.5986  -19.6756    0.0000 C   0  0  0  0  0  0  0  0  0  0  0  0
    8.3070  -20.0814    0.0000 C   0  0  0  0  0  0  0  0  0  0  0  0
    9.0141  -19.6701    0.0000 C   0  0  0  0  0  0  0  0  0  0  0  0
    9.0084  -18.8487    0.0000 C   0  0  0  0  0  0  0  0  0  0  0  0
    8.2994  -18.4466    0.0000 C   0  0  0  0  0  0  0  0  0  0  0  0
    5.4789  -20.1003    0.0000 O   0  0  0  0  0  0  0  0  0  0  0  0
    2.6448  -20.1014    0.0000 O   0  0  0  0  0  0  0  0  0  0  0  0
    4.0567  -17.6477    0.0000 O   0  0  0  0  0  0  0  0  0  0  0  0
    5.4802  -20.9175    0.0000 C   0  0  0  0  0  0  0  0  0  0  0  0
    5.4708  -17.6417    0.0000 O   0  0  0  0  0  0  0  0  0  0  0  0
    2.6442  -20.9185    0.0000 C   0  0  0  0  0  0  0  0  0  0  0  0
    9.7135  -18.4373    0.0000 N   0  0  0  0  0  0  0  0  0  0  0  0
   10.4240  -18.8429    0.0000 C   0  0  0  0  0  0  0  0  0  0  0  0
   11.1266  -18.4327    0.0000 C   0  0  0  0  0  0  0  0  0  0  0  0
   11.1249  -17.6151    0.0000 N   0  0  0  0  0  0  0  0  0  0  0  0
   10.4143  -17.2095    0.0000 C   0  0  0  0  0  0  0  0  0  0  0  0
    9.7056  -17.6215    0.0000 C   0  0  0  0  0  0  0  0  0  0  0  0
   11.8311  -17.2041    0.0000 C   0  0  0  0  0  0  0  0  0  0  0  0
  1  2  2  0
  2  3  1  0
  3  4  2  0
  4  5  1  0
  5  6  2  0
  6  1  1  0
  5  7  1  0
  7  8  1  0
  8  9  2  3
  9 10  1  0
 10 11  2  0
 11 12  1  0
 12 13  2  0
 13 14  1  0
 14 15  2  0
 15 10  1  0
  4 16  1  0
  2 17  1  0
  6 18  1  0
 16 19  1  0
  7 20  2  0
 17 21  1  0
 22 23  1  0
 22 27  1  0
 23 24  1  0
 24 25  1  0
 25 26  1  0
 26 27  1  0
 14 22  1  0
 25 28  1  0
M  END
>  <Classification>  (883) 
0

>  <pchembl>  (883) 
4.75

>  <InChI_steorem>  (883) 
InChI=1S/C22H26N2O4/c1-23-9-11-24(12-10-23)17-6-4-5-16(13-17)7-8-19(25)22-20(26)14-18(27-2)15-21(22)28-3/h4-8,13-15,26H,9-12H2,1-3H3

>  <source>  (883) 
ChEMBL28

>  <source_id>  (883) 
28

>  <optional_reference>  (883) 
10.1016/j.ejmech.2019.05.053

>  <optional_origin>  (883) 
None

>  <target>  (883) 
MDR1

$$$$

     RDKit          2D

 28 30  0  0  0  0  0  0  0  0999 V2000
   38.2721   -2.4868    0.0000 C   0  0  0  0  0  0  0  0  0  0  0  0
   38.2721   -3.3070    0.0000 C   0  0  0  0  0  0  0  0  0  0  0  0
   38.9846   -3.7170    0.0000 C   0  0  0  0  0  0  0  0  0  0  0  0
   39.6918   -3.3015    0.0000 C   0  0  0  0  0  0  0  0  0  0  0  0
   39.6861   -2.4760    0.0000 C   0  0  0  0  0  0  0  0  0  0  0  0
   38.9771   -2.0738    0.0000 C   0  0  0  0  0  0  0  0  0  0  0  0
   40.4056   -3.7149    0.0000 N   0  0  0  0  0  0  0  0  0  0  0  0
   40.4078   -4.5371    0.0000 C   0  0  0  0  0  0  0  0  0  0  0  0
   41.1176   -4.9421    0.0000 C   0  0  0  0  0  0  0  0  0  0  0  0
   41.8298   -4.5333    0.0000 N   0  0  0  0  0  0  0  0  0  0  0  0
   41.8276   -3.7111    0.0000 C   0  0  0  0  0  0  0  0  0  0  0  0
   41.1132   -3.2975    0.0000 C   0  0  0  0  0  0  0  0  0  0  0  0
   37.5610   -3.7209    0.0000 C   0  0  0  0  0  0  0  0  0  0  0  0
   36.8484   -3.3093    0.0000 C   0  0  0  0  0  0  0  0  0  0  0  0
   36.1373   -3.7232    0.0000 C   0  0  0  0  0  0  0  0  0  0  0  0
   35.4248   -3.3117    0.0000 C   0  0  0  0  0  0  0  0  0  0  0  0
   36.1386   -4.5446    0.0000 O   0  0  0  0  0  0  0  0  0  0  0  0
   35.4269   -2.4910    0.0000 C   0  0  0  0  0  0  0  0  0  0  0  0
   34.7153   -2.0836    0.0000 C   0  0  0  0  0  0  0  0  0  0  0  0
   34.0031   -2.4934    0.0000 C   0  0  0  0  0  0  0  0  0  0  0  0
   34.0071   -3.3190    0.0000 C   0  0  0  0  0  0  0  0  0  0  0  0
   34.7194   -3.7268    0.0000 C   0  0  0  0  0  0  0  0  0  0  0  0
   34.7243   -4.5481    0.0000 O   0  0  0  0  0  0  0  0  0  0  0  0
   34.0149   -4.9609    0.0000 C   0  0  0  0  0  0  0  0  0  0  0  0
   33.2942   -2.0870    0.0000 O   0  0  0  0  0  0  0  0  0  0  0  0
   33.2918   -1.2656    0.0000 C   0  0  0  0  0  0  0  0  0  0  0  0
   36.1391   -2.0829    0.0000 O   0  0  0  0  0  0  0  0  0  0  0  0
   34.7143   -1.2623    0.0000 C   0  0  0  0  0  0  0  0  0  0  0  0
  1  2  2  0
  2  3  1  0
  3  4  2  0
  4  5  1  0
  5  6  2  0
  6  1  1  0
  7  8  1  0
  7 12  1  0
  8  9  1  0
  9 10  1  0
 10 11  1  0
 11 12  1  0
  4  7  1  0
  2 13  1  0
 13 14  2  3
 14 15  1  0
 15 16  1  0
 15 17  2  0
 16 18  2  0
 18 19  1  0
 19 20  2  0
 20 21  1  0
 21 22  2  0
 22 16  1  0
 22 23  1  0
 23 24  1  0
 20 25  1  0
 25 26  1  0
 18 27  1  0
 19 28  1  0
M  END
>  <Classification>  (884) 
1

>  <pchembl>  (884) 
5.4

>  <InChI_steorem>  (884) 
InChI=1S/C22H26N2O4/c1-15-19(27-2)14-20(28-3)21(22(15)26)18(25)8-7-16-5-4-6-17(13-16)24-11-9-23-10-12-24/h4-8,13-14,23,26H,9-12H2,1-3H3

>  <source>  (884) 
ChEMBL28

>  <source_id>  (884) 
28

>  <optional_reference>  (884) 
10.1016/j.ejmech.2019.05.053

>  <optional_origin>  (884) 
None

>  <target>  (884) 
MDR1

$$$$

     RDKit          2D

 28 31  0  0  0  0  0  0  0  0999 V2000
    6.8610   -8.8887    0.0000 O   0  0  0  0  0  0  0  0  0  0  0  0
    7.5678   -9.2990    0.0000 C   0  0  0  0  0  0  0  0  0  0  0  0
    7.5644  -10.1162    0.0000 C   0  0  0  0  0  0  0  0  0  0  0  0
    8.9793   -9.2981    0.0000 C   0  0  0  0  0  0  0  0  0  0  0  0
    8.2728   -8.8915    0.0000 C   0  0  0  0  0  0  0  0  0  0  0  0
    8.9799  -10.1195    0.0000 C   0  0  0  0  0  0  0  0  0  0  0  0
    8.2709  -10.5215    0.0000 C   0  0  0  0  0  0  0  0  0  0  0  0
    8.2645  -11.3321    0.0000 O   0  0  0  0  0  0  0  0  0  0  0  0
    8.9655  -11.7468    0.0000 C   0  0  0  0  0  0  0  0  0  0  0  0
    9.6746  -11.3448    0.0000 C   0  0  0  0  0  0  0  0  0  0  0  0
    9.6827  -10.5281    0.0000 C   0  0  0  0  0  0  0  0  0  0  0  0
    8.9580  -12.5640    0.0000 O   0  0  0  0  0  0  0  0  0  0  0  0
   10.3787  -11.7596    0.0000 C   0  0  0  0  0  0  0  0  0  0  0  0
   10.3930  -10.1240    0.0000 C   0  0  0  0  0  0  0  0  0  0  0  0
    0.4897   -9.2904    0.0000 C   0  0  0  0  0  0  0  0  0  0  0  0
    0.4886  -10.1099    0.0000 C   0  0  0  0  0  0  0  0  0  0  0  0
    1.1966  -10.5189    0.0000 C   0  0  0  0  0  0  0  0  0  0  0  0
    1.1948   -8.8815    0.0000 C   0  0  0  0  0  0  0  0  0  0  0  0
    1.9035   -9.2868    0.0000 C   0  0  0  0  0  0  0  0  0  0  0  0
    1.9023  -10.1074    0.0000 C   0  0  0  0  0  0  0  0  0  0  0  0
    2.6085  -10.5164    0.0000 C   0  0  0  0  0  0  0  0  0  0  0  0
    3.3204  -10.1094    0.0000 C   0  0  0  0  0  0  0  0  0  0  0  0
    3.3215   -9.2888    0.0000 N   0  0  0  0  0  0  0  0  0  0  0  0
    2.6108   -8.8752    0.0000 C   0  0  0  0  0  0  0  0  0  0  0  0
    4.0302   -8.8819    0.0000 C   0  0  0  0  0  0  0  0  0  0  0  0
    4.7369   -9.2922    0.0000 C   0  0  0  0  0  0  0  0  0  0  0  0
    5.4456   -8.8853    0.0000 C   0  0  0  0  0  0  0  0  0  0  0  0
    6.1524   -9.2956    0.0000 C   0  0  0  0  0  0  0  0  0  0  0  0
  1  2  1  0
  2  3  2  0
  3  7  1  0
  6  4  1  0
  4  5  2  0
  5  2  1  0
  6  7  2  0
  6 11  1  0
  7  8  1  0
  8  9  1  0
  9 10  1  0
 10 11  2  0
  9 12  2  0
 10 13  1  0
 11 14  1  0
 15 16  2  0
 16 17  1  0
 17 20  2  0
 19 18  2  0
 18 15  1  0
 19 20  1  0
 19 24  1  0
 20 21  1  0
 21 22  1  0
 22 23  1  0
 23 24  1  0
 23 25  1  0
 25 26  1  0
 26 27  1  0
 27 28  1  0
 28  1  1  0
M  END
>  <Classification>  (885) 
1

>  <pchembl>  (885) 
6.04

>  <InChI_steorem>  (885) 
InChI=1S/C24H27NO3/c1-17-18(2)24(26)28-23-15-21(9-10-22(17)23)27-14-6-5-12-25-13-11-19-7-3-4-8-20(19)16-25/h3-4,7-10,15H,5-6,11-14,16H2,1-2H3

>  <source>  (885) 
ChEMBL28

>  <source_id>  (885) 
28

>  <optional_reference>  (885) 
10.1016/j.ejmech.2018.10.043

>  <optional_origin>  (885) 
None

>  <target>  (885) 
MDR1

$$$$

     RDKit          2D

 28 32  0  0  0  0  0  0  0  0999 V2000
   29.8096   -2.3979    0.0000 C   0  0  0  0  0  0  0  0  0  0  0  0
   29.8084   -3.2174    0.0000 C   0  0  0  0  0  0  0  0  0  0  0  0
   30.5165   -3.6264    0.0000 C   0  0  0  0  0  0  0  0  0  0  0  0
   30.5147   -1.9890    0.0000 C   0  0  0  0  0  0  0  0  0  0  0  0
   31.2233   -2.3943    0.0000 C   0  0  0  0  0  0  0  0  0  0  0  0
   31.2235   -3.2175    0.0000 C   0  0  0  0  0  0  0  0  0  0  0  0
   32.0065   -3.4716    0.0000 N   0  0  0  0  0  0  0  0  0  0  0  0
   32.0061   -2.1397    0.0000 C   0  0  0  0  0  0  0  0  0  0  0  0
   32.4903   -2.8068    0.0000 C   0  0  0  0  0  0  0  0  0  0  0  0
   33.3056   -2.7216    0.0000 C   0  0  0  0  0  0  0  0  0  0  0  0
   33.6431   -1.9702    0.0000 N   0  0  0  0  0  0  0  0  0  0  0  0
   33.1589   -1.3031    0.0000 C   0  0  0  0  0  0  0  0  0  0  0  0
   32.3372   -1.3873    0.0000 C   0  0  0  0  0  0  0  0  0  0  0  0
   34.4559   -1.8863    0.0000 C   0  0  0  0  0  0  0  0  0  0  0  0
   34.9350   -2.5483    0.0000 O   0  0  0  0  0  0  0  0  0  0  0  0
   34.7897   -1.1404    0.0000 C   0  0  0  0  0  0  0  0  0  0  0  0
   35.6028   -1.0605    0.0000 C   0  0  0  0  0  0  0  0  0  0  0  0
   35.9366   -0.3154    0.0000 C   0  0  0  0  0  0  0  0  0  0  0  0
   35.4574    0.3541    0.0000 C   0  0  0  0  0  0  0  0  0  0  0  0
   34.6406    0.2677    0.0000 C   0  0  0  0  0  0  0  0  0  0  0  0
   34.3105   -0.4847    0.0000 C   0  0  0  0  0  0  0  0  0  0  0  0
   33.7855   -3.3802    0.0000 C   0  0  0  0  0  0  0  0  0  0  0  0
   33.4501   -4.1266    0.0000 C   0  0  0  0  0  0  0  0  0  0  0  0
   33.9284   -4.7882    0.0000 C   0  0  0  0  0  0  0  0  0  0  0  0
   34.7422   -4.7047    0.0000 C   0  0  0  0  0  0  0  0  0  0  0  0
   35.0753   -3.9538    0.0000 C   0  0  0  0  0  0  0  0  0  0  0  0
   34.5949   -3.2953    0.0000 C   0  0  0  0  0  0  0  0  0  0  0  0
   32.6371   -4.2097    0.0000 F   0  0  0  0  0  0  0  0  0  0  0  0
  1  2  2  0
  2  3  1  0
  3  6  2  0
  5  4  2  0
  4  1  1  0
  5  6  1  0
  6  7  1  0
  7  9  1  0
  8  5  1  0
  8  9  2  0
  8 13  1  0
  9 10  1  0
 10 11  1  0
 11 12  1  0
 12 13  1  0
 11 14  1  0
 14 15  2  0
 14 16  1  0
 16 17  2  0
 17 18  1  0
 18 19  2  0
 19 20  1  0
 20 21  2  0
 21 16  1  0
 22 23  2  0
 23 24  1  0
 24 25  2  0
 25 26  1  0
 26 27  2  0
 27 22  1  0
 10 22  1  0
 23 28  1  0
M  END
>  <Classification>  (886) 
0

>  <pchembl>  (886) 
4.95

>  <InChI_steorem>  (886) 
InChI=1S/C24H19FN2O/c25-20-12-6-4-11-19(20)23-22-18(17-10-5-7-13-21(17)26-22)14-15-27(23)24(28)16-8-2-1-3-9-16/h1-13,23,26H,14-15H2

>  <source>  (886) 
ChEMBL28

>  <source_id>  (886) 
28

>  <optional_reference>  (886) 
10.1021/acs.jmedchem.6b00035

>  <optional_origin>  (886) 
None

>  <target>  (886) 
MDR1

$$$$

     RDKit          2D

 28 32  0  0  0  0  0  0  0  0999 V2000
   30.7795   -6.5829    0.0000 C   0  0  0  0  0  0  0  0  0  0  0  0
   30.7783   -7.4024    0.0000 C   0  0  0  0  0  0  0  0  0  0  0  0
   31.4864   -7.8114    0.0000 C   0  0  0  0  0  0  0  0  0  0  0  0
   31.4846   -6.1740    0.0000 C   0  0  0  0  0  0  0  0  0  0  0  0
   32.1932   -6.5793    0.0000 C   0  0  0  0  0  0  0  0  0  0  0  0
   32.1934   -7.4025    0.0000 C   0  0  0  0  0  0  0  0  0  0  0  0
   32.9764   -7.6566    0.0000 N   0  0  0  0  0  0  0  0  0  0  0  0
   32.9760   -6.3247    0.0000 C   0  0  0  0  0  0  0  0  0  0  0  0
   33.4602   -6.9919    0.0000 C   0  0  0  0  0  0  0  0  0  0  0  0
   34.2755   -6.9066    0.0000 C   0  0  0  0  0  0  0  0  0  0  0  0
   34.6130   -6.1552    0.0000 N   0  0  0  0  0  0  0  0  0  0  0  0
   34.1288   -5.4881    0.0000 C   0  0  0  0  0  0  0  0  0  0  0  0
   33.3071   -5.5724    0.0000 C   0  0  0  0  0  0  0  0  0  0  0  0
   35.4258   -6.0713    0.0000 C   0  0  0  0  0  0  0  0  0  0  0  0
   35.9049   -6.7333    0.0000 O   0  0  0  0  0  0  0  0  0  0  0  0
   35.7596   -5.3254    0.0000 C   0  0  0  0  0  0  0  0  0  0  0  0
   36.5727   -5.2455    0.0000 C   0  0  0  0  0  0  0  0  0  0  0  0
   36.9065   -4.5004    0.0000 C   0  0  0  0  0  0  0  0  0  0  0  0
   36.4273   -3.8374    0.0000 C   0  0  0  0  0  0  0  0  0  0  0  0
   35.6104   -3.9244    0.0000 C   0  0  0  0  0  0  0  0  0  0  0  0
   35.2804   -4.6697    0.0000 C   0  0  0  0  0  0  0  0  0  0  0  0
   34.7554   -7.5652    0.0000 C   0  0  0  0  0  0  0  0  0  0  0  0
   34.4200   -8.3116    0.0000 C   0  0  0  0  0  0  0  0  0  0  0  0
   34.8983   -8.9732    0.0000 C   0  0  0  0  0  0  0  0  0  0  0  0
   35.7121   -8.8897    0.0000 C   0  0  0  0  0  0  0  0  0  0  0  0
   36.0452   -8.1388    0.0000 C   0  0  0  0  0  0  0  0  0  0  0  0
   35.5648   -7.4804    0.0000 C   0  0  0  0  0  0  0  0  0  0  0  0
   36.1921   -9.5511    0.0000 F   0  0  0  0  0  0  0  0  0  0  0  0
  1  2  2  0
  2  3  1  0
  3  6  2  0
  5  4  2  0
  4  1  1  0
  5  6  1  0
  6  7  1  0
  7  9  1  0
  8  5  1  0
  8  9  2  0
  8 13  1  0
  9 10  1  0
 10 11  1  0
 11 12  1  0
 12 13  1  0
 11 14  1  0
 14 15  2  0
 14 16  1  0
 16 17  2  0
 17 18  1  0
 18 19  2  0
 19 20  1  0
 20 21  2  0
 21 16  1  0
 22 23  2  0
 23 24  1  0
 24 25  2  0
 25 26  1  0
 26 27  2  0
 27 22  1  0
 10 22  1  0
 25 28  1  0
M  END
>  <Classification>  (887) 
0

>  <pchembl>  (887) 
4.87

>  <InChI_steorem>  (887) 
InChI=1S/C24H19FN2O/c25-18-12-10-16(11-13-18)23-22-20(19-8-4-5-9-21(19)26-22)14-15-27(23)24(28)17-6-2-1-3-7-17/h1-13,23,26H,14-15H2

>  <source>  (887) 
ChEMBL28

>  <source_id>  (887) 
28

>  <optional_reference>  (887) 
10.1021/acs.jmedchem.6b00035

>  <optional_origin>  (887) 
None

>  <target>  (887) 
MDR1

$$$$

     RDKit          2D

 28 32  0  0  0  0  0  0  0  0999 V2000
    3.4407  -21.9527    0.0000 C   0  0  0  0  0  0  0  0  0  0  0  0
    3.4395  -22.7722    0.0000 C   0  0  0  0  0  0  0  0  0  0  0  0
    4.1476  -23.1812    0.0000 C   0  0  0  0  0  0  0  0  0  0  0  0
    4.8573  -22.7718    0.0000 C   0  0  0  0  0  0  0  0  0  0  0  0
    4.8544  -21.9491    0.0000 C   0  0  0  0  0  0  0  0  0  0  0  0
    4.1458  -21.5438    0.0000 C   0  0  0  0  0  0  0  0  0  0  0  0
    5.5633  -23.1784    0.0000 N   0  0  0  0  0  0  0  0  0  0  0  0
    5.5626  -23.9966    0.0000 C   0  0  0  0  0  0  0  0  0  0  0  0
    6.2669  -24.4040    0.0000 C   0  0  0  0  0  0  0  0  0  0  0  0
    6.9764  -23.9978    0.0000 N   0  0  0  0  0  0  0  0  0  0  0  0
    6.9771  -23.1796    0.0000 C   0  0  0  0  0  0  0  0  0  0  0  0
    6.2683  -22.7677    0.0000 C   0  0  0  0  0  0  0  0  0  0  0  0
    4.1474  -23.9984    0.0000 F   0  0  0  0  0  0  0  0  0  0  0  0
    7.6832  -24.4079    0.0000 C   0  0  0  0  0  0  0  0  0  0  0  0
    8.3918  -24.0009    0.0000 C   0  0  0  0  0  0  0  0  0  0  0  0
    9.1369  -24.3333    0.0000 N   0  0  0  0  0  0  0  0  0  0  0  0
    9.6850  -23.7272    0.0000 C   0  0  0  0  0  0  0  0  0  0  0  0
    9.2780  -23.0186    0.0000 S   0  0  0  0  0  0  0  0  0  0  0  0
    8.4783  -23.1868    0.0000 C   0  0  0  0  0  0  0  0  0  0  0  0
   10.4976  -23.8145    0.0000 C   0  0  0  0  0  0  0  0  0  0  0  0
   10.8242  -24.5643    0.0000 C   0  0  0  0  0  0  0  0  0  0  0  0
   11.7838  -23.2412    0.0000 C   0  0  0  0  0  0  0  0  0  0  0  0
   10.9730  -23.1574    0.0000 C   0  0  0  0  0  0  0  0  0  0  0  0
   12.1186  -23.9913    0.0000 C   0  0  0  0  0  0  0  0  0  0  0  0
   11.6403  -24.6532    0.0000 C   0  0  0  0  0  0  0  0  0  0  0  0
   12.1220  -25.3126    0.0000 O   0  0  0  0  0  0  0  0  0  0  0  0
   12.8981  -25.0583    0.0000 C   0  0  0  0  0  0  0  0  0  0  0  0
   12.8959  -24.2417    0.0000 O   0  0  0  0  0  0  0  0  0  0  0  0
  1  2  2  0
  2  3  1  0
  3  4  2  0
  4  5  1  0
  5  6  2  0
  6  1  1  0
  7  8  1  0
  7 12  1  0
  8  9  1  0
  9 10  1  0
 10 11  1  0
 11 12  1  0
  4  7  1  0
  3 13  1  0
 10 14  1  0
 14 15  1  0
 15 16  1  0
 16 17  2  0
 17 18  1  0
 18 19  1  0
 19 15  2  0
 17 20  1  0
 20 21  2  0
 21 25  1  0
 24 22  1  0
 22 23  2  0
 23 20  1  0
 24 25  2  0
 25 26  1  0
 26 27  1  0
 27 28  1  0
 28 24  1  0
M  END
>  <Classification>  (888) 
0

>  <pchembl>  (888) 
4.81

>  <InChI_steorem>  (888) 
InChI=1S/C21H20FN3O2S/c22-17-3-1-2-4-18(17)25-9-7-24(8-10-25)12-16-13-28-21(23-16)15-5-6-19-20(11-15)27-14-26-19/h1-6,11,13H,7-10,12,14H2

>  <source>  (888) 
ChEMBL28

>  <source_id>  (888) 
28

>  <optional_reference>  (888) 
10.1021/acs.jmedchem.8b01821

>  <optional_origin>  (888) 
None

>  <target>  (888) 
MDR1

$$$$

     RDKit          2D

 28 32  0  0  0  0  0  0  0  0999 V2000
    3.9483  -17.1197    0.0000 C   0  0  0  0  0  0  0  0  0  0  0  0
    3.9472  -17.9392    0.0000 C   0  0  0  0  0  0  0  0  0  0  0  0
    4.6552  -18.3482    0.0000 C   0  0  0  0  0  0  0  0  0  0  0  0
    4.6535  -16.7108    0.0000 C   0  0  0  0  0  0  0  0  0  0  0  0
    5.3621  -17.1161    0.0000 C   0  0  0  0  0  0  0  0  0  0  0  0
    5.3623  -17.9393    0.0000 C   0  0  0  0  0  0  0  0  0  0  0  0
    6.1453  -18.1935    0.0000 N   0  0  0  0  0  0  0  0  0  0  0  0
    6.1449  -16.8616    0.0000 C   0  0  0  0  0  0  0  0  0  0  0  0
    6.6291  -17.5287    0.0000 C   0  0  0  0  0  0  0  0  0  0  0  0
    7.4444  -17.4434    0.0000 C   0  0  0  0  0  0  0  0  0  0  0  0
    7.7818  -16.6920    0.0000 N   0  0  0  0  0  0  0  0  0  0  0  0
    7.2977  -16.0249    0.0000 C   0  0  0  0  0  0  0  0  0  0  0  0
    6.4760  -16.1092    0.0000 C   0  0  0  0  0  0  0  0  0  0  0  0
    8.5947  -16.6081    0.0000 C   0  0  0  0  0  0  0  0  0  0  0  0
    9.0738  -17.2701    0.0000 O   0  0  0  0  0  0  0  0  0  0  0  0
    8.9285  -15.8622    0.0000 C   0  0  0  0  0  0  0  0  0  0  0  0
    9.7416  -15.7823    0.0000 C   0  0  0  0  0  0  0  0  0  0  0  0
   10.0754  -15.0373    0.0000 C   0  0  0  0  0  0  0  0  0  0  0  0
    9.5961  -14.3743    0.0000 C   0  0  0  0  0  0  0  0  0  0  0  0
    8.7793  -14.4612    0.0000 C   0  0  0  0  0  0  0  0  0  0  0  0
    8.4493  -15.2065    0.0000 C   0  0  0  0  0  0  0  0  0  0  0  0
    7.9243  -18.1020    0.0000 C   0  0  0  0  0  0  0  0  0  0  0  0
    7.5889  -18.8484    0.0000 C   0  0  0  0  0  0  0  0  0  0  0  0
    8.0672  -19.5100    0.0000 C   0  0  0  0  0  0  0  0  0  0  0  0
    8.8810  -19.4265    0.0000 C   0  0  0  0  0  0  0  0  0  0  0  0
    9.2141  -18.6756    0.0000 C   0  0  0  0  0  0  0  0  0  0  0  0
    8.7337  -18.0172    0.0000 C   0  0  0  0  0  0  0  0  0  0  0  0
    7.7331  -20.2558    0.0000 Cl  0  0  0  0  0  0  0  0  0  0  0  0
  1  2  2  0
  2  3  1  0
  3  6  2  0
  5  4  2  0
  4  1  1  0
  5  6  1  0
  6  7  1  0
  7  9  1  0
  8  5  1  0
  8  9  2  0
  8 13  1  0
  9 10  1  0
 10 11  1  0
 11 12  1  0
 12 13  1  0
 11 14  1  0
 14 15  2  0
 14 16  1  0
 16 17  2  0
 17 18  1  0
 18 19  2  0
 19 20  1  0
 20 21  2  0
 21 16  1  0
 22 23  2  0
 23 24  1  0
 24 25  2  0
 25 26  1  0
 26 27  2  0
 27 22  1  0
 10 22  1  0
 24 28  1  0
M  END
>  <Classification>  (889) 
0

>  <pchembl>  (889) 
4.65

>  <InChI_steorem>  (889) 
InChI=1S/C24H19ClN2O/c25-18-10-6-9-17(15-18)23-22-20(19-11-4-5-12-21(19)26-22)13-14-27(23)24(28)16-7-2-1-3-8-16/h1-12,15,23,26H,13-14H2

>  <source>  (889) 
ChEMBL28

>  <source_id>  (889) 
28

>  <optional_reference>  (889) 
10.1021/acs.jmedchem.6b00035

>  <optional_origin>  (889) 
None

>  <target>  (889) 
MDR1

$$$$

     RDKit          2D

 29 30  0  0  0  0  0  0  0  0999 V2000
   28.4765   -9.4224    0.0000 C   0  0  0  0  0  0  0  0  0  0  0  0
   28.4753  -10.2420    0.0000 C   0  0  0  0  0  0  0  0  0  0  0  0
   29.1834  -10.6509    0.0000 C   0  0  0  0  0  0  0  0  0  0  0  0
   29.8930  -10.2415    0.0000 C   0  0  0  0  0  0  0  0  0  0  0  0
   29.8902   -9.4188    0.0000 C   0  0  0  0  0  0  0  0  0  0  0  0
   29.1816   -9.0136    0.0000 C   0  0  0  0  0  0  0  0  0  0  0  0
   30.5964   -9.0076    0.0000 C   0  0  0  0  0  0  0  0  0  0  0  0
   31.3056   -9.4135    0.0000 C   0  0  0  0  0  0  0  0  0  0  0  0
   32.0118   -9.0022    0.0000 C   0  0  0  0  0  0  0  0  0  0  0  0
   32.7210   -9.4082    0.0000 C   0  0  0  0  0  0  0  0  0  0  0  0
   32.7210  -10.2242    0.0000 C   0  0  0  0  0  0  0  0  0  0  0  0
   33.4294  -10.6301    0.0000 C   0  0  0  0  0  0  0  0  0  0  0  0
   34.1365  -10.2188    0.0000 C   0  0  0  0  0  0  0  0  0  0  0  0
   34.1308   -9.3974    0.0000 C   0  0  0  0  0  0  0  0  0  0  0  0
   33.4218   -8.9952    0.0000 C   0  0  0  0  0  0  0  0  0  0  0  0
   30.6014  -10.6490    0.0000 O   0  0  0  0  0  0  0  0  0  0  0  0
   27.7673  -10.6500    0.0000 O   0  0  0  0  0  0  0  0  0  0  0  0
   27.7687   -9.0140    0.0000 C   0  0  0  0  0  0  0  0  0  0  0  0
   29.1791   -8.1964    0.0000 O   0  0  0  0  0  0  0  0  0  0  0  0
   30.6027  -11.4662    0.0000 C   0  0  0  0  0  0  0  0  0  0  0  0
   30.5933   -8.1904    0.0000 O   0  0  0  0  0  0  0  0  0  0  0  0
   27.7666  -11.4672    0.0000 C   0  0  0  0  0  0  0  0  0  0  0  0
   27.0610   -9.4228    0.0000 C   0  0  0  0  0  0  0  0  0  0  0  0
   26.3532   -9.0143    0.0000 C   0  0  0  0  0  0  0  0  0  0  0  0
   25.6456   -9.4231    0.0000 C   0  0  0  0  0  0  0  0  0  0  0  0
   26.3530   -8.1971    0.0000 C   0  0  0  0  0  0  0  0  0  0  0  0
   34.8463  -10.6237    0.0000 N   0  0  0  0  0  0  0  0  0  0  0  0
   34.8505  -11.4409    0.0000 C   0  0  0  0  0  0  0  0  0  0  0  0
   35.5519  -10.2115    0.0000 C   0  0  0  0  0  0  0  0  0  0  0  0
  1  2  2  0
  2  3  1  0
  3  4  2  0
  4  5  1  0
  5  6  2  0
  6  1  1  0
  5  7  1  0
  7  8  1  0
  8  9  2  3
  9 10  1  0
 10 11  2  0
 11 12  1  0
 12 13  2  0
 13 14  1  0
 14 15  2  0
 15 10  1  0
  4 16  1  0
  2 17  1  0
  1 18  1  0
  6 19  1  0
 16 20  1  0
  7 21  2  0
 17 22  1  0
 18 23  1  0
 23 24  2  3
 24 25  1  0
 24 26  1  0
 13 27  1  0
 27 28  1  0
 27 29  1  0
M  END
>  <Classification>  (890) 
0

>  <pchembl>  (890) 
4.76

>  <InChI_steorem>  (890) 
InChI=1S/C24H29NO4/c1-16(2)7-13-19-21(28-5)15-22(29-6)23(24(19)27)20(26)14-10-17-8-11-18(12-9-17)25(3)4/h7-12,14-15,27H,13H2,1-6H3

>  <source>  (890) 
ChEMBL28

>  <source_id>  (890) 
28

>  <optional_reference>  (890) 
10.1016/j.ejmech.2019.05.053

>  <optional_origin>  (890) 
None

>  <target>  (890) 
MDR1

$$$$

     RDKit          2D

 29 30  0  0  0  0  0  0  0  0999 V2000
   40.6683  -16.8143    0.0000 C   0  0  0  0  0  0  0  0  0  0  0  0
   40.6671  -17.6338    0.0000 C   0  0  0  0  0  0  0  0  0  0  0  0
   41.3752  -18.0428    0.0000 C   0  0  0  0  0  0  0  0  0  0  0  0
   42.0849  -17.6334    0.0000 C   0  0  0  0  0  0  0  0  0  0  0  0
   42.0820  -16.8107    0.0000 C   0  0  0  0  0  0  0  0  0  0  0  0
   41.3734  -16.4054    0.0000 C   0  0  0  0  0  0  0  0  0  0  0  0
   42.7882  -16.3994    0.0000 C   0  0  0  0  0  0  0  0  0  0  0  0
   43.4974  -16.8054    0.0000 C   0  0  0  0  0  0  0  0  0  0  0  0
   44.2036  -16.3941    0.0000 C   0  0  0  0  0  0  0  0  0  0  0  0
   44.9128  -16.8000    0.0000 C   0  0  0  0  0  0  0  0  0  0  0  0
   44.9128  -17.6161    0.0000 C   0  0  0  0  0  0  0  0  0  0  0  0
   45.6212  -18.0219    0.0000 C   0  0  0  0  0  0  0  0  0  0  0  0
   46.3284  -17.6106    0.0000 C   0  0  0  0  0  0  0  0  0  0  0  0
   46.3227  -16.7892    0.0000 C   0  0  0  0  0  0  0  0  0  0  0  0
   45.6137  -16.3871    0.0000 C   0  0  0  0  0  0  0  0  0  0  0  0
   42.7932  -18.0408    0.0000 O   0  0  0  0  0  0  0  0  0  0  0  0
   39.9591  -18.0419    0.0000 O   0  0  0  0  0  0  0  0  0  0  0  0
   39.9605  -16.4059    0.0000 C   0  0  0  0  0  0  0  0  0  0  0  0
   41.3710  -15.5882    0.0000 O   0  0  0  0  0  0  0  0  0  0  0  0
   42.7945  -18.8580    0.0000 C   0  0  0  0  0  0  0  0  0  0  0  0
   42.7851  -15.5822    0.0000 O   0  0  0  0  0  0  0  0  0  0  0  0
   39.9585  -18.8591    0.0000 C   0  0  0  0  0  0  0  0  0  0  0  0
   39.2529  -16.8146    0.0000 C   0  0  0  0  0  0  0  0  0  0  0  0
   38.5451  -16.4062    0.0000 C   0  0  0  0  0  0  0  0  0  0  0  0
   37.8375  -16.8150    0.0000 C   0  0  0  0  0  0  0  0  0  0  0  0
   38.5449  -15.5890    0.0000 C   0  0  0  0  0  0  0  0  0  0  0  0
   45.6241  -18.8423    0.0000 N   0  0  0  0  0  0  0  0  0  0  0  0
   46.3331  -19.2486    0.0000 O   0  0  0  0  0  0  0  0  0  0  0  0
   44.9177  -19.2532    0.0000 O   0  0  0  0  0  0  0  0  0  0  0  0
  1  2  2  0
  2  3  1  0
  3  4  2  0
  4  5  1  0
  5  6  2  0
  6  1  1  0
  5  7  1  0
  7  8  1  0
  8  9  2  3
  9 10  1  0
 10 11  2  0
 11 12  1  0
 12 13  2  0
 13 14  1  0
 14 15  2  0
 15 10  1  0
  4 16  1  0
  2 17  1  0
  1 18  1  0
  6 19  1  0
 16 20  1  0
  7 21  2  0
 17 22  1  0
 18 23  1  0
 23 24  2  3
 24 25  1  0
 24 26  1  0
 27 28  2  0
 27 29  1  0
 12 27  1  0
M  CHG  2  27   1  29  -1
M  END
>  <Classification>  (891) 
1

>  <pchembl>  (891) 
5.05

>  <InChI_steorem>  (891) 
InChI=1S/C22H23NO6/c1-14(2)8-10-17-19(28-3)13-20(29-4)21(22(17)25)18(24)11-9-15-6-5-7-16(12-15)23(26)27/h5-9,11-13,25H,10H2,1-4H3

>  <source>  (891) 
ChEMBL28

>  <source_id>  (891) 
28

>  <optional_reference>  (891) 
10.1016/j.ejmech.2019.05.053

>  <optional_origin>  (891) 
None

>  <target>  (891) 
MDR1

$$$$

     RDKit          2D

 29 31  0  0  0  0  0  0  0  0999 V2000
    6.2902  -11.3521    0.0000 C   0  0  0  0  0  0  0  0  0  0  0  0
    6.2902  -12.1723    0.0000 C   0  0  0  0  0  0  0  0  0  0  0  0
    7.0028  -12.5822    0.0000 C   0  0  0  0  0  0  0  0  0  0  0  0
    7.7099  -12.1668    0.0000 C   0  0  0  0  0  0  0  0  0  0  0  0
    7.7042  -11.3413    0.0000 C   0  0  0  0  0  0  0  0  0  0  0  0
    6.9952  -10.9391    0.0000 C   0  0  0  0  0  0  0  0  0  0  0  0
    8.4237  -12.5802    0.0000 N   0  0  0  0  0  0  0  0  0  0  0  0
    8.4259  -13.4024    0.0000 C   0  0  0  0  0  0  0  0  0  0  0  0
    9.1357  -13.8073    0.0000 C   0  0  0  0  0  0  0  0  0  0  0  0
    9.8479  -13.3986    0.0000 N   0  0  0  0  0  0  0  0  0  0  0  0
    9.8457  -12.5763    0.0000 C   0  0  0  0  0  0  0  0  0  0  0  0
    9.1313  -12.1628    0.0000 C   0  0  0  0  0  0  0  0  0  0  0  0
    5.5791  -12.5862    0.0000 C   0  0  0  0  0  0  0  0  0  0  0  0
    4.8665  -12.1746    0.0000 C   0  0  0  0  0  0  0  0  0  0  0  0
    4.1554  -12.5885    0.0000 C   0  0  0  0  0  0  0  0  0  0  0  0
    3.4429  -12.1770    0.0000 C   0  0  0  0  0  0  0  0  0  0  0  0
    4.1568  -13.4098    0.0000 O   0  0  0  0  0  0  0  0  0  0  0  0
    3.4450  -11.3562    0.0000 C   0  0  0  0  0  0  0  0  0  0  0  0
    2.7334  -10.9489    0.0000 C   0  0  0  0  0  0  0  0  0  0  0  0
    2.0212  -11.3587    0.0000 C   0  0  0  0  0  0  0  0  0  0  0  0
    2.0252  -12.1843    0.0000 C   0  0  0  0  0  0  0  0  0  0  0  0
    2.7375  -12.5920    0.0000 C   0  0  0  0  0  0  0  0  0  0  0  0
    2.7424  -13.4133    0.0000 O   0  0  0  0  0  0  0  0  0  0  0  0
    2.0330  -13.8262    0.0000 C   0  0  0  0  0  0  0  0  0  0  0  0
    1.3123  -10.9523    0.0000 O   0  0  0  0  0  0  0  0  0  0  0  0
    1.3099  -10.1309    0.0000 C   0  0  0  0  0  0  0  0  0  0  0  0
    4.1572  -10.9481    0.0000 O   0  0  0  0  0  0  0  0  0  0  0  0
    2.7324  -10.1276    0.0000 C   0  0  0  0  0  0  0  0  0  0  0  0
    3.4438   -9.7140    0.0000 C   0  0  0  0  0  0  0  0  0  0  0  0
  1  2  2  0
  2  3  1  0
  3  4  2  0
  4  5  1  0
  5  6  2  0
  6  1  1  0
  7  8  1  0
  7 12  1  0
  8  9  1  0
  9 10  1  0
 10 11  1  0
 11 12  1  0
  4  7  1  0
  2 13  1  0
 13 14  2  3
 14 15  1  0
 15 16  1  0
 15 17  2  0
 16 18  2  0
 18 19  1  0
 19 20  2  0
 20 21  1  0
 21 22  2  0
 22 16  1  0
 22 23  1  0
 23 24  1  0
 20 25  1  0
 25 26  1  0
 18 27  1  0
 19 28  1  0
 28 29  1  0
M  END
>  <Classification>  (892) 
1

>  <pchembl>  (892) 
5.33

>  <InChI_steorem>  (892) 
InChI=1S/C23H28N2O4/c1-4-18-20(28-2)15-21(29-3)22(23(18)27)19(26)9-8-16-6-5-7-17(14-16)25-12-10-24-11-13-25/h5-9,14-15,24,27H,4,10-13H2,1-3H3

>  <source>  (892) 
ChEMBL28

>  <source_id>  (892) 
28

>  <optional_reference>  (892) 
10.1016/j.ejmech.2019.05.053

>  <optional_origin>  (892) 
None

>  <target>  (892) 
MDR1

$$$$

     RDKit          2D

 29 32  0  0  0  0  0  0  0  0999 V2000
   24.3189  -10.7755    0.0000 O   0  0  0  0  0  0  0  0  0  0  0  0
   25.0254  -10.3649    0.0000 C   0  0  0  0  0  0  0  0  0  0  0  0
   25.7336  -10.7726    0.0000 C   0  0  0  0  0  0  0  0  0  0  0  0
   25.7238   -9.1382    0.0000 C   0  0  0  0  0  0  0  0  0  0  0  0
   25.0207   -9.5505    0.0000 C   0  0  0  0  0  0  0  0  0  0  0  0
   26.4377   -9.5446    0.0000 C   0  0  0  0  0  0  0  0  0  0  0  0
   26.4356  -10.3597    0.0000 C   0  0  0  0  0  0  0  0  0  0  0  0
   27.1366  -10.7667    0.0000 O   0  0  0  0  0  0  0  0  0  0  0  0
   27.8442  -10.3632    0.0000 C   0  0  0  0  0  0  0  0  0  0  0  0
   27.8462   -9.5480    0.0000 C   0  0  0  0  0  0  0  0  0  0  0  0
   27.1407   -9.1365    0.0000 C   0  0  0  0  0  0  0  0  0  0  0  0
   28.5503  -10.7745    0.0000 O   0  0  0  0  0  0  0  0  0  0  0  0
   28.5553   -9.1419    0.0000 C   0  0  0  0  0  0  0  0  0  0  0  0
   27.1416   -8.3193    0.0000 C   0  0  0  0  0  0  0  0  0  0  0  0
   17.2406  -10.7703    0.0000 C   0  0  0  0  0  0  0  0  0  0  0  0
   17.2395  -11.5898    0.0000 C   0  0  0  0  0  0  0  0  0  0  0  0
   17.9475  -11.9988    0.0000 C   0  0  0  0  0  0  0  0  0  0  0  0
   17.9457  -10.3614    0.0000 C   0  0  0  0  0  0  0  0  0  0  0  0
   18.6544  -10.7667    0.0000 C   0  0  0  0  0  0  0  0  0  0  0  0
   18.6532  -11.5873    0.0000 C   0  0  0  0  0  0  0  0  0  0  0  0
   19.3594  -11.9964    0.0000 C   0  0  0  0  0  0  0  0  0  0  0  0
   20.0713  -11.5893    0.0000 C   0  0  0  0  0  0  0  0  0  0  0  0
   20.0724  -10.7687    0.0000 N   0  0  0  0  0  0  0  0  0  0  0  0
   19.3617  -10.3551    0.0000 C   0  0  0  0  0  0  0  0  0  0  0  0
   20.7811  -10.3618    0.0000 C   0  0  0  0  0  0  0  0  0  0  0  0
   21.4878  -10.7721    0.0000 C   0  0  0  0  0  0  0  0  0  0  0  0
   22.1965  -10.3652    0.0000 C   0  0  0  0  0  0  0  0  0  0  0  0
   22.9033  -10.7755    0.0000 C   0  0  0  0  0  0  0  0  0  0  0  0
   23.6120  -10.3687    0.0000 C   0  0  0  0  0  0  0  0  0  0  0  0
  1  2  1  0
  2  3  2  0
  3  7  1  0
  6  4  1  0
  4  5  2  0
  5  2  1  0
  6  7  2  0
  6 11  1  0
  7  8  1  0
  8  9  1  0
  9 10  1  0
 10 11  2  0
  9 12  2  0
 10 13  1  0
 11 14  1  0
 15 16  2  0
 16 17  1  0
 17 20  2  0
 19 18  2  0
 18 15  1  0
 19 20  1  0
 19 24  1  0
 20 21  1  0
 21 22  1  0
 22 23  1  0
 23 24  1  0
 23 25  1  0
 25 26  1  0
 26 27  1  0
 27 28  1  0
 28 29  1  0
 29  1  1  0
M  END
>  <Classification>  (893) 
1

>  <pchembl>  (893) 
6.26

>  <InChI_steorem>  (893) 
InChI=1S/C25H29NO3/c1-18-19(2)25(27)29-24-16-22(10-11-23(18)24)28-15-7-3-6-13-26-14-12-20-8-4-5-9-21(20)17-26/h4-5,8-11,16H,3,6-7,12-15,17H2,1-2H3

>  <source>  (893) 
ChEMBL28

>  <source_id>  (893) 
28

>  <optional_reference>  (893) 
10.1016/j.ejmech.2018.10.043

>  <optional_origin>  (893) 
None

>  <target>  (893) 
MDR1

$$$$

     RDKit          2D

 29 32  0  0  0  0  0  0  0  0999 V2000
   38.2167  -14.2967    0.0000 C   0  0  0  0  0  0  0  0  0  0  0  0
   38.2156  -15.1162    0.0000 C   0  0  0  0  0  0  0  0  0  0  0  0
   38.9236  -15.5252    0.0000 C   0  0  0  0  0  0  0  0  0  0  0  0
   39.6333  -15.1157    0.0000 C   0  0  0  0  0  0  0  0  0  0  0  0
   39.6305  -14.2931    0.0000 C   0  0  0  0  0  0  0  0  0  0  0  0
   38.9218  -13.8878    0.0000 C   0  0  0  0  0  0  0  0  0  0  0  0
   40.3416  -15.5232    0.0000 C   0  0  0  0  0  0  0  0  0  0  0  0
   40.3366  -13.8818    0.0000 N   0  0  0  0  0  0  0  0  0  0  0  0
   41.0840  -14.2089    0.0000 C   0  0  0  0  0  0  0  0  0  0  0  0
   41.6285  -13.5995    0.0000 N   0  0  0  0  0  0  0  0  0  0  0  0
   41.2172  -12.8933    0.0000 N   0  0  0  0  0  0  0  0  0  0  0  0
   40.4186  -13.0663    0.0000 N   0  0  0  0  0  0  0  0  0  0  0  0
   41.2580  -15.0073    0.0000 S   0  0  0  0  0  0  0  0  0  0  0  0
   42.0364  -15.2559    0.0000 C   0  0  0  0  0  0  0  0  0  0  0  0
   42.2104  -16.0544    0.0000 C   0  0  0  0  0  0  0  0  0  0  0  0
   42.9889  -16.3029    0.0000 N   0  0  0  0  0  0  0  0  0  0  0  0
   41.6059  -16.6042    0.0000 O   0  0  0  0  0  0  0  0  0  0  0  0
   43.1570  -17.1032    0.0000 C   0  0  0  0  0  0  0  0  0  0  0  0
   43.9315  -17.3526    0.0000 C   0  0  0  0  0  0  0  0  0  0  0  0
   44.5390  -16.8056    0.0000 N   0  0  0  0  0  0  0  0  0  0  0  0
   44.3668  -16.0058    0.0000 C   0  0  0  0  0  0  0  0  0  0  0  0
   43.5870  -15.7529    0.0000 C   0  0  0  0  0  0  0  0  0  0  0  0
   45.3166  -17.0571    0.0000 C   0  0  0  0  0  0  0  0  0  0  0  0
   45.4875  -17.8562    0.0000 C   0  0  0  0  0  0  0  0  0  0  0  0
   44.8787  -18.4003    0.0000 C   0  0  0  0  0  0  0  0  0  0  0  0
   45.0492  -19.1987    0.0000 C   0  0  0  0  0  0  0  0  0  0  0  0
   45.8274  -19.4509    0.0000 C   0  0  0  0  0  0  0  0  0  0  0  0
   46.4354  -18.8985    0.0000 C   0  0  0  0  0  0  0  0  0  0  0  0
   46.2618  -18.1021    0.0000 C   0  0  0  0  0  0  0  0  0  0  0  0
  1  2  2  0
  2  3  1  0
  3  4  2  0
  4  5  1  0
  5  6  2  0
  6  1  1  0
  4  7  1  0
  5  8  1  0
  8  9  1  0
  9 10  2  0
 10 11  1  0
 11 12  2  0
 12  8  1  0
  9 13  1  0
 13 14  1  0
 14 15  1  0
 15 16  1  0
 15 17  2  0
 16 18  1  0
 16 22  1  0
 18 19  1  0
 19 20  1  0
 20 21  1  0
 21 22  1  0
 20 23  1  0
 23 24  1  0
 24 25  2  0
 25 26  1  0
 26 27  2  0
 27 28  1  0
 28 29  2  0
 29 24  1  0
M  END
>  <Classification>  (894) 
0

>  <pchembl>  (894) 
4.58

>  <InChI_steorem>  (894) 
InChI=1S/C21H24N6OS/c1-17-7-5-6-10-19(17)27-21(22-23-24-27)29-16-20(28)26-13-11-25(12-14-26)15-18-8-3-2-4-9-18/h2-10H,11-16H2,1H3

>  <source>  (894) 
ChEMBL28

>  <source_id>  (894) 
28

>  <optional_reference>  (894) 
10.1021/acs.jmedchem.8b01821

>  <optional_origin>  (894) 
None

>  <target>  (894) 
MDR1

$$$$

     RDKit          2D

 29 33  0  0  0  0  0  0  0  0999 V2000
   12.9044  -19.9303    0.0000 C   0  0  0  0  0  0  0  0  0  0  0  0
   12.9033  -20.7499    0.0000 C   0  0  0  0  0  0  0  0  0  0  0  0
   13.6113  -21.1589    0.0000 C   0  0  0  0  0  0  0  0  0  0  0  0
   13.6095  -19.5215    0.0000 C   0  0  0  0  0  0  0  0  0  0  0  0
   14.3182  -19.9267    0.0000 C   0  0  0  0  0  0  0  0  0  0  0  0
   14.3184  -20.7499    0.0000 C   0  0  0  0  0  0  0  0  0  0  0  0
   15.1014  -21.0041    0.0000 N   0  0  0  0  0  0  0  0  0  0  0  0
   15.1010  -19.6722    0.0000 C   0  0  0  0  0  0  0  0  0  0  0  0
   15.5852  -20.3393    0.0000 C   0  0  0  0  0  0  0  0  0  0  0  0
   16.4005  -20.2540    0.0000 C   0  0  0  0  0  0  0  0  0  0  0  0
   16.7379  -19.5026    0.0000 N   0  0  0  0  0  0  0  0  0  0  0  0
   16.2537  -18.8355    0.0000 C   0  0  0  0  0  0  0  0  0  0  0  0
   15.4321  -18.9198    0.0000 C   0  0  0  0  0  0  0  0  0  0  0  0
   17.5508  -19.4187    0.0000 C   0  0  0  0  0  0  0  0  0  0  0  0
   18.0299  -20.0808    0.0000 O   0  0  0  0  0  0  0  0  0  0  0  0
   17.8846  -18.6728    0.0000 C   0  0  0  0  0  0  0  0  0  0  0  0
   18.6977  -18.5930    0.0000 C   0  0  0  0  0  0  0  0  0  0  0  0
   19.0315  -17.8479    0.0000 C   0  0  0  0  0  0  0  0  0  0  0  0
   18.5522  -17.1849    0.0000 C   0  0  0  0  0  0  0  0  0  0  0  0
   17.7354  -17.2719    0.0000 C   0  0  0  0  0  0  0  0  0  0  0  0
   17.4054  -18.0171    0.0000 C   0  0  0  0  0  0  0  0  0  0  0  0
   16.8804  -20.9127    0.0000 C   0  0  0  0  0  0  0  0  0  0  0  0
   16.5449  -21.6591    0.0000 C   0  0  0  0  0  0  0  0  0  0  0  0
   17.0233  -22.3207    0.0000 C   0  0  0  0  0  0  0  0  0  0  0  0
   17.8371  -22.2371    0.0000 C   0  0  0  0  0  0  0  0  0  0  0  0
   18.1702  -21.4863    0.0000 C   0  0  0  0  0  0  0  0  0  0  0  0
   17.6898  -20.8278    0.0000 C   0  0  0  0  0  0  0  0  0  0  0  0
   18.9805  -21.3954    0.0000 C   0  0  0  0  0  0  0  0  0  0  0  0
   19.7931  -21.3086    0.0000 N   0  0  0  0  0  0  0  0  0  0  0  0
  1  2  2  0
  2  3  1  0
  3  6  2  0
  5  4  2  0
  4  1  1  0
  5  6  1  0
  6  7  1  0
  7  9  1  0
  8  5  1  0
  8  9  2  0
  8 13  1  0
  9 10  1  0
 10 11  1  0
 11 12  1  0
 12 13  1  0
 11 14  1  0
 14 15  2  0
 14 16  1  0
 16 17  2  0
 17 18  1  0
 18 19  2  0
 19 20  1  0
 20 21  2  0
 21 16  1  0
 22 23  2  0
 23 24  1  0
 24 25  2  0
 25 26  1  0
 26 27  2  0
 27 22  1  0
 10 22  1  0
 28 29  3  0
 26 28  1  0
M  END
>  <Classification>  (895) 
1

>  <pchembl>  (895) 
5.18

>  <InChI_steorem>  (895) 
InChI=1S/C25H19N3O/c26-16-17-7-6-10-19(15-17)24-23-21(20-11-4-5-12-22(20)27-23)13-14-28(24)25(29)18-8-2-1-3-9-18/h1-12,15,24,27H,13-14H2

>  <source>  (895) 
ChEMBL28

>  <source_id>  (895) 
28

>  <optional_reference>  (895) 
10.1021/acs.jmedchem.6b00035

>  <optional_origin>  (895) 
None

>  <target>  (895) 
MDR1

$$$$

     RDKit          2D

 29 33  0  0  0  0  0  0  0  0999 V2000
   16.6891  -24.2970    0.0000 C   0  0  0  0  0  0  0  0  0  0  0  0
   16.6880  -25.1165    0.0000 C   0  0  0  0  0  0  0  0  0  0  0  0
   17.3960  -25.5255    0.0000 C   0  0  0  0  0  0  0  0  0  0  0  0
   17.3942  -23.8881    0.0000 N   0  0  0  0  0  0  0  0  0  0  0  0
   18.1033  -24.2924    0.0000 C   0  0  0  0  0  0  0  0  0  0  0  0
   18.1036  -25.1124    0.0000 C   0  0  0  0  0  0  0  0  0  0  0  0
   18.8831  -24.0389    0.0000 S   0  0  0  0  0  0  0  0  0  0  0  0
   19.3653  -24.7020    0.0000 C   0  0  0  0  0  0  0  0  0  0  0  0
   18.8811  -25.3621    0.0000 C   0  0  0  0  0  0  0  0  0  0  0  0
   19.2108  -26.1093    0.0000 N   0  0  0  0  0  0  0  0  0  0  0  0
   20.0244  -26.1976    0.0000 C   0  0  0  0  0  0  0  0  0  0  0  0
   20.5072  -25.5327    0.0000 N   0  0  0  0  0  0  0  0  0  0  0  0
   20.1748  -24.7882    0.0000 C   0  0  0  0  0  0  0  0  0  0  0  0
   15.9813  -23.8885    0.0000 C   0  0  0  0  0  0  0  0  0  0  0  0
   17.3979  -26.3426    0.0000 C   0  0  0  0  0  0  0  0  0  0  0  0
   20.6553  -24.1271    0.0000 N   0  0  0  0  0  0  0  0  0  0  0  0
   21.4646  -24.2172    0.0000 C   0  0  0  0  0  0  0  0  0  0  0  0
   21.9446  -23.5602    0.0000 C   0  0  0  0  0  0  0  0  0  0  0  0
   21.6160  -22.8116    0.0000 N   0  0  0  0  0  0  0  0  0  0  0  0
   20.8026  -22.7240    0.0000 C   0  0  0  0  0  0  0  0  0  0  0  0
   20.3177  -23.3850    0.0000 C   0  0  0  0  0  0  0  0  0  0  0  0
   22.0990  -22.1524    0.0000 C   0  0  0  0  0  0  0  0  0  0  0  0
   22.9114  -22.2410    0.0000 C   0  0  0  0  0  0  0  0  0  0  0  0
   23.2363  -22.9882    0.0000 C   0  0  0  0  0  0  0  0  0  0  0  0
   24.0478  -23.0771    0.0000 C   0  0  0  0  0  0  0  0  0  0  0  0
   24.5317  -22.4175    0.0000 C   0  0  0  0  0  0  0  0  0  0  0  0
   24.1981  -21.6668    0.0000 C   0  0  0  0  0  0  0  0  0  0  0  0
   23.3875  -21.5815    0.0000 C   0  0  0  0  0  0  0  0  0  0  0  0
   22.7516  -23.6462    0.0000 Cl  0  0  0  0  0  0  0  0  0  0  0  0
  1  2  2  0
  2  3  1  0
  3  6  2  0
  5  4  2  0
  4  1  1  0
  5  6  1  0
  6  9  1  0
  8  7  1  0
  7  5  1  0
  8  9  2  0
  9 10  1  0
 10 11  2  0
 11 12  1  0
 12 13  2  0
 13  8  1  0
  1 14  1  0
  3 15  1  0
 13 16  1  0
 16 17  1  0
 16 21  1  0
 17 18  1  0
 18 19  1  0
 19 20  1  0
 20 21  1  0
 19 22  1  0
 22 23  1  0
 23 24  2  0
 24 25  1  0
 25 26  2  0
 26 27  1  0
 27 28  2  0
 28 23  1  0
 24 29  1  0
M  END
>  <Classification>  (896) 
1

>  <pchembl>  (896) 
5.55

>  <InChI_steorem>  (896) 
InChI=1S/C22H22ClN5S/c1-14-11-15(2)26-22-18(14)19-20(29-22)21(25-13-24-19)28-9-7-27(8-10-28)12-16-5-3-4-6-17(16)23/h3-6,11,13H,7-10,12H2,1-2H3

>  <source>  (896) 
ChEMBL28

>  <source_id>  (896) 
28

>  <optional_reference>  (896) 
10.1021/acs.jmedchem.8b01821

>  <optional_origin>  (896) 
None

>  <target>  (896) 
MDR1

$$$$

     RDKit          2D

 29 33  0  0  0  0  0  0  0  0999 V2000
   25.2366  -19.2452    0.0000 C   0  0  0  0  0  0  0  0  0  0  0  0
   25.2354  -20.0648    0.0000 C   0  0  0  0  0  0  0  0  0  0  0  0
   25.9435  -20.4737    0.0000 C   0  0  0  0  0  0  0  0  0  0  0  0
   25.9417  -18.8364    0.0000 C   0  0  0  0  0  0  0  0  0  0  0  0
   26.6503  -19.2416    0.0000 C   0  0  0  0  0  0  0  0  0  0  0  0
   26.6506  -20.0648    0.0000 C   0  0  0  0  0  0  0  0  0  0  0  0
   27.4335  -20.3190    0.0000 N   0  0  0  0  0  0  0  0  0  0  0  0
   27.4331  -18.9871    0.0000 C   0  0  0  0  0  0  0  0  0  0  0  0
   27.9173  -19.6542    0.0000 C   0  0  0  0  0  0  0  0  0  0  0  0
   28.7326  -19.5689    0.0000 C   0  0  0  0  0  0  0  0  0  0  0  0
   29.0701  -18.8175    0.0000 N   0  0  0  0  0  0  0  0  0  0  0  0
   28.5859  -18.1504    0.0000 C   0  0  0  0  0  0  0  0  0  0  0  0
   27.7642  -18.2347    0.0000 C   0  0  0  0  0  0  0  0  0  0  0  0
   29.8830  -18.7336    0.0000 C   0  0  0  0  0  0  0  0  0  0  0  0
   30.3621  -19.3956    0.0000 O   0  0  0  0  0  0  0  0  0  0  0  0
   30.2167  -17.9877    0.0000 C   0  0  0  0  0  0  0  0  0  0  0  0
   31.0299  -17.9079    0.0000 C   0  0  0  0  0  0  0  0  0  0  0  0
   31.3636  -17.1628    0.0000 C   0  0  0  0  0  0  0  0  0  0  0  0
   30.8844  -16.4998    0.0000 C   0  0  0  0  0  0  0  0  0  0  0  0
   30.0676  -16.5867    0.0000 C   0  0  0  0  0  0  0  0  0  0  0  0
   29.7375  -17.3320    0.0000 C   0  0  0  0  0  0  0  0  0  0  0  0
   29.2126  -20.2276    0.0000 C   0  0  0  0  0  0  0  0  0  0  0  0
   28.8771  -20.9739    0.0000 C   0  0  0  0  0  0  0  0  0  0  0  0
   29.3555  -21.6356    0.0000 C   0  0  0  0  0  0  0  0  0  0  0  0
   30.1693  -21.5520    0.0000 C   0  0  0  0  0  0  0  0  0  0  0  0
   30.5024  -20.8012    0.0000 C   0  0  0  0  0  0  0  0  0  0  0  0
   30.0220  -20.1427    0.0000 C   0  0  0  0  0  0  0  0  0  0  0  0
   27.6859  -21.0962    0.0000 C   0  0  0  0  0  0  0  0  0  0  0  0
   27.1389  -21.7034    0.0000 C   0  0  0  0  0  0  0  0  0  0  0  0
  1  2  2  0
  2  3  1  0
  3  6  2  0
  5  4  2  0
  4  1  1  0
  5  6  1  0
  6  7  1  0
  7  9  1  0
  8  5  1  0
  8  9  2  0
  8 13  1  0
  9 10  1  0
 10 11  1  0
 11 12  1  0
 12 13  1  0
 11 14  1  0
 14 15  2  0
 14 16  1  0
 16 17  2  0
 17 18  1  0
 18 19  2  0
 19 20  1  0
 20 21  2  0
 21 16  1  0
 22 23  2  0
 23 24  1  0
 24 25  2  0
 25 26  1  0
 26 27  2  0
 27 22  1  0
 10 22  1  0
  7 28  1  0
 28 29  1  0
M  END
>  <Classification>  (897) 
1

>  <pchembl>  (897) 
5.04

>  <InChI_steorem>  (897) 
InChI=1S/C26H24N2O/c1-2-27-23-16-10-9-15-21(23)22-17-18-28(26(29)20-13-7-4-8-14-20)24(25(22)27)19-11-5-3-6-12-19/h3-16,24H,2,17-18H2,1H3

>  <source>  (897) 
ChEMBL28

>  <source_id>  (897) 
28

>  <optional_reference>  (897) 
10.1021/acs.jmedchem.6b00035

>  <optional_origin>  (897) 
None

>  <target>  (897) 
MDR1

$$$$

     RDKit          2D

 29 33  0  0  0  0  0  0  0  0999 V2000
    2.7886  -14.1110    0.0000 C   0  0  0  0  0  0  0  0  0  0  0  0
    2.7874  -14.9305    0.0000 C   0  0  0  0  0  0  0  0  0  0  0  0
    3.4955  -15.3395    0.0000 C   0  0  0  0  0  0  0  0  0  0  0  0
    3.4937  -13.7021    0.0000 C   0  0  0  0  0  0  0  0  0  0  0  0
    4.2023  -14.1074    0.0000 C   0  0  0  0  0  0  0  0  0  0  0  0
    4.2026  -14.9305    0.0000 C   0  0  0  0  0  0  0  0  0  0  0  0
    4.9855  -15.1847    0.0000 N   0  0  0  0  0  0  0  0  0  0  0  0
    4.9851  -13.8528    0.0000 C   0  0  0  0  0  0  0  0  0  0  0  0
    5.4693  -14.5199    0.0000 C   0  0  0  0  0  0  0  0  0  0  0  0
    6.2846  -14.4346    0.0000 C   0  0  0  0  0  0  0  0  0  0  0  0
    6.6221  -13.6832    0.0000 N   0  0  0  0  0  0  0  0  0  0  0  0
    6.1379  -13.0161    0.0000 C   0  0  0  0  0  0  0  0  0  0  0  0
    5.3162  -13.1004    0.0000 C   0  0  0  0  0  0  0  0  0  0  0  0
    7.4350  -13.5994    0.0000 C   0  0  0  0  0  0  0  0  0  0  0  0
    7.9141  -14.2614    0.0000 O   0  0  0  0  0  0  0  0  0  0  0  0
    7.7687  -12.8534    0.0000 C   0  0  0  0  0  0  0  0  0  0  0  0
    8.5819  -12.7736    0.0000 C   0  0  0  0  0  0  0  0  0  0  0  0
    8.9156  -12.0285    0.0000 C   0  0  0  0  0  0  0  0  0  0  0  0
    8.4364  -11.3655    0.0000 C   0  0  0  0  0  0  0  0  0  0  0  0
    7.6196  -11.4525    0.0000 C   0  0  0  0  0  0  0  0  0  0  0  0
    7.2895  -12.1977    0.0000 C   0  0  0  0  0  0  0  0  0  0  0  0
    6.7646  -15.0933    0.0000 C   0  0  0  0  0  0  0  0  0  0  0  0
    6.4291  -15.8397    0.0000 C   0  0  0  0  0  0  0  0  0  0  0  0
    6.9075  -16.5013    0.0000 C   0  0  0  0  0  0  0  0  0  0  0  0
    7.7213  -16.4177    0.0000 C   0  0  0  0  0  0  0  0  0  0  0  0
    8.0544  -15.6669    0.0000 C   0  0  0  0  0  0  0  0  0  0  0  0
    7.5740  -15.0084    0.0000 C   0  0  0  0  0  0  0  0  0  0  0  0
    8.8669  -15.5801    0.0000 O   0  0  0  0  0  0  0  0  0  0  0  0
    9.3484  -16.2404    0.0000 C   0  0  0  0  0  0  0  0  0  0  0  0
  1  2  2  0
  2  3  1  0
  3  6  2  0
  5  4  2  0
  4  1  1  0
  5  6  1  0
  6  7  1  0
  7  9  1  0
  8  5  1  0
  8  9  2  0
  8 13  1  0
  9 10  1  0
 10 11  1  0
 11 12  1  0
 12 13  1  0
 11 14  1  0
 14 15  2  0
 14 16  1  0
 16 17  2  0
 17 18  1  0
 18 19  2  0
 19 20  1  0
 20 21  2  0
 21 16  1  0
 22 23  2  0
 23 24  1  0
 24 25  2  0
 25 26  1  0
 26 27  2  0
 27 22  1  0
 10 22  1  0
 26 28  1  0
 28 29  1  0
M  END
>  <Classification>  (898) 
1

>  <pchembl>  (898) 
5.21

>  <InChI_steorem>  (898) 
InChI=1S/C25H22N2O2/c1-29-19-11-7-10-18(16-19)24-23-21(20-12-5-6-13-22(20)26-23)14-15-27(24)25(28)17-8-3-2-4-9-17/h2-13,16,24,26H,14-15H2,1H3

>  <source>  (898) 
ChEMBL28

>  <source_id>  (898) 
28

>  <optional_reference>  (898) 
10.1021/acs.jmedchem.6b00035

>  <optional_origin>  (898) 
None

>  <target>  (898) 
MDR1

$$$$

     RDKit          2D

 29 33  0  0  0  0  0  0  0  0999 V2000
   31.6173  -12.0845    0.0000 C   0  0  0  0  0  0  0  0  0  0  0  0
   31.6161  -12.9040    0.0000 C   0  0  0  0  0  0  0  0  0  0  0  0
   32.3242  -13.3130    0.0000 C   0  0  0  0  0  0  0  0  0  0  0  0
   32.3224  -11.6756    0.0000 C   0  0  0  0  0  0  0  0  0  0  0  0
   33.0310  -12.0809    0.0000 C   0  0  0  0  0  0  0  0  0  0  0  0
   33.0313  -12.9041    0.0000 C   0  0  0  0  0  0  0  0  0  0  0  0
   33.8142  -13.1582    0.0000 N   0  0  0  0  0  0  0  0  0  0  0  0
   33.8138  -11.8263    0.0000 C   0  0  0  0  0  0  0  0  0  0  0  0
   34.2980  -12.4935    0.0000 C   0  0  0  0  0  0  0  0  0  0  0  0
   35.1133  -12.4082    0.0000 C   0  0  0  0  0  0  0  0  0  0  0  0
   35.4508  -11.6568    0.0000 N   0  0  0  0  0  0  0  0  0  0  0  0
   34.9666  -10.9897    0.0000 C   0  0  0  0  0  0  0  0  0  0  0  0
   34.1449  -11.0739    0.0000 C   0  0  0  0  0  0  0  0  0  0  0  0
   36.2637  -11.5729    0.0000 C   0  0  0  0  0  0  0  0  0  0  0  0
   36.7427  -12.2349    0.0000 O   0  0  0  0  0  0  0  0  0  0  0  0
   36.5974  -10.8270    0.0000 C   0  0  0  0  0  0  0  0  0  0  0  0
   37.4106  -10.7471    0.0000 C   0  0  0  0  0  0  0  0  0  0  0  0
   37.7443  -10.0020    0.0000 C   0  0  0  0  0  0  0  0  0  0  0  0
   37.2651   -9.3390    0.0000 C   0  0  0  0  0  0  0  0  0  0  0  0
   36.4483   -9.4260    0.0000 C   0  0  0  0  0  0  0  0  0  0  0  0
   36.1182  -10.1713    0.0000 C   0  0  0  0  0  0  0  0  0  0  0  0
   35.5932  -13.0668    0.0000 C   0  0  0  0  0  0  0  0  0  0  0  0
   35.2578  -13.8132    0.0000 C   0  0  0  0  0  0  0  0  0  0  0  0
   35.7362  -14.4748    0.0000 C   0  0  0  0  0  0  0  0  0  0  0  0
   36.5500  -14.3913    0.0000 C   0  0  0  0  0  0  0  0  0  0  0  0
   36.8831  -13.6404    0.0000 C   0  0  0  0  0  0  0  0  0  0  0  0
   36.4027  -12.9819    0.0000 C   0  0  0  0  0  0  0  0  0  0  0  0
   35.4020  -15.2206    0.0000 F   0  0  0  0  0  0  0  0  0  0  0  0
   37.0299  -15.0526    0.0000 F   0  0  0  0  0  0  0  0  0  0  0  0
  1  2  2  0
  2  3  1  0
  3  6  2  0
  5  4  2  0
  4  1  1  0
  5  6  1  0
  6  7  1  0
  7  9  1  0
  8  5  1  0
  8  9  2  0
  8 13  1  0
  9 10  1  0
 10 11  1  0
 11 12  1  0
 12 13  1  0
 11 14  1  0
 14 15  2  0
 14 16  1  0
 16 17  2  0
 17 18  1  0
 18 19  2  0
 19 20  1  0
 20 21  2  0
 21 16  1  0
 22 23  2  0
 23 24  1  0
 24 25  2  0
 25 26  1  0
 26 27  2  0
 27 22  1  0
 10 22  1  0
 24 28  1  0
 25 29  1  0
M  END
>  <Classification>  (899) 
1

>  <pchembl>  (899) 
5.06

>  <InChI_steorem>  (899) 
InChI=1S/C24H18F2N2O/c25-19-11-10-16(14-20(19)26)23-22-18(17-8-4-5-9-21(17)27-22)12-13-28(23)24(29)15-6-2-1-3-7-15/h1-11,14,23,27H,12-13H2

>  <source>  (899) 
ChEMBL28

>  <source_id>  (899) 
28

>  <optional_reference>  (899) 
10.1021/acs.jmedchem.6b00035

>  <optional_origin>  (899) 
None

>  <target>  (899) 
MDR1

$$$$

     RDKit          2D

 29 33  0  0  0  0  0  0  0  0999 V2000
   33.7758  -19.2163    0.0000 C   0  0  0  0  0  0  0  0  0  0  0  0
   33.7747  -20.0359    0.0000 C   0  0  0  0  0  0  0  0  0  0  0  0
   34.4827  -20.4448    0.0000 C   0  0  0  0  0  0  0  0  0  0  0  0
   34.4809  -18.8075    0.0000 C   0  0  0  0  0  0  0  0  0  0  0  0
   35.1896  -19.2127    0.0000 C   0  0  0  0  0  0  0  0  0  0  0  0
   35.1898  -20.0359    0.0000 C   0  0  0  0  0  0  0  0  0  0  0  0
   35.9728  -20.2901    0.0000 N   0  0  0  0  0  0  0  0  0  0  0  0
   35.9724  -18.9582    0.0000 C   0  0  0  0  0  0  0  0  0  0  0  0
   36.4566  -19.6253    0.0000 C   0  0  0  0  0  0  0  0  0  0  0  0
   37.2718  -19.5400    0.0000 C   0  0  0  0  0  0  0  0  0  0  0  0
   37.6093  -18.7886    0.0000 N   0  0  0  0  0  0  0  0  0  0  0  0
   37.1251  -18.1215    0.0000 C   0  0  0  0  0  0  0  0  0  0  0  0
   36.3035  -18.2058    0.0000 C   0  0  0  0  0  0  0  0  0  0  0  0
   38.4222  -18.7047    0.0000 C   0  0  0  0  0  0  0  0  0  0  0  0
   38.9013  -19.3668    0.0000 O   0  0  0  0  0  0  0  0  0  0  0  0
   38.7560  -17.9588    0.0000 C   0  0  0  0  0  0  0  0  0  0  0  0
   39.5691  -17.8790    0.0000 C   0  0  0  0  0  0  0  0  0  0  0  0
   39.9029  -17.1339    0.0000 C   0  0  0  0  0  0  0  0  0  0  0  0
   39.4236  -16.4709    0.0000 C   0  0  0  0  0  0  0  0  0  0  0  0
   38.6068  -16.5578    0.0000 C   0  0  0  0  0  0  0  0  0  0  0  0
   38.2768  -17.3031    0.0000 C   0  0  0  0  0  0  0  0  0  0  0  0
   37.7518  -20.1987    0.0000 C   0  0  0  0  0  0  0  0  0  0  0  0
   37.4163  -20.9451    0.0000 C   0  0  0  0  0  0  0  0  0  0  0  0
   37.8947  -21.6067    0.0000 C   0  0  0  0  0  0  0  0  0  0  0  0
   38.7085  -21.5231    0.0000 C   0  0  0  0  0  0  0  0  0  0  0  0
   39.0416  -20.7723    0.0000 C   0  0  0  0  0  0  0  0  0  0  0  0
   38.5612  -20.1138    0.0000 C   0  0  0  0  0  0  0  0  0  0  0  0
   39.7564  -15.7245    0.0000 O   0  0  0  0  0  0  0  0  0  0  0  0
   40.5692  -15.6396    0.0000 C   0  0  0  0  0  0  0  0  0  0  0  0
  1  2  2  0
  2  3  1  0
  3  6  2  0
  5  4  2  0
  4  1  1  0
  5  6  1  0
  6  7  1  0
  7  9  1  0
  8  5  1  0
  8  9  2  0
  8 13  1  0
  9 10  1  0
 10 11  1  0
 11 12  1  0
 12 13  1  0
 11 14  1  0
 14 15  2  0
 14 16  1  0
 16 17  2  0
 17 18  1  0
 18 19  2  0
 19 20  1  0
 20 21  2  0
 21 16  1  0
 22 23  2  0
 23 24  1  0
 24 25  2  0
 25 26  1  0
 26 27  2  0
 27 22  1  0
 10 22  1  0
 19 28  1  0
 28 29  1  0
M  END
>  <Classification>  (900) 
1

>  <pchembl>  (900) 
5.02

>  <InChI_steorem>  (900) 
InChI=1S/C25H22N2O2/c1-29-19-13-11-18(12-14-19)25(28)27-16-15-21-20-9-5-6-10-22(20)26-23(21)24(27)17-7-3-2-4-8-17/h2-14,24,26H,15-16H2,1H3

>  <source>  (900) 
ChEMBL28

>  <source_id>  (900) 
28

>  <optional_reference>  (900) 
10.1021/acs.jmedchem.6b00035

>  <optional_origin>  (900) 
None

>  <target>  (900) 
MDR1

$$$$

     RDKit          2D

 29 33  0  0  0  0  0  0  0  0999 V2000
    3.5026  -19.9551    0.0000 C   0  0  0  0  0  0  0  0  0  0  0  0
    3.5015  -20.7746    0.0000 C   0  0  0  0  0  0  0  0  0  0  0  0
    4.2095  -21.1836    0.0000 C   0  0  0  0  0  0  0  0  0  0  0  0
    4.2077  -19.5463    0.0000 C   0  0  0  0  0  0  0  0  0  0  0  0
    4.9163  -19.9515    0.0000 C   0  0  0  0  0  0  0  0  0  0  0  0
    4.9166  -20.7747    0.0000 C   0  0  0  0  0  0  0  0  0  0  0  0
    5.6996  -21.0289    0.0000 N   0  0  0  0  0  0  0  0  0  0  0  0
    5.6991  -19.6970    0.0000 C   0  0  0  0  0  0  0  0  0  0  0  0
    6.1833  -20.3641    0.0000 C   0  0  0  0  0  0  0  0  0  0  0  0
    6.9986  -20.2788    0.0000 C   0  0  0  0  0  0  0  0  0  0  0  0
    7.3361  -19.5274    0.0000 N   0  0  0  0  0  0  0  0  0  0  0  0
    6.8519  -18.8603    0.0000 C   0  0  0  0  0  0  0  0  0  0  0  0
    6.0303  -18.9446    0.0000 C   0  0  0  0  0  0  0  0  0  0  0  0
    8.1490  -19.4435    0.0000 C   0  0  0  0  0  0  0  0  0  0  0  0
    8.6281  -20.1055    0.0000 O   0  0  0  0  0  0  0  0  0  0  0  0
    8.4828  -18.6976    0.0000 C   0  0  0  0  0  0  0  0  0  0  0  0
    9.2959  -18.6177    0.0000 C   0  0  0  0  0  0  0  0  0  0  0  0
    9.6297  -17.8727    0.0000 C   0  0  0  0  0  0  0  0  0  0  0  0
    9.1504  -17.2097    0.0000 C   0  0  0  0  0  0  0  0  0  0  0  0
    8.3336  -17.2966    0.0000 C   0  0  0  0  0  0  0  0  0  0  0  0
    8.0035  -18.0419    0.0000 C   0  0  0  0  0  0  0  0  0  0  0  0
    7.4786  -20.9375    0.0000 C   0  0  0  0  0  0  0  0  0  0  0  0
    7.1431  -21.6838    0.0000 C   0  0  0  0  0  0  0  0  0  0  0  0
    7.6215  -22.3454    0.0000 C   0  0  0  0  0  0  0  0  0  0  0  0
    8.4353  -22.2619    0.0000 C   0  0  0  0  0  0  0  0  0  0  0  0
    8.7684  -21.5110    0.0000 C   0  0  0  0  0  0  0  0  0  0  0  0
    8.2880  -20.8526    0.0000 C   0  0  0  0  0  0  0  0  0  0  0  0
    8.9152  -22.9233    0.0000 O   0  0  0  0  0  0  0  0  0  0  0  0
    8.5825  -23.6696    0.0000 C   0  0  0  0  0  0  0  0  0  0  0  0
  1  2  2  0
  2  3  1  0
  3  6  2  0
  5  4  2  0
  4  1  1  0
  5  6  1  0
  6  7  1  0
  7  9  1  0
  8  5  1  0
  8  9  2  0
  8 13  1  0
  9 10  1  0
 10 11  1  0
 11 12  1  0
 12 13  1  0
 11 14  1  0
 14 15  2  0
 14 16  1  0
 16 17  2  0
 17 18  1  0
 18 19  2  0
 19 20  1  0
 20 21  2  0
 21 16  1  0
 22 23  2  0
 23 24  1  0
 24 25  2  0
 25 26  1  0
 26 27  2  0
 27 22  1  0
 10 22  1  0
 25 28  1  0
 28 29  1  0
M  END
>  <Classification>  (901) 
0

>  <pchembl>  (901) 
4.92

>  <InChI_steorem>  (901) 
InChI=1S/C25H22N2O2/c1-29-19-13-11-17(12-14-19)24-23-21(20-9-5-6-10-22(20)26-23)15-16-27(24)25(28)18-7-3-2-4-8-18/h2-14,24,26H,15-16H2,1H3

>  <source>  (901) 
ChEMBL28

>  <source_id>  (901) 
28

>  <optional_reference>  (901) 
10.1021/acs.jmedchem.6b00035

>  <optional_origin>  (901) 
None

>  <target>  (901) 
MDR1

$$$$

     RDKit          2D

 30 31  0  0  0  0  0  0  0  0999 V2000
   16.3342  -16.6533    0.0000 C   0  0  0  0  0  0  0  0  0  0  0  0
   16.3330  -17.4729    0.0000 C   0  0  0  0  0  0  0  0  0  0  0  0
   17.0411  -17.8818    0.0000 C   0  0  0  0  0  0  0  0  0  0  0  0
   17.7507  -17.4724    0.0000 C   0  0  0  0  0  0  0  0  0  0  0  0
   17.7479  -16.6497    0.0000 C   0  0  0  0  0  0  0  0  0  0  0  0
   17.0393  -16.2445    0.0000 C   0  0  0  0  0  0  0  0  0  0  0  0
   18.4541  -16.2385    0.0000 C   0  0  0  0  0  0  0  0  0  0  0  0
   19.1633  -16.6444    0.0000 C   0  0  0  0  0  0  0  0  0  0  0  0
   19.8695  -16.2331    0.0000 C   0  0  0  0  0  0  0  0  0  0  0  0
   20.5787  -16.6391    0.0000 C   0  0  0  0  0  0  0  0  0  0  0  0
   20.5787  -17.4551    0.0000 C   0  0  0  0  0  0  0  0  0  0  0  0
   21.2871  -17.8610    0.0000 C   0  0  0  0  0  0  0  0  0  0  0  0
   21.9942  -17.4497    0.0000 C   0  0  0  0  0  0  0  0  0  0  0  0
   21.9885  -16.6283    0.0000 C   0  0  0  0  0  0  0  0  0  0  0  0
   21.2795  -16.2261    0.0000 C   0  0  0  0  0  0  0  0  0  0  0  0
   18.4591  -17.8799    0.0000 O   0  0  0  0  0  0  0  0  0  0  0  0
   15.6250  -17.8809    0.0000 O   0  0  0  0  0  0  0  0  0  0  0  0
   15.6263  -16.2449    0.0000 C   0  0  0  0  0  0  0  0  0  0  0  0
   17.0368  -15.4273    0.0000 O   0  0  0  0  0  0  0  0  0  0  0  0
   18.4603  -18.6971    0.0000 C   0  0  0  0  0  0  0  0  0  0  0  0
   18.4510  -15.4213    0.0000 O   0  0  0  0  0  0  0  0  0  0  0  0
   15.6243  -18.6981    0.0000 C   0  0  0  0  0  0  0  0  0  0  0  0
   14.9187  -16.6537    0.0000 C   0  0  0  0  0  0  0  0  0  0  0  0
   14.2109  -16.2452    0.0000 C   0  0  0  0  0  0  0  0  0  0  0  0
   13.5033  -16.6540    0.0000 C   0  0  0  0  0  0  0  0  0  0  0  0
   14.2107  -15.4281    0.0000 C   0  0  0  0  0  0  0  0  0  0  0  0
   21.2898  -18.6782    0.0000 C   0  0  0  0  0  0  0  0  0  0  0  0
   20.5834  -19.0891    0.0000 F   0  0  0  0  0  0  0  0  0  0  0  0
   21.9988  -19.0844    0.0000 F   0  0  0  0  0  0  0  0  0  0  0  0
   21.2841  -19.4929    0.0000 F   0  0  0  0  0  0  0  0  0  0  0  0
  1  2  2  0
  2  3  1  0
  3  4  2  0
  4  5  1  0
  5  6  2  0
  6  1  1  0
  5  7  1  0
  7  8  1  0
  8  9  2  3
  9 10  1  0
 10 11  2  0
 11 12  1  0
 12 13  2  0
 13 14  1  0
 14 15  2  0
 15 10  1  0
  4 16  1  0
  2 17  1  0
  1 18  1  0
  6 19  1  0
 16 20  1  0
  7 21  2  0
 17 22  1  0
 18 23  1  0
 23 24  2  3
 24 25  1  0
 24 26  1  0
 12 27  1  0
 27 28  1  0
 27 29  1  0
 27 30  1  0
M  END
>  <Classification>  (902) 
1

>  <pchembl>  (902) 
5.2

>  <InChI_steorem>  (902) 
InChI=1S/C23H23F3O4/c1-14(2)8-10-17-19(29-3)13-20(30-4)21(22(17)28)18(27)11-9-15-6-5-7-16(12-15)23(24,25)26/h5-9,11-13,28H,10H2,1-4H3

>  <source>  (902) 
ChEMBL28

>  <source_id>  (902) 
28

>  <optional_reference>  (902) 
10.1016/j.ejmech.2019.05.053

>  <optional_origin>  (902) 
None

>  <target>  (902) 
MDR1

$$$$

     RDKit          2D

 30 31  0  0  0  0  0  0  0  0999 V2000
   28.9965  -16.8473    0.0000 C   0  0  0  0  0  0  0  0  0  0  0  0
   28.9953  -17.6668    0.0000 C   0  0  0  0  0  0  0  0  0  0  0  0
   29.7034  -18.0758    0.0000 C   0  0  0  0  0  0  0  0  0  0  0  0
   30.4131  -17.6664    0.0000 C   0  0  0  0  0  0  0  0  0  0  0  0
   30.4102  -16.8437    0.0000 C   0  0  0  0  0  0  0  0  0  0  0  0
   29.7016  -16.4384    0.0000 C   0  0  0  0  0  0  0  0  0  0  0  0
   31.1164  -16.4325    0.0000 C   0  0  0  0  0  0  0  0  0  0  0  0
   31.8256  -16.8384    0.0000 C   0  0  0  0  0  0  0  0  0  0  0  0
   32.5318  -16.4271    0.0000 C   0  0  0  0  0  0  0  0  0  0  0  0
   33.2410  -16.8330    0.0000 C   0  0  0  0  0  0  0  0  0  0  0  0
   33.2410  -17.6491    0.0000 C   0  0  0  0  0  0  0  0  0  0  0  0
   33.9494  -18.0550    0.0000 C   0  0  0  0  0  0  0  0  0  0  0  0
   34.6566  -17.6436    0.0000 C   0  0  0  0  0  0  0  0  0  0  0  0
   34.6508  -16.8222    0.0000 C   0  0  0  0  0  0  0  0  0  0  0  0
   33.9419  -16.4201    0.0000 C   0  0  0  0  0  0  0  0  0  0  0  0
   31.1214  -18.0739    0.0000 O   0  0  0  0  0  0  0  0  0  0  0  0
   28.2873  -18.0749    0.0000 O   0  0  0  0  0  0  0  0  0  0  0  0
   28.2887  -16.4389    0.0000 C   0  0  0  0  0  0  0  0  0  0  0  0
   29.6992  -15.6213    0.0000 O   0  0  0  0  0  0  0  0  0  0  0  0
   31.1227  -18.8910    0.0000 C   0  0  0  0  0  0  0  0  0  0  0  0
   31.1133  -15.6153    0.0000 O   0  0  0  0  0  0  0  0  0  0  0  0
   28.2867  -18.8921    0.0000 C   0  0  0  0  0  0  0  0  0  0  0  0
   27.5811  -16.8476    0.0000 C   0  0  0  0  0  0  0  0  0  0  0  0
   26.8733  -16.4392    0.0000 C   0  0  0  0  0  0  0  0  0  0  0  0
   26.1657  -16.8480    0.0000 C   0  0  0  0  0  0  0  0  0  0  0  0
   26.8731  -15.6220    0.0000 C   0  0  0  0  0  0  0  0  0  0  0  0
   35.3664  -18.0486    0.0000 C   0  0  0  0  0  0  0  0  0  0  0  0
   35.3705  -18.8658    0.0000 F   0  0  0  0  0  0  0  0  0  0  0  0
   36.0720  -17.6364    0.0000 F   0  0  0  0  0  0  0  0  0  0  0  0
   36.0720  -18.4570    0.0000 F   0  0  0  0  0  0  0  0  0  0  0  0
  1  2  2  0
  2  3  1  0
  3  4  2  0
  4  5  1  0
  5  6  2  0
  6  1  1  0
  5  7  1  0
  7  8  1  0
  8  9  2  3
  9 10  1  0
 10 11  2  0
 11 12  1  0
 12 13  2  0
 13 14  1  0
 14 15  2  0
 15 10  1  0
  4 16  1  0
  2 17  1  0
  1 18  1  0
  6 19  1  0
 16 20  1  0
  7 21  2  0
 17 22  1  0
 18 23  1  0
 23 24  2  3
 24 25  1  0
 24 26  1  0
 13 27  1  0
 27 28  1  0
 27 29  1  0
 27 30  1  0
M  END
>  <Classification>  (903) 
0

>  <pchembl>  (903) 
4.63

>  <InChI_steorem>  (903) 
InChI=1S/C23H23F3O4/c1-14(2)5-11-17-19(29-3)13-20(30-4)21(22(17)28)18(27)12-8-15-6-9-16(10-7-15)23(24,25)26/h5-10,12-13,28H,11H2,1-4H3

>  <source>  (903) 
ChEMBL28

>  <source_id>  (903) 
28

>  <optional_reference>  (903) 
10.1016/j.ejmech.2019.05.053

>  <optional_origin>  (903) 
None

>  <target>  (903) 
MDR1

$$$$

     RDKit          2D

 30 32  0  0  0  0  0  0  0  0999 V2000
   18.4986  -12.1404    0.0000 C   0  0  0  0  0  0  0  0  0  0  0  0
   18.4986  -12.9606    0.0000 C   0  0  0  0  0  0  0  0  0  0  0  0
   19.2111  -13.3664    0.0000 C   0  0  0  0  0  0  0  0  0  0  0  0
   19.9182  -12.9551    0.0000 C   0  0  0  0  0  0  0  0  0  0  0  0
   19.9125  -12.1296    0.0000 C   0  0  0  0  0  0  0  0  0  0  0  0
   19.2035  -11.7233    0.0000 C   0  0  0  0  0  0  0  0  0  0  0  0
   20.6320  -13.3643    0.0000 N   0  0  0  0  0  0  0  0  0  0  0  0
   20.6342  -14.1866    0.0000 C   0  0  0  0  0  0  0  0  0  0  0  0
   21.3441  -14.5956    0.0000 C   0  0  0  0  0  0  0  0  0  0  0  0
   22.0562  -14.1828    0.0000 N   0  0  0  0  0  0  0  0  0  0  0  0
   22.0540  -13.3605    0.0000 C   0  0  0  0  0  0  0  0  0  0  0  0
   21.3396  -12.9511    0.0000 C   0  0  0  0  0  0  0  0  0  0  0  0
   17.7874  -13.3703    0.0000 C   0  0  0  0  0  0  0  0  0  0  0  0
   17.0749  -12.9629    0.0000 C   0  0  0  0  0  0  0  0  0  0  0  0
   16.3637  -13.3727    0.0000 C   0  0  0  0  0  0  0  0  0  0  0  0
   15.6512  -12.9653    0.0000 C   0  0  0  0  0  0  0  0  0  0  0  0
   16.3651  -14.1940    0.0000 O   0  0  0  0  0  0  0  0  0  0  0  0
   15.6534  -12.1445    0.0000 C   0  0  0  0  0  0  0  0  0  0  0  0
   14.9417  -11.7331    0.0000 C   0  0  0  0  0  0  0  0  0  0  0  0
   14.2296  -12.1470    0.0000 C   0  0  0  0  0  0  0  0  0  0  0  0
   14.2336  -12.9726    0.0000 C   0  0  0  0  0  0  0  0  0  0  0  0
   14.9458  -13.3762    0.0000 C   0  0  0  0  0  0  0  0  0  0  0  0
   14.9507  -14.1975    0.0000 O   0  0  0  0  0  0  0  0  0  0  0  0
   14.2413  -14.6145    0.0000 C   0  0  0  0  0  0  0  0  0  0  0  0
   13.5206  -11.7364    0.0000 O   0  0  0  0  0  0  0  0  0  0  0  0
   13.5182  -10.9151    0.0000 C   0  0  0  0  0  0  0  0  0  0  0  0
   16.3655  -11.7323    0.0000 O   0  0  0  0  0  0  0  0  0  0  0  0
   14.9407  -10.9118    0.0000 C   0  0  0  0  0  0  0  0  0  0  0  0
   15.6521  -10.5023    0.0000 C   0  0  0  0  0  0  0  0  0  0  0  0
   15.6511   -9.6810    0.0000 C   0  0  0  0  0  0  0  0  0  0  0  0
  1  2  2  0
  2  3  1  0
  3  4  2  0
  4  5  1  0
  5  6  2  0
  6  1  1  0
  7  8  1  0
  7 12  1  0
  8  9  1  0
  9 10  1  0
 10 11  1  0
 11 12  1  0
  4  7  1  0
  2 13  1  0
 13 14  2  3
 14 15  1  0
 15 16  1  0
 15 17  2  0
 16 18  2  0
 18 19  1  0
 19 20  2  0
 20 21  1  0
 21 22  2  0
 22 16  1  0
 22 23  1  0
 23 24  1  0
 20 25  1  0
 25 26  1  0
 18 27  1  0
 19 28  1  0
 28 29  1  0
 29 30  1  0
M  END
>  <Classification>  (904) 
1

>  <pchembl>  (904) 
5.29

>  <InChI_steorem>  (904) 
InChI=1S/C24H30N2O4/c1-4-6-19-21(29-2)16-22(30-3)23(24(19)28)20(27)10-9-17-7-5-8-18(15-17)26-13-11-25-12-14-26/h5,7-10,15-16,25,28H,4,6,11-14H2,1-3H3

>  <source>  (904) 
ChEMBL28

>  <source_id>  (904) 
28

>  <optional_reference>  (904) 
10.1016/j.ejmech.2019.05.053

>  <optional_origin>  (904) 
None

>  <target>  (904) 
MDR1

$$$$

     RDKit          2D

 30 33  0  0  0  0  0  0  0  0999 V2000
   35.7693   -8.9973    0.0000 C   0  0  0  0  0  0  0  0  0  0  0  0
   35.7681   -9.8169    0.0000 C   0  0  0  0  0  0  0  0  0  0  0  0
   36.4762  -10.2258    0.0000 C   0  0  0  0  0  0  0  0  0  0  0  0
   36.4744   -8.5885    0.0000 C   0  0  0  0  0  0  0  0  0  0  0  0
   37.1830   -8.9937    0.0000 C   0  0  0  0  0  0  0  0  0  0  0  0
   37.1818   -9.8144    0.0000 C   0  0  0  0  0  0  0  0  0  0  0  0
   37.8880  -10.2234    0.0000 C   0  0  0  0  0  0  0  0  0  0  0  0
   38.5999   -9.8164    0.0000 C   0  0  0  0  0  0  0  0  0  0  0  0
   38.6011   -8.9957    0.0000 N   0  0  0  0  0  0  0  0  0  0  0  0
   37.8904   -8.5821    0.0000 C   0  0  0  0  0  0  0  0  0  0  0  0
   39.3098   -8.5888    0.0000 C   0  0  0  0  0  0  0  0  0  0  0  0
   40.0165   -8.9991    0.0000 C   0  0  0  0  0  0  0  0  0  0  0  0
   40.7252   -8.5923    0.0000 O   0  0  0  0  0  0  0  0  0  0  0  0
   41.4319   -9.0026    0.0000 C   0  0  0  0  0  0  0  0  0  0  0  0
   41.4285   -9.8197    0.0000 C   0  0  0  0  0  0  0  0  0  0  0  0
   42.8434   -9.0016    0.0000 C   0  0  0  0  0  0  0  0  0  0  0  0
   42.1370   -8.5951    0.0000 C   0  0  0  0  0  0  0  0  0  0  0  0
   42.8441   -9.8230    0.0000 C   0  0  0  0  0  0  0  0  0  0  0  0
   42.1350  -10.2251    0.0000 C   0  0  0  0  0  0  0  0  0  0  0  0
   42.1286  -11.0356    0.0000 O   0  0  0  0  0  0  0  0  0  0  0  0
   42.8297  -11.4503    0.0000 C   0  0  0  0  0  0  0  0  0  0  0  0
   43.5388  -11.0483    0.0000 C   0  0  0  0  0  0  0  0  0  0  0  0
   43.5468  -10.2316    0.0000 C   0  0  0  0  0  0  0  0  0  0  0  0
   42.8222  -12.2675    0.0000 O   0  0  0  0  0  0  0  0  0  0  0  0
   44.2428  -11.4632    0.0000 C   0  0  0  0  0  0  0  0  0  0  0  0
   44.2571   -9.8276    0.0000 C   0  0  0  0  0  0  0  0  0  0  0  0
   35.0615   -8.5889    0.0000 O   0  0  0  0  0  0  0  0  0  0  0  0
   34.3539   -8.9977    0.0000 C   0  0  0  0  0  0  0  0  0  0  0  0
   35.0601  -10.2249    0.0000 O   0  0  0  0  0  0  0  0  0  0  0  0
   34.3527   -9.8157    0.0000 C   0  0  0  0  0  0  0  0  0  0  0  0
  1  2  2  0
  2  3  1  0
  3  6  2  0
  5  4  2  0
  4  1  1  0
  5  6  1  0
  5 10  1  0
  6  7  1  0
  7  8  1  0
  8  9  1  0
  9 10  1  0
  9 11  1  0
 11 12  1  0
 12 13  1  0
 13 14  1  0
 14 15  2  0
 15 19  1  0
 18 16  1  0
 16 17  2  0
 17 14  1  0
 18 19  2  0
 18 23  1  0
 19 20  1  0
 20 21  1  0
 21 22  1  0
 22 23  2  0
 21 24  2  0
 22 25  1  0
 23 26  1  0
  1 27  1  0
 27 28  1  0
  2 29  1  0
 29 30  1  0
M  END
>  <Classification>  (905) 
1

>  <pchembl>  (905) 
6.42

>  <InChI_steorem>  (905) 
InChI=1S/C24H27NO5/c1-15-16(2)24(26)30-21-13-19(5-6-20(15)21)29-10-9-25-8-7-17-11-22(27-3)23(28-4)12-18(17)14-25/h5-6,11-13H,7-10,14H2,1-4H3

>  <source>  (905) 
ChEMBL28

>  <source_id>  (905) 
28

>  <optional_reference>  (905) 
10.1016/j.ejmech.2018.10.043

>  <optional_origin>  (905) 
None

>  <target>  (905) 
MDR1

$$$$

     RDKit          2D

 30 34  0  0  0  0  0  0  0  0999 V2000
   12.0666   -4.3212    0.0000 C   0  0  0  0  0  0  0  0  0  0  0  0
   12.0655   -5.1407    0.0000 C   0  0  0  0  0  0  0  0  0  0  0  0
   12.7735   -5.5497    0.0000 C   0  0  0  0  0  0  0  0  0  0  0  0
   12.7717   -3.9123    0.0000 C   0  0  0  0  0  0  0  0  0  0  0  0
   13.4803   -4.3176    0.0000 C   0  0  0  0  0  0  0  0  0  0  0  0
   13.4806   -5.1407    0.0000 C   0  0  0  0  0  0  0  0  0  0  0  0
   14.2636   -5.3949    0.0000 N   0  0  0  0  0  0  0  0  0  0  0  0
   14.2631   -4.0630    0.0000 C   0  0  0  0  0  0  0  0  0  0  0  0
   14.7473   -4.7301    0.0000 C   0  0  0  0  0  0  0  0  0  0  0  0
   15.5626   -4.6448    0.0000 C   0  0  0  0  0  0  0  0  0  0  0  0
   15.9001   -3.8935    0.0000 N   0  0  0  0  0  0  0  0  0  0  0  0
   15.4159   -3.2264    0.0000 C   0  0  0  0  0  0  0  0  0  0  0  0
   14.5943   -3.3106    0.0000 C   0  0  0  0  0  0  0  0  0  0  0  0
   16.7130   -3.8096    0.0000 C   0  0  0  0  0  0  0  0  0  0  0  0
   17.1921   -4.4716    0.0000 O   0  0  0  0  0  0  0  0  0  0  0  0
   17.0468   -3.0636    0.0000 C   0  0  0  0  0  0  0  0  0  0  0  0
   17.8599   -2.9838    0.0000 C   0  0  0  0  0  0  0  0  0  0  0  0
   18.1937   -2.2387    0.0000 C   0  0  0  0  0  0  0  0  0  0  0  0
   17.7144   -1.5757    0.0000 C   0  0  0  0  0  0  0  0  0  0  0  0
   16.8976   -1.6627    0.0000 C   0  0  0  0  0  0  0  0  0  0  0  0
   16.5675   -2.4079    0.0000 C   0  0  0  0  0  0  0  0  0  0  0  0
   16.0426   -5.3035    0.0000 C   0  0  0  0  0  0  0  0  0  0  0  0
   15.7071   -6.0499    0.0000 C   0  0  0  0  0  0  0  0  0  0  0  0
   16.1855   -6.7115    0.0000 C   0  0  0  0  0  0  0  0  0  0  0  0
   16.9993   -6.6280    0.0000 C   0  0  0  0  0  0  0  0  0  0  0  0
   17.3324   -5.8771    0.0000 C   0  0  0  0  0  0  0  0  0  0  0  0
   16.8520   -5.2186    0.0000 C   0  0  0  0  0  0  0  0  0  0  0  0
   18.0472   -0.8294    0.0000 O   0  0  0  0  0  0  0  0  0  0  0  0
   18.8600   -0.7444    0.0000 C   0  0  0  0  0  0  0  0  0  0  0  0
   15.8513   -7.4573    0.0000 Cl  0  0  0  0  0  0  0  0  0  0  0  0
  1  2  2  0
  2  3  1  0
  3  6  2  0
  5  4  2  0
  4  1  1  0
  5  6  1  0
  6  7  1  0
  7  9  1  0
  8  5  1  0
  8  9  2  0
  8 13  1  0
  9 10  1  0
 10 11  1  0
 11 12  1  0
 12 13  1  0
 11 14  1  0
 14 15  2  0
 14 16  1  0
 16 17  2  0
 17 18  1  0
 18 19  2  0
 19 20  1  0
 20 21  2  0
 21 16  1  0
 22 23  2  0
 23 24  1  0
 24 25  2  0
 25 26  1  0
 26 27  2  0
 27 22  1  0
 10 22  1  0
 19 28  1  0
 28 29  1  0
 24 30  1  0
M  END
>  <Classification>  (906) 
0

>  <pchembl>  (906) 
4.72

>  <InChI_steorem>  (906) 
InChI=1S/C25H21ClN2O2/c1-30-19-11-9-16(10-12-19)25(29)28-14-13-21-20-7-2-3-8-22(20)27-23(21)24(28)17-5-4-6-18(26)15-17/h2-12,15,24,27H,13-14H2,1H3

>  <source>  (906) 
ChEMBL28

>  <source_id>  (906) 
28

>  <optional_reference>  (906) 
10.1021/acs.jmedchem.6b00035

>  <optional_origin>  (906) 
None

>  <target>  (906) 
MDR1

$$$$

     RDKit          2D

 30 34  0  0  0  0  0  0  0  0999 V2000
   13.6597  -18.0442    0.0000 C   0  0  0  0  0  0  0  0  0  0  0  0
   13.6586  -18.8637    0.0000 C   0  0  0  0  0  0  0  0  0  0  0  0
   14.3666  -19.2727    0.0000 C   0  0  0  0  0  0  0  0  0  0  0  0
   14.3648  -17.6353    0.0000 C   0  0  0  0  0  0  0  0  0  0  0  0
   15.0734  -18.0406    0.0000 C   0  0  0  0  0  0  0  0  0  0  0  0
   15.0737  -18.8638    0.0000 C   0  0  0  0  0  0  0  0  0  0  0  0
   15.8567  -19.1180    0.0000 N   0  0  0  0  0  0  0  0  0  0  0  0
   15.8563  -17.7861    0.0000 C   0  0  0  0  0  0  0  0  0  0  0  0
   16.3404  -18.4532    0.0000 C   0  0  0  0  0  0  0  0  0  0  0  0
   17.1557  -18.3679    0.0000 C   0  0  0  0  0  0  0  0  0  0  0  0
   17.4932  -17.6165    0.0000 N   0  0  0  0  0  0  0  0  0  0  0  0
   17.0090  -16.9494    0.0000 C   0  0  0  0  0  0  0  0  0  0  0  0
   16.1874  -17.0337    0.0000 C   0  0  0  0  0  0  0  0  0  0  0  0
   18.3061  -17.5326    0.0000 C   0  0  0  0  0  0  0  0  0  0  0  0
   18.7852  -18.1946    0.0000 O   0  0  0  0  0  0  0  0  0  0  0  0
   18.6399  -16.7867    0.0000 C   0  0  0  0  0  0  0  0  0  0  0  0
   19.4530  -16.7068    0.0000 C   0  0  0  0  0  0  0  0  0  0  0  0
   19.7868  -15.9618    0.0000 C   0  0  0  0  0  0  0  0  0  0  0  0
   19.3075  -15.2988    0.0000 C   0  0  0  0  0  0  0  0  0  0  0  0
   18.4907  -15.3857    0.0000 C   0  0  0  0  0  0  0  0  0  0  0  0
   18.1607  -16.1310    0.0000 C   0  0  0  0  0  0  0  0  0  0  0  0
   17.6357  -19.0265    0.0000 C   0  0  0  0  0  0  0  0  0  0  0  0
   17.3002  -19.7729    0.0000 C   0  0  0  0  0  0  0  0  0  0  0  0
   17.7786  -20.4345    0.0000 C   0  0  0  0  0  0  0  0  0  0  0  0
   18.5924  -20.3510    0.0000 C   0  0  0  0  0  0  0  0  0  0  0  0
   18.9255  -19.6001    0.0000 C   0  0  0  0  0  0  0  0  0  0  0  0
   18.4451  -18.9417    0.0000 C   0  0  0  0  0  0  0  0  0  0  0  0
   19.6403  -14.5524    0.0000 Cl  0  0  0  0  0  0  0  0  0  0  0  0
   17.4445  -21.1803    0.0000 F   0  0  0  0  0  0  0  0  0  0  0  0
   19.0724  -21.0124    0.0000 F   0  0  0  0  0  0  0  0  0  0  0  0
  1  2  2  0
  2  3  1  0
  3  6  2  0
  5  4  2  0
  4  1  1  0
  5  6  1  0
  6  7  1  0
  7  9  1  0
  8  5  1  0
  8  9  2  0
  8 13  1  0
  9 10  1  0
 10 11  1  0
 11 12  1  0
 12 13  1  0
 11 14  1  0
 14 15  2  0
 14 16  1  0
 16 17  2  0
 17 18  1  0
 18 19  2  0
 19 20  1  0
 20 21  2  0
 21 16  1  0
 22 23  2  0
 23 24  1  0
 24 25  2  0
 25 26  1  0
 26 27  2  0
 27 22  1  0
 10 22  1  0
 19 28  1  0
 24 29  1  0
 25 30  1  0
M  END
>  <Classification>  (907) 
0

>  <pchembl>  (907) 
4.63

>  <InChI_steorem>  (907) 
InChI=1S/C24H17ClF2N2O/c25-16-8-5-14(6-9-16)24(30)29-12-11-18-17-3-1-2-4-21(17)28-22(18)23(29)15-7-10-19(26)20(27)13-15/h1-10,13,23,28H,11-12H2

>  <source>  (907) 
ChEMBL28

>  <source_id>  (907) 
28

>  <optional_reference>  (907) 
10.1021/acs.jmedchem.6b00035

>  <optional_origin>  (907) 
None

>  <target>  (907) 
MDR1

$$$$

     RDKit          2D

 30 34  0  0  0  0  0  0  0  0999 V2000
    2.8092   -3.3595    0.0000 C   0  0  0  0  0  0  0  0  0  0  0  0
    2.8081   -4.1791    0.0000 C   0  0  0  0  0  0  0  0  0  0  0  0
    3.5161   -4.5880    0.0000 C   0  0  0  0  0  0  0  0  0  0  0  0
    3.5143   -2.9507    0.0000 C   0  0  0  0  0  0  0  0  0  0  0  0
    4.2230   -3.3559    0.0000 C   0  0  0  0  0  0  0  0  0  0  0  0
    4.2237   -4.1749    0.0000 C   0  0  0  0  0  0  0  0  0  0  0  0
    4.9323   -4.5820    0.0000 C   0  0  0  0  0  0  0  0  0  0  0  0
    5.6405   -4.1712    0.0000 C   0  0  0  0  0  0  0  0  0  0  0  0
    5.6358   -3.3491    0.0000 C   0  0  0  0  0  0  0  0  0  0  0  0
    4.9267   -2.9457    0.0000 N   0  0  0  0  0  0  0  0  0  0  0  0
    6.3380   -2.9379    0.0000 C   0  0  0  0  0  0  0  0  0  0  0  0
    7.0485   -3.3439    0.0000 C   0  0  0  0  0  0  0  0  0  0  0  0
    7.7532   -2.9317    0.0000 N   0  0  0  0  0  0  0  0  0  0  0  0
    7.7487   -2.1136    0.0000 C   0  0  0  0  0  0  0  0  0  0  0  0
    7.0335   -1.7095    0.0000 C   0  0  0  0  0  0  0  0  0  0  0  0
    6.3317   -2.1241    0.0000 C   0  0  0  0  0  0  0  0  0  0  0  0
    4.9339   -5.3992    0.0000 C   0  0  0  0  0  0  0  0  0  0  0  0
    4.2271   -5.8093    0.0000 O   0  0  0  0  0  0  0  0  0  0  0  0
    5.6425   -5.8063    0.0000 N   0  0  0  0  0  0  0  0  0  0  0  0
    5.6416   -6.6207    0.0000 C   0  0  0  0  0  0  0  0  0  0  0  0
    6.3461   -7.0277    0.0000 C   0  0  0  0  0  0  0  0  0  0  0  0
    7.0554   -6.6212    0.0000 N   0  0  0  0  0  0  0  0  0  0  0  0
    7.0556   -5.8030    0.0000 C   0  0  0  0  0  0  0  0  0  0  0  0
    6.3466   -5.3915    0.0000 C   0  0  0  0  0  0  0  0  0  0  0  0
    7.7624   -7.0310    0.0000 C   0  0  0  0  0  0  0  0  0  0  0  0
    8.4708   -6.6236    0.0000 C   0  0  0  0  0  0  0  0  0  0  0  0
    9.2166   -6.9529    0.0000 S   0  0  0  0  0  0  0  0  0  0  0  0
    9.7644   -6.3466    0.0000 C   0  0  0  0  0  0  0  0  0  0  0  0
    9.3570   -5.6381    0.0000 C   0  0  0  0  0  0  0  0  0  0  0  0
    8.5574   -5.8068    0.0000 C   0  0  0  0  0  0  0  0  0  0  0  0
  1  2  2  0
  2  3  1  0
  3  6  2  0
  5  4  2  0
  4  1  1  0
  5  6  1  0
  6  7  1  0
  7  8  2  0
  8  9  1  0
  9 10  2  0
 10  5  1  0
 11 12  2  0
 12 13  1  0
 13 14  2  0
 14 15  1  0
 15 16  2  0
 16 11  1  0
  9 11  1  0
  7 17  1  0
 17 18  2  0
 17 19  1  0
 19 20  1  0
 19 24  1  0
 20 21  1  0
 21 22  1  0
 22 23  1  0
 23 24  1  0
 22 25  1  0
 25 26  1  0
 26 27  1  0
 27 28  1  0
 28 29  2  0
 29 30  1  0
 30 26  2  0
M  END
>  <Classification>  (908) 
0

>  <pchembl>  (908) 
4.56

>  <InChI_steorem>  (908) 
InChI=1S/C24H22N4OS/c29-24(28-12-10-27(11-13-28)17-19-6-4-14-30-19)21-15-23(18-5-3-9-25-16-18)26-22-8-2-1-7-20(21)22/h1-9,14-16H,10-13,17H2

>  <source>  (908) 
ChEMBL28

>  <source_id>  (908) 
28

>  <optional_reference>  (908) 
10.1021/acs.jmedchem.8b01821

>  <optional_origin>  (908) 
None

>  <target>  (908) 
MDR1

$$$$

     RDKit          2D

 30 34  0  0  0  0  0  0  0  0999 V2000
   35.0275   -6.1481    0.0000 C   0  0  0  0  0  0  0  0  0  0  0  0
   35.7372   -5.7387    0.0000 C   0  0  0  0  0  0  0  0  0  0  0  0
   35.7343   -4.9160    0.0000 C   0  0  0  0  0  0  0  0  0  0  0  0
   35.0257   -4.5108    0.0000 C   0  0  0  0  0  0  0  0  0  0  0  0
   34.3195   -5.7392    0.0000 C   0  0  0  0  0  0  0  0  0  0  0  0
   34.3207   -4.9226    0.0000 C   0  0  0  0  0  0  0  0  0  0  0  0
   33.5445   -4.6691    0.0000 S   0  0  0  0  0  0  0  0  0  0  0  0
   33.0635   -5.3290    0.0000 C   0  0  0  0  0  0  0  0  0  0  0  0
   33.5425   -5.9902    0.0000 N   0  0  0  0  0  0  0  0  0  0  0  0
   36.4455   -6.1462    0.0000 N   0  0  0  0  0  0  0  0  0  0  0  0
   37.1526   -5.7365    0.0000 C   0  0  0  0  0  0  0  0  0  0  0  0
   37.8609   -6.1439    0.0000 C   0  0  0  0  0  0  0  0  0  0  0  0
   37.1513   -4.9193    0.0000 O   0  0  0  0  0  0  0  0  0  0  0  0
   37.8582   -6.9592    0.0000 C   0  0  0  0  0  0  0  0  0  0  0  0
   38.5625   -7.3666    0.0000 C   0  0  0  0  0  0  0  0  0  0  0  0
   39.2720   -6.9604    0.0000 C   0  0  0  0  0  0  0  0  0  0  0  0
   39.2726   -6.1422    0.0000 N   0  0  0  0  0  0  0  0  0  0  0  0
   38.5639   -5.7303    0.0000 C   0  0  0  0  0  0  0  0  0  0  0  0
   39.9811   -5.7349    0.0000 C   0  0  0  0  0  0  0  0  0  0  0  0
   40.6854   -6.1472    0.0000 C   0  0  0  0  0  0  0  0  0  0  0  0
   41.3933   -5.7406    0.0000 C   0  0  0  0  0  0  0  0  0  0  0  0
   41.3953   -4.9225    0.0000 N   0  0  0  0  0  0  0  0  0  0  0  0
   40.6833   -4.5128    0.0000 C   0  0  0  0  0  0  0  0  0  0  0  0
   39.9783   -4.9217    0.0000 N   0  0  0  0  0  0  0  0  0  0  0  0
   42.1012   -6.1481    0.0000 N   0  0  0  0  0  0  0  0  0  0  0  0
   42.1847   -6.9610    0.0000 C   0  0  0  0  0  0  0  0  0  0  0  0
   42.9837   -7.1327    0.0000 C   0  0  0  0  0  0  0  0  0  0  0  0
   43.3939   -6.4259    0.0000 C   0  0  0  0  0  0  0  0  0  0  0  0
   42.8485   -5.8175    0.0000 N   0  0  0  0  0  0  0  0  0  0  0  0
   32.2463   -5.3278    0.0000 C   0  0  0  0  0  0  0  0  0  0  0  0
  5  1  2  0
  1  2  1  0
  2  3  2  0
  3  4  1  0
  4  6  2  0
  5  6  1  0
  6  7  1  0
  7  8  1  0
  8  9  2  0
  9  5  1  0
  2 10  1  0
 10 11  1  0
 11 12  1  0
 11 13  2  0
 12 14  1  0
 12 18  1  0
 14 15  1  0
 15 16  1  0
 16 17  1  0
 17 18  1  0
 17 19  1  0
 19 20  2  0
 20 21  1  0
 21 22  2  0
 22 23  1  0
 23 24  2  0
 24 19  1  0
 25 26  1  0
 26 27  2  0
 27 28  1  0
 28 29  2  0
 29 25  1  0
 21 25  1  0
  8 30  1  0
M  END
>  <Classification>  (909) 
1

>  <pchembl>  (909) 
5.32

>  <InChI_steorem>  (909) 
InChI=1S/C21H21N7OS/c1-14-25-17-10-16(5-6-18(17)30-14)26-21(29)15-4-2-8-27(12-15)19-11-20(23-13-22-19)28-9-3-7-24-28/h3,5-7,9-11,13,15H,2,4,8,12H2,1H3,(H,26,29)

>  <source>  (909) 
ChEMBL28

>  <source_id>  (909) 
28

>  <optional_reference>  (909) 
10.1021/acs.jmedchem.8b01821

>  <optional_origin>  (909) 
None

>  <target>  (909) 
MDR1

$$$$

     RDKit          2D

 31 33  0  0  0  0  0  0  0  0999 V2000
   31.4581  -12.1528    0.0000 C   0  0  0  0  0  0  0  0  0  0  0  0
   31.4581  -12.9730    0.0000 C   0  0  0  0  0  0  0  0  0  0  0  0
   32.1706  -13.3829    0.0000 C   0  0  0  0  0  0  0  0  0  0  0  0
   32.8777  -12.9675    0.0000 C   0  0  0  0  0  0  0  0  0  0  0  0
   32.8720  -12.1420    0.0000 C   0  0  0  0  0  0  0  0  0  0  0  0
   32.1630  -11.7398    0.0000 C   0  0  0  0  0  0  0  0  0  0  0  0
   33.5915  -13.3808    0.0000 N   0  0  0  0  0  0  0  0  0  0  0  0
   33.5937  -14.2031    0.0000 C   0  0  0  0  0  0  0  0  0  0  0  0
   34.3036  -14.6080    0.0000 C   0  0  0  0  0  0  0  0  0  0  0  0
   35.0157  -14.1993    0.0000 N   0  0  0  0  0  0  0  0  0  0  0  0
   35.0135  -13.3770    0.0000 C   0  0  0  0  0  0  0  0  0  0  0  0
   34.2991  -12.9635    0.0000 C   0  0  0  0  0  0  0  0  0  0  0  0
   30.7469  -13.3869    0.0000 C   0  0  0  0  0  0  0  0  0  0  0  0
   30.0344  -12.9753    0.0000 C   0  0  0  0  0  0  0  0  0  0  0  0
   29.3232  -13.3892    0.0000 C   0  0  0  0  0  0  0  0  0  0  0  0
   28.6107  -12.9777    0.0000 C   0  0  0  0  0  0  0  0  0  0  0  0
   29.3246  -14.2105    0.0000 O   0  0  0  0  0  0  0  0  0  0  0  0
   28.6129  -12.1569    0.0000 C   0  0  0  0  0  0  0  0  0  0  0  0
   27.9012  -11.7496    0.0000 C   0  0  0  0  0  0  0  0  0  0  0  0
   27.1891  -12.1594    0.0000 C   0  0  0  0  0  0  0  0  0  0  0  0
   27.1931  -12.9850    0.0000 C   0  0  0  0  0  0  0  0  0  0  0  0
   27.9053  -13.3927    0.0000 C   0  0  0  0  0  0  0  0  0  0  0  0
   27.9102  -14.2140    0.0000 O   0  0  0  0  0  0  0  0  0  0  0  0
   27.2008  -14.6268    0.0000 C   0  0  0  0  0  0  0  0  0  0  0  0
   26.4801  -11.7529    0.0000 O   0  0  0  0  0  0  0  0  0  0  0  0
   26.4777  -10.9316    0.0000 C   0  0  0  0  0  0  0  0  0  0  0  0
   29.3250  -11.7488    0.0000 O   0  0  0  0  0  0  0  0  0  0  0  0
   27.9002  -10.9283    0.0000 C   0  0  0  0  0  0  0  0  0  0  0  0
   28.6116  -10.5147    0.0000 C   0  0  0  0  0  0  0  0  0  0  0  0
   28.6106   -9.6934    0.0000 C   0  0  0  0  0  0  0  0  0  0  0  0
   29.3220   -9.2840    0.0000 C   0  0  0  0  0  0  0  0  0  0  0  0
  1  2  2  0
  2  3  1  0
  3  4  2  0
  4  5  1  0
  5  6  2  0
  6  1  1  0
  7  8  1  0
  7 12  1  0
  8  9  1  0
  9 10  1  0
 10 11  1  0
 11 12  1  0
  4  7  1  0
  2 13  1  0
 13 14  2  3
 14 15  1  0
 15 16  1  0
 15 17  2  0
 16 18  2  0
 18 19  1  0
 19 20  2  0
 20 21  1  0
 21 22  2  0
 22 16  1  0
 22 23  1  0
 23 24  1  0
 20 25  1  0
 25 26  1  0
 18 27  1  0
 19 28  1  0
 28 29  1  0
 29 30  1  0
 30 31  1  0
M  END
>  <Classification>  (910) 
1

>  <pchembl>  (910) 
5.45

>  <InChI_steorem>  (910) 
InChI=1S/C25H32N2O4/c1-4-5-9-20-22(30-2)17-23(31-3)24(25(20)29)21(28)11-10-18-7-6-8-19(16-18)27-14-12-26-13-15-27/h6-8,10-11,16-17,26,29H,4-5,9,12-15H2,1-3H3

>  <source>  (910) 
ChEMBL28

>  <source_id>  (910) 
28

>  <optional_reference>  (910) 
10.1016/j.ejmech.2019.05.053

>  <optional_origin>  (910) 
None

>  <target>  (910) 
MDR1

$$$$

     RDKit          2D

 31 34  0  0  0  0  0  0  0  0999 V2000
    2.1308  -16.2224    0.0000 C   0  0  0  0  0  0  0  0  0  0  0  0
    2.1297  -17.0419    0.0000 C   0  0  0  0  0  0  0  0  0  0  0  0
    2.8377  -17.4509    0.0000 C   0  0  0  0  0  0  0  0  0  0  0  0
    2.8360  -15.8135    0.0000 C   0  0  0  0  0  0  0  0  0  0  0  0
    3.5446  -16.2188    0.0000 C   0  0  0  0  0  0  0  0  0  0  0  0
    3.5434  -17.0394    0.0000 C   0  0  0  0  0  0  0  0  0  0  0  0
    4.2496  -17.4484    0.0000 C   0  0  0  0  0  0  0  0  0  0  0  0
    4.9615  -17.0414    0.0000 C   0  0  0  0  0  0  0  0  0  0  0  0
    4.9627  -16.2208    0.0000 N   0  0  0  0  0  0  0  0  0  0  0  0
    4.2519  -15.8072    0.0000 C   0  0  0  0  0  0  0  0  0  0  0  0
    5.6713  -15.8139    0.0000 C   0  0  0  0  0  0  0  0  0  0  0  0
    6.3781  -16.2242    0.0000 C   0  0  0  0  0  0  0  0  0  0  0  0
    7.0868  -15.8173    0.0000 C   0  0  0  0  0  0  0  0  0  0  0  0
    7.7935  -16.2276    0.0000 O   0  0  0  0  0  0  0  0  0  0  0  0
    8.5000  -15.8169    0.0000 C   0  0  0  0  0  0  0  0  0  0  0  0
    9.2082  -16.2247    0.0000 C   0  0  0  0  0  0  0  0  0  0  0  0
    9.1984  -14.5903    0.0000 C   0  0  0  0  0  0  0  0  0  0  0  0
    8.4953  -15.0026    0.0000 C   0  0  0  0  0  0  0  0  0  0  0  0
    9.9122  -14.9966    0.0000 C   0  0  0  0  0  0  0  0  0  0  0  0
    9.9102  -15.8117    0.0000 C   0  0  0  0  0  0  0  0  0  0  0  0
   10.6112  -16.2188    0.0000 O   0  0  0  0  0  0  0  0  0  0  0  0
   11.3187  -15.8152    0.0000 C   0  0  0  0  0  0  0  0  0  0  0  0
   11.3208  -15.0001    0.0000 C   0  0  0  0  0  0  0  0  0  0  0  0
   10.6153  -14.5886    0.0000 C   0  0  0  0  0  0  0  0  0  0  0  0
   12.0249  -16.2265    0.0000 O   0  0  0  0  0  0  0  0  0  0  0  0
   12.0299  -14.5940    0.0000 C   0  0  0  0  0  0  0  0  0  0  0  0
   10.6161  -13.7714    0.0000 C   0  0  0  0  0  0  0  0  0  0  0  0
    1.4230  -15.8139    0.0000 O   0  0  0  0  0  0  0  0  0  0  0  0
    0.7154  -16.2227    0.0000 C   0  0  0  0  0  0  0  0  0  0  0  0
    1.4217  -17.4499    0.0000 O   0  0  0  0  0  0  0  0  0  0  0  0
    0.7143  -17.0408    0.0000 C   0  0  0  0  0  0  0  0  0  0  0  0
  1  2  2  0
  2  3  1  0
  3  6  2  0
  5  4  2  0
  4  1  1  0
  5  6  1  0
  5 10  1  0
  6  7  1  0
  7  8  1  0
  8  9  1  0
  9 10  1  0
  9 11  1  0
 11 12  1  0
 12 13  1  0
 13 14  1  0
 14 15  1  0
 15 16  2  0
 16 20  1  0
 19 17  1  0
 17 18  2  0
 18 15  1  0
 19 20  2  0
 19 24  1  0
 20 21  1  0
 21 22  1  0
 22 23  1  0
 23 24  2  0
 22 25  2  0
 23 26  1  0
 24 27  1  0
  1 28  1  0
 28 29  1  0
  2 30  1  0
 30 31  1  0
M  END
>  <Classification>  (911) 
1

>  <pchembl>  (911) 
6.72

>  <InChI_steorem>  (911) 
InChI=1S/C25H29NO5/c1-16-17(2)25(27)31-22-14-20(6-7-21(16)22)30-11-5-9-26-10-8-18-12-23(28-3)24(29-4)13-19(18)15-26/h6-7,12-14H,5,8-11,15H2,1-4H3

>  <source>  (911) 
ChEMBL28

>  <source_id>  (911) 
28

>  <optional_reference>  (911) 
10.1016/j.ejmech.2018.10.043

>  <optional_origin>  (911) 
None

>  <target>  (911) 
MDR1

$$$$

     RDKit          2D

 31 35  0  0  0  0  0  0  0  0999 V2000
   11.7282   -3.6608    0.0000 C   0  0  0  0  0  0  0  0  0  0  0  0
   11.7270   -4.4803    0.0000 C   0  0  0  0  0  0  0  0  0  0  0  0
   12.4351   -4.8893    0.0000 C   0  0  0  0  0  0  0  0  0  0  0  0
   12.4333   -3.2520    0.0000 C   0  0  0  0  0  0  0  0  0  0  0  0
   13.1419   -3.6572    0.0000 C   0  0  0  0  0  0  0  0  0  0  0  0
   13.1422   -4.4804    0.0000 C   0  0  0  0  0  0  0  0  0  0  0  0
   13.9251   -4.7346    0.0000 N   0  0  0  0  0  0  0  0  0  0  0  0
   13.9247   -3.4027    0.0000 C   0  0  0  0  0  0  0  0  0  0  0  0
   14.4089   -4.0698    0.0000 C   0  0  0  0  0  0  0  0  0  0  0  0
   15.2242   -3.9845    0.0000 C   0  0  0  0  0  0  0  0  0  0  0  0
   15.5617   -3.2331    0.0000 N   0  0  0  0  0  0  0  0  0  0  0  0
   15.0775   -2.5660    0.0000 C   0  0  0  0  0  0  0  0  0  0  0  0
   14.2558   -2.6503    0.0000 C   0  0  0  0  0  0  0  0  0  0  0  0
   16.3745   -3.1492    0.0000 C   0  0  0  0  0  0  0  0  0  0  0  0
   16.8536   -3.8112    0.0000 O   0  0  0  0  0  0  0  0  0  0  0  0
   16.7083   -2.4033    0.0000 C   0  0  0  0  0  0  0  0  0  0  0  0
   17.5214   -2.3234    0.0000 C   0  0  0  0  0  0  0  0  0  0  0  0
   17.8552   -1.5784    0.0000 C   0  0  0  0  0  0  0  0  0  0  0  0
   17.3760   -0.9154    0.0000 C   0  0  0  0  0  0  0  0  0  0  0  0
   16.5592   -1.0023    0.0000 C   0  0  0  0  0  0  0  0  0  0  0  0
   16.2291   -1.7476    0.0000 C   0  0  0  0  0  0  0  0  0  0  0  0
   15.7041   -4.6432    0.0000 C   0  0  0  0  0  0  0  0  0  0  0  0
   15.3687   -5.3895    0.0000 C   0  0  0  0  0  0  0  0  0  0  0  0
   15.8470   -6.0511    0.0000 C   0  0  0  0  0  0  0  0  0  0  0  0
   16.6608   -5.9676    0.0000 C   0  0  0  0  0  0  0  0  0  0  0  0
   16.9939   -5.2167    0.0000 C   0  0  0  0  0  0  0  0  0  0  0  0
   16.5135   -4.5583    0.0000 C   0  0  0  0  0  0  0  0  0  0  0  0
   17.8065   -5.1300    0.0000 O   0  0  0  0  0  0  0  0  0  0  0  0
   18.2879   -5.7903    0.0000 C   0  0  0  0  0  0  0  0  0  0  0  0
   17.1408   -6.6290    0.0000 O   0  0  0  0  0  0  0  0  0  0  0  0
   16.8080   -7.3753    0.0000 C   0  0  0  0  0  0  0  0  0  0  0  0
  1  2  2  0
  2  3  1  0
  3  6  2  0
  5  4  2  0
  4  1  1  0
  5  6  1  0
  6  7  1  0
  7  9  1  0
  8  5  1  0
  8  9  2  0
  8 13  1  0
  9 10  1  0
 10 11  1  0
 11 12  1  0
 12 13  1  0
 11 14  1  0
 14 15  2  0
 14 16  1  0
 16 17  2  0
 17 18  1  0
 18 19  2  0
 19 20  1  0
 20 21  2  0
 21 16  1  0
 22 23  2  0
 23 24  1  0
 24 25  2  0
 25 26  1  0
 26 27  2  0
 27 22  1  0
 10 22  1  0
 26 28  1  0
 28 29  1  0
 25 30  1  0
 30 31  1  0
M  END
>  <Classification>  (912) 
1

>  <pchembl>  (912) 
5.13

>  <InChI_steorem>  (912) 
InChI=1S/C26H24N2O3/c1-30-22-13-12-18(16-23(22)31-2)25-24-20(19-10-6-7-11-21(19)27-24)14-15-28(25)26(29)17-8-4-3-5-9-17/h3-13,16,25,27H,14-15H2,1-2H3

>  <source>  (912) 
ChEMBL28

>  <source_id>  (912) 
28

>  <optional_reference>  (912) 
10.1021/acs.jmedchem.6b00035

>  <optional_origin>  (912) 
None

>  <target>  (912) 
MDR1

$$$$

     RDKit          2D

 31 35  0  0  0  0  0  0  0  0999 V2000
    1.2656   -5.0558    0.0000 C   0  0  0  0  0  0  0  0  0  0  0  0
    1.2645   -5.8754    0.0000 C   0  0  0  0  0  0  0  0  0  0  0  0
    1.9725   -6.2843    0.0000 C   0  0  0  0  0  0  0  0  0  0  0  0
    1.9708   -4.6470    0.0000 C   0  0  0  0  0  0  0  0  0  0  0  0
    2.6794   -5.0522    0.0000 C   0  0  0  0  0  0  0  0  0  0  0  0
    2.6796   -5.8754    0.0000 C   0  0  0  0  0  0  0  0  0  0  0  0
    3.4626   -6.1296    0.0000 N   0  0  0  0  0  0  0  0  0  0  0  0
    3.4622   -4.7977    0.0000 C   0  0  0  0  0  0  0  0  0  0  0  0
    3.9464   -5.4648    0.0000 C   0  0  0  0  0  0  0  0  0  0  0  0
    4.7617   -5.3795    0.0000 C   0  0  0  0  0  0  0  0  0  0  0  0
    5.0991   -4.6281    0.0000 N   0  0  0  0  0  0  0  0  0  0  0  0
    4.6150   -3.9610    0.0000 C   0  0  0  0  0  0  0  0  0  0  0  0
    3.7933   -4.0453    0.0000 C   0  0  0  0  0  0  0  0  0  0  0  0
    5.9120   -4.5442    0.0000 C   0  0  0  0  0  0  0  0  0  0  0  0
    6.3911   -5.2062    0.0000 O   0  0  0  0  0  0  0  0  0  0  0  0
    6.2458   -3.7983    0.0000 C   0  0  0  0  0  0  0  0  0  0  0  0
    7.0589   -3.7184    0.0000 C   0  0  0  0  0  0  0  0  0  0  0  0
    7.3927   -2.9734    0.0000 C   0  0  0  0  0  0  0  0  0  0  0  0
    6.9134   -2.3104    0.0000 C   0  0  0  0  0  0  0  0  0  0  0  0
    6.0966   -2.3973    0.0000 C   0  0  0  0  0  0  0  0  0  0  0  0
    5.7666   -3.1426    0.0000 C   0  0  0  0  0  0  0  0  0  0  0  0
    5.2416   -6.0382    0.0000 C   0  0  0  0  0  0  0  0  0  0  0  0
    4.9062   -6.7845    0.0000 C   0  0  0  0  0  0  0  0  0  0  0  0
    5.3845   -7.4461    0.0000 C   0  0  0  0  0  0  0  0  0  0  0  0
    6.1983   -7.3626    0.0000 C   0  0  0  0  0  0  0  0  0  0  0  0
    6.5314   -6.6117    0.0000 C   0  0  0  0  0  0  0  0  0  0  0  0
    6.0510   -5.9533    0.0000 C   0  0  0  0  0  0  0  0  0  0  0  0
    7.2462   -1.5640    0.0000 O   0  0  0  0  0  0  0  0  0  0  0  0
    8.0590   -1.4790    0.0000 C   0  0  0  0  0  0  0  0  0  0  0  0
    5.0504   -8.1919    0.0000 O   0  0  0  0  0  0  0  0  0  0  0  0
    4.2375   -8.2754    0.0000 C   0  0  0  0  0  0  0  0  0  0  0  0
  1  2  2  0
  2  3  1  0
  3  6  2  0
  5  4  2  0
  4  1  1  0
  5  6  1  0
  6  7  1  0
  7  9  1  0
  8  5  1  0
  8  9  2  0
  8 13  1  0
  9 10  1  0
 10 11  1  0
 11 12  1  0
 12 13  1  0
 11 14  1  0
 14 15  2  0
 14 16  1  0
 16 17  2  0
 17 18  1  0
 18 19  2  0
 19 20  1  0
 20 21  2  0
 21 16  1  0
 22 23  2  0
 23 24  1  0
 24 25  2  0
 25 26  1  0
 26 27  2  0
 27 22  1  0
 10 22  1  0
 19 28  1  0
 28 29  1  0
 24 30  1  0
 30 31  1  0
M  END
>  <Classification>  (913) 
1

>  <pchembl>  (913) 
5.47

>  <InChI_steorem>  (913) 
InChI=1S/C26H24N2O3/c1-30-19-12-10-17(11-13-19)26(29)28-15-14-22-21-8-3-4-9-23(21)27-24(22)25(28)18-6-5-7-20(16-18)31-2/h3-13,16,25,27H,14-15H2,1-2H3

>  <source>  (913) 
ChEMBL28

>  <source_id>  (913) 
28

>  <optional_reference>  (913) 
10.1021/acs.jmedchem.6b00035

>  <optional_origin>  (913) 
None

>  <target>  (913) 
MDR1

$$$$

     RDKit          2D

 31 35  0  0  0  0  0  0  0  0999 V2000
   21.8646  -10.9000    0.0000 C   0  0  0  0  0  0  0  0  0  0  0  0
   21.8635  -11.7195    0.0000 C   0  0  0  0  0  0  0  0  0  0  0  0
   22.5715  -12.1285    0.0000 C   0  0  0  0  0  0  0  0  0  0  0  0
   22.5698  -10.4911    0.0000 C   0  0  0  0  0  0  0  0  0  0  0  0
   23.2784  -10.8964    0.0000 C   0  0  0  0  0  0  0  0  0  0  0  0
   23.2786  -11.7195    0.0000 C   0  0  0  0  0  0  0  0  0  0  0  0
   24.0616  -11.9737    0.0000 N   0  0  0  0  0  0  0  0  0  0  0  0
   24.0612  -10.6418    0.0000 C   0  0  0  0  0  0  0  0  0  0  0  0
   24.5454  -11.3089    0.0000 C   0  0  0  0  0  0  0  0  0  0  0  0
   25.3607  -11.2237    0.0000 C   0  0  0  0  0  0  0  0  0  0  0  0
   25.6981  -10.4723    0.0000 N   0  0  0  0  0  0  0  0  0  0  0  0
   25.2140   -9.8052    0.0000 C   0  0  0  0  0  0  0  0  0  0  0  0
   24.3923   -9.8894    0.0000 C   0  0  0  0  0  0  0  0  0  0  0  0
   26.5110  -10.3884    0.0000 C   0  0  0  0  0  0  0  0  0  0  0  0
   26.9901  -11.0504    0.0000 O   0  0  0  0  0  0  0  0  0  0  0  0
   26.8448   -9.6424    0.0000 C   0  0  0  0  0  0  0  0  0  0  0  0
   27.6579   -9.5626    0.0000 C   0  0  0  0  0  0  0  0  0  0  0  0
   27.9917   -8.8175    0.0000 C   0  0  0  0  0  0  0  0  0  0  0  0
   27.5124   -8.1545    0.0000 C   0  0  0  0  0  0  0  0  0  0  0  0
   26.6956   -8.2415    0.0000 C   0  0  0  0  0  0  0  0  0  0  0  0
   26.3656   -8.9868    0.0000 C   0  0  0  0  0  0  0  0  0  0  0  0
   25.8406  -11.8823    0.0000 C   0  0  0  0  0  0  0  0  0  0  0  0
   25.5052  -12.6287    0.0000 C   0  0  0  0  0  0  0  0  0  0  0  0
   25.9835  -13.2903    0.0000 C   0  0  0  0  0  0  0  0  0  0  0  0
   26.7973  -13.2068    0.0000 C   0  0  0  0  0  0  0  0  0  0  0  0
   27.1304  -12.4559    0.0000 C   0  0  0  0  0  0  0  0  0  0  0  0
   26.6500  -11.7974    0.0000 C   0  0  0  0  0  0  0  0  0  0  0  0
   27.2773  -13.8681    0.0000 N   0  0  0  0  0  0  0  0  0  0  0  0
   26.9445  -14.6145    0.0000 C   0  0  0  0  0  0  0  0  0  0  0  0
   27.4245  -15.2759    0.0000 O   0  0  0  0  0  0  0  0  0  0  0  0
   26.1317  -14.6995    0.0000 C   0  0  0  0  0  0  0  0  0  0  0  0
  1  2  2  0
  2  3  1  0
  3  6  2  0
  5  4  2  0
  4  1  1  0
  5  6  1  0
  6  7  1  0
  7  9  1  0
  8  5  1  0
  8  9  2  0
  8 13  1  0
  9 10  1  0
 10 11  1  0
 11 12  1  0
 12 13  1  0
 11 14  1  0
 14 15  2  0
 14 16  1  0
 16 17  2  0
 17 18  1  0
 18 19  2  0
 19 20  1  0
 20 21  2  0
 21 16  1  0
 22 23  2  0
 23 24  1  0
 24 25  2  0
 25 26  1  0
 26 27  2  0
 27 22  1  0
 10 22  1  0
 25 28  1  0
 28 29  1  0
 29 30  2  0
 29 31  1  0
M  END
>  <Classification>  (914) 
1

>  <pchembl>  (914) 
5.13

>  <InChI_steorem>  (914) 
InChI=1S/C26H23N3O2/c1-17(30)27-20-13-11-18(12-14-20)25-24-22(21-9-5-6-10-23(21)28-24)15-16-29(25)26(31)19-7-3-2-4-8-19/h2-14,25,28H,15-16H2,1H3,(H,27,30)

>  <source>  (914) 
ChEMBL28

>  <source_id>  (914) 
28

>  <optional_reference>  (914) 
10.1021/acs.jmedchem.6b00035

>  <optional_origin>  (914) 
None

>  <target>  (914) 
MDR1

$$$$

     RDKit          2D

 31 35  0  0  0  0  0  0  0  0999 V2000
    2.6276  -19.4392    0.0000 C   0  0  0  0  0  0  0  0  0  0  0  0
    2.6265  -20.2587    0.0000 C   0  0  0  0  0  0  0  0  0  0  0  0
    3.3345  -20.6677    0.0000 C   0  0  0  0  0  0  0  0  0  0  0  0
    3.3327  -19.0303    0.0000 C   0  0  0  0  0  0  0  0  0  0  0  0
    4.0414  -19.4356    0.0000 C   0  0  0  0  0  0  0  0  0  0  0  0
    4.0416  -20.2588    0.0000 C   0  0  0  0  0  0  0  0  0  0  0  0
    4.8246  -20.5130    0.0000 N   0  0  0  0  0  0  0  0  0  0  0  0
    4.8242  -19.1811    0.0000 C   0  0  0  0  0  0  0  0  0  0  0  0
    5.3084  -19.8482    0.0000 C   0  0  0  0  0  0  0  0  0  0  0  0
    6.1237  -19.7629    0.0000 C   0  0  0  0  0  0  0  0  0  0  0  0
    6.4611  -19.0115    0.0000 N   0  0  0  0  0  0  0  0  0  0  0  0
    5.9769  -18.3444    0.0000 C   0  0  0  0  0  0  0  0  0  0  0  0
    5.1553  -18.4287    0.0000 C   0  0  0  0  0  0  0  0  0  0  0  0
    7.2740  -18.9276    0.0000 C   0  0  0  0  0  0  0  0  0  0  0  0
    7.7531  -19.5896    0.0000 O   0  0  0  0  0  0  0  0  0  0  0  0
    7.6078  -18.1817    0.0000 C   0  0  0  0  0  0  0  0  0  0  0  0
    8.4209  -18.1018    0.0000 C   0  0  0  0  0  0  0  0  0  0  0  0
    8.7547  -17.3568    0.0000 C   0  0  0  0  0  0  0  0  0  0  0  0
    8.2754  -16.6938    0.0000 C   0  0  0  0  0  0  0  0  0  0  0  0
    7.4586  -16.7807    0.0000 C   0  0  0  0  0  0  0  0  0  0  0  0
    7.1286  -17.5260    0.0000 C   0  0  0  0  0  0  0  0  0  0  0  0
    6.6036  -20.4215    0.0000 C   0  0  0  0  0  0  0  0  0  0  0  0
    6.2681  -21.1679    0.0000 C   0  0  0  0  0  0  0  0  0  0  0  0
    6.7465  -21.8295    0.0000 C   0  0  0  0  0  0  0  0  0  0  0  0
    7.5603  -21.7460    0.0000 C   0  0  0  0  0  0  0  0  0  0  0  0
    7.8934  -20.9951    0.0000 C   0  0  0  0  0  0  0  0  0  0  0  0
    7.4130  -20.3367    0.0000 C   0  0  0  0  0  0  0  0  0  0  0  0
    8.6082  -15.9474    0.0000 O   0  0  0  0  0  0  0  0  0  0  0  0
    9.4210  -15.8624    0.0000 C   0  0  0  0  0  0  0  0  0  0  0  0
    6.4124  -22.5753    0.0000 F   0  0  0  0  0  0  0  0  0  0  0  0
    8.0403  -22.4074    0.0000 F   0  0  0  0  0  0  0  0  0  0  0  0
  1  2  2  0
  2  3  1  0
  3  6  2  0
  5  4  2  0
  4  1  1  0
  5  6  1  0
  6  7  1  0
  7  9  1  0
  8  5  1  0
  8  9  2  0
  8 13  1  0
  9 10  1  0
 10 11  1  0
 11 12  1  0
 12 13  1  0
 11 14  1  0
 14 15  2  0
 14 16  1  0
 16 17  2  0
 17 18  1  0
 18 19  2  0
 19 20  1  0
 20 21  2  0
 21 16  1  0
 22 23  2  0
 23 24  1  0
 24 25  2  0
 25 26  1  0
 26 27  2  0
 27 22  1  0
 10 22  1  0
 19 28  1  0
 28 29  1  0
 24 30  1  0
 25 31  1  0
M  END
>  <Classification>  (915) 
1

>  <pchembl>  (915) 
5.08

>  <InChI_steorem>  (915) 
InChI=1S/C25H20F2N2O2/c1-31-17-9-6-15(7-10-17)25(30)29-13-12-19-18-4-2-3-5-22(18)28-23(19)24(29)16-8-11-20(26)21(27)14-16/h2-11,14,24,28H,12-13H2,1H3

>  <source>  (915) 
ChEMBL28

>  <source_id>  (915) 
28

>  <optional_reference>  (915) 
10.1021/acs.jmedchem.6b00035

>  <optional_origin>  (915) 
None

>  <target>  (915) 
MDR1

$$$$

     RDKit          2D

 32 33  0  0  0  0  0  0  0  0999 V2000
   16.5240  -24.6519    0.0000 C   0  0  0  0  0  0  0  0  0  0  0  0
   16.5229  -25.4714    0.0000 C   0  0  0  0  0  0  0  0  0  0  0  0
   17.2309  -25.8804    0.0000 C   0  0  0  0  0  0  0  0  0  0  0  0
   17.9406  -25.4710    0.0000 C   0  0  0  0  0  0  0  0  0  0  0  0
   17.9377  -24.6483    0.0000 C   0  0  0  0  0  0  0  0  0  0  0  0
   17.2291  -24.2430    0.0000 C   0  0  0  0  0  0  0  0  0  0  0  0
   18.6439  -24.2370    0.0000 C   0  0  0  0  0  0  0  0  0  0  0  0
   19.3531  -24.6430    0.0000 C   0  0  0  0  0  0  0  0  0  0  0  0
   20.0593  -24.2317    0.0000 C   0  0  0  0  0  0  0  0  0  0  0  0
   20.7686  -24.6376    0.0000 C   0  0  0  0  0  0  0  0  0  0  0  0
   20.7685  -25.4537    0.0000 C   0  0  0  0  0  0  0  0  0  0  0  0
   21.4769  -25.8595    0.0000 C   0  0  0  0  0  0  0  0  0  0  0  0
   22.1841  -25.4482    0.0000 C   0  0  0  0  0  0  0  0  0  0  0  0
   22.1784  -24.6268    0.0000 C   0  0  0  0  0  0  0  0  0  0  0  0
   21.4694  -24.2247    0.0000 C   0  0  0  0  0  0  0  0  0  0  0  0
   18.6489  -25.8784    0.0000 O   0  0  0  0  0  0  0  0  0  0  0  0
   15.8148  -25.8795    0.0000 O   0  0  0  0  0  0  0  0  0  0  0  0
   15.8162  -24.2435    0.0000 C   0  0  0  0  0  0  0  0  0  0  0  0
   17.2267  -23.4258    0.0000 O   0  0  0  0  0  0  0  0  0  0  0  0
   18.6502  -26.6956    0.0000 C   0  0  0  0  0  0  0  0  0  0  0  0
   18.6408  -23.4199    0.0000 O   0  0  0  0  0  0  0  0  0  0  0  0
   15.8142  -26.6967    0.0000 C   0  0  0  0  0  0  0  0  0  0  0  0
   15.1086  -24.6522    0.0000 C   0  0  0  0  0  0  0  0  0  0  0  0
   14.4008  -24.2438    0.0000 C   0  0  0  0  0  0  0  0  0  0  0  0
   13.6932  -24.6526    0.0000 C   0  0  0  0  0  0  0  0  0  0  0  0
   14.4006  -23.4266    0.0000 C   0  0  0  0  0  0  0  0  0  0  0  0
   22.8831  -24.2131    0.0000 O   0  0  0  0  0  0  0  0  0  0  0  0
   23.5937  -24.6165    0.0000 C   0  0  0  0  0  0  0  0  0  0  0  0
   22.8939  -25.8532    0.0000 O   0  0  0  0  0  0  0  0  0  0  0  0
   22.8980  -26.6704    0.0000 C   0  0  0  0  0  0  0  0  0  0  0  0
   21.4796  -26.6767    0.0000 O   0  0  0  0  0  0  0  0  0  0  0  0
   20.7733  -27.0876    0.0000 C   0  0  0  0  0  0  0  0  0  0  0  0
  1  2  2  0
  2  3  1  0
  3  4  2  0
  4  5  1  0
  5  6  2  0
  6  1  1  0
  5  7  1  0
  7  8  1  0
  8  9  2  3
  9 10  1  0
 10 11  2  0
 11 12  1  0
 12 13  2  0
 13 14  1  0
 14 15  2  0
 15 10  1  0
  4 16  1  0
  2 17  1  0
  1 18  1  0
  6 19  1  0
 16 20  1  0
  7 21  2  0
 17 22  1  0
 18 23  1  0
 23 24  2  3
 24 25  1  0
 24 26  1  0
 14 27  1  0
 27 28  1  0
 13 29  1  0
 29 30  1  0
 12 31  1  0
 31 32  1  0
M  END
>  <Classification>  (916) 
0

>  <pchembl>  (916) 
4.58

>  <InChI_steorem>  (916) 
InChI=1S/C25H30O7/c1-15(2)8-10-17-19(28-3)14-20(29-4)23(24(17)27)18(26)11-9-16-12-21(30-5)25(32-7)22(13-16)31-6/h8-9,11-14,27H,10H2,1-7H3

>  <source>  (916) 
ChEMBL28

>  <source_id>  (916) 
28

>  <optional_reference>  (916) 
10.1016/j.ejmech.2019.05.053

>  <optional_origin>  (916) 
None

>  <target>  (916) 
MDR1

$$$$

     RDKit          2D

 32 33  0  0  0  0  0  0  0  0999 V2000
    3.7915  -24.9779    0.0000 C   0  0  0  0  0  0  0  0  0  0  0  0
    3.7904  -25.7975    0.0000 C   0  0  0  0  0  0  0  0  0  0  0  0
    4.4984  -26.2065    0.0000 C   0  0  0  0  0  0  0  0  0  0  0  0
    5.2081  -25.7970    0.0000 C   0  0  0  0  0  0  0  0  0  0  0  0
    5.2052  -24.9744    0.0000 C   0  0  0  0  0  0  0  0  0  0  0  0
    4.4966  -24.5691    0.0000 C   0  0  0  0  0  0  0  0  0  0  0  0
    5.9114  -24.5631    0.0000 C   0  0  0  0  0  0  0  0  0  0  0  0
    6.6206  -24.9690    0.0000 C   0  0  0  0  0  0  0  0  0  0  0  0
    7.3268  -24.5578    0.0000 C   0  0  0  0  0  0  0  0  0  0  0  0
    8.0361  -24.9637    0.0000 C   0  0  0  0  0  0  0  0  0  0  0  0
    8.0360  -25.7797    0.0000 C   0  0  0  0  0  0  0  0  0  0  0  0
    8.7444  -26.1856    0.0000 C   0  0  0  0  0  0  0  0  0  0  0  0
    9.4516  -25.7743    0.0000 C   0  0  0  0  0  0  0  0  0  0  0  0
    9.4459  -24.9529    0.0000 C   0  0  0  0  0  0  0  0  0  0  0  0
    8.7369  -24.5507    0.0000 C   0  0  0  0  0  0  0  0  0  0  0  0
    5.9164  -26.2045    0.0000 O   0  0  0  0  0  0  0  0  0  0  0  0
    3.0823  -26.2055    0.0000 O   0  0  0  0  0  0  0  0  0  0  0  0
    3.0837  -24.5695    0.0000 C   0  0  0  0  0  0  0  0  0  0  0  0
    4.4942  -23.7519    0.0000 O   0  0  0  0  0  0  0  0  0  0  0  0
    5.9177  -27.0217    0.0000 C   0  0  0  0  0  0  0  0  0  0  0  0
    5.9083  -23.7459    0.0000 O   0  0  0  0  0  0  0  0  0  0  0  0
    3.0817  -27.0227    0.0000 C   0  0  0  0  0  0  0  0  0  0  0  0
    2.3761  -24.9783    0.0000 C   0  0  0  0  0  0  0  0  0  0  0  0
    1.6683  -24.5699    0.0000 C   0  0  0  0  0  0  0  0  0  0  0  0
    0.9607  -24.9786    0.0000 C   0  0  0  0  0  0  0  0  0  0  0  0
    1.6681  -23.7527    0.0000 C   0  0  0  0  0  0  0  0  0  0  0  0
    8.7302  -23.7336    0.0000 O   0  0  0  0  0  0  0  0  0  0  0  0
    9.4345  -23.3191    0.0000 C   0  0  0  0  0  0  0  0  0  0  0  0
   10.1506  -24.5391    0.0000 O   0  0  0  0  0  0  0  0  0  0  0  0
   10.8612  -24.9425    0.0000 C   0  0  0  0  0  0  0  0  0  0  0  0
   10.1614  -26.1793    0.0000 O   0  0  0  0  0  0  0  0  0  0  0  0
   10.1655  -26.9964    0.0000 C   0  0  0  0  0  0  0  0  0  0  0  0
  1  2  2  0
  2  3  1  0
  3  4  2  0
  4  5  1  0
  5  6  2  0
  6  1  1  0
  5  7  1  0
  7  8  1  0
  8  9  2  3
  9 10  1  0
 10 11  2  0
 11 12  1  0
 12 13  2  0
 13 14  1  0
 14 15  2  0
 15 10  1  0
  4 16  1  0
  2 17  1  0
  1 18  1  0
  6 19  1  0
 16 20  1  0
  7 21  2  0
 17 22  1  0
 18 23  1  0
 23 24  2  3
 24 25  1  0
 24 26  1  0
 15 27  1  0
 27 28  1  0
 14 29  1  0
 29 30  1  0
 13 31  1  0
 31 32  1  0
M  END
>  <Classification>  (917) 
0

>  <pchembl>  (917) 
4.56

>  <InChI_steorem>  (917) 
InChI=1S/C25H30O7/c1-15(2)8-11-17-20(29-4)14-21(30-5)22(23(17)27)18(26)12-9-16-10-13-19(28-3)25(32-7)24(16)31-6/h8-10,12-14,27H,11H2,1-7H3

>  <source>  (917) 
ChEMBL28

>  <source_id>  (917) 
28

>  <optional_reference>  (917) 
10.1016/j.ejmech.2019.05.053

>  <optional_origin>  (917) 
None

>  <target>  (917) 
MDR1

$$$$

     RDKit          2D

 32 34  0  0  0  0  0  0  0  0999 V2000
   20.9484  -10.8422    0.0000 C   0  0  0  0  0  0  0  0  0  0  0  0
   20.9472  -11.6617    0.0000 C   0  0  0  0  0  0  0  0  0  0  0  0
   21.6553  -12.0707    0.0000 C   0  0  0  0  0  0  0  0  0  0  0  0
   22.3650  -11.6613    0.0000 C   0  0  0  0  0  0  0  0  0  0  0  0
   22.3621  -10.8386    0.0000 C   0  0  0  0  0  0  0  0  0  0  0  0
   21.6535  -10.4333    0.0000 C   0  0  0  0  0  0  0  0  0  0  0  0
   23.0683  -10.4273    0.0000 C   0  0  0  0  0  0  0  0  0  0  0  0
   23.7775  -10.8333    0.0000 C   0  0  0  0  0  0  0  0  0  0  0  0
   24.4837  -10.4220    0.0000 C   0  0  0  0  0  0  0  0  0  0  0  0
   25.1929  -10.8279    0.0000 C   0  0  0  0  0  0  0  0  0  0  0  0
   25.1929  -11.6440    0.0000 C   0  0  0  0  0  0  0  0  0  0  0  0
   25.9013  -12.0498    0.0000 C   0  0  0  0  0  0  0  0  0  0  0  0
   26.6085  -11.6385    0.0000 C   0  0  0  0  0  0  0  0  0  0  0  0
   26.6028  -10.8171    0.0000 C   0  0  0  0  0  0  0  0  0  0  0  0
   25.8938  -10.4150    0.0000 C   0  0  0  0  0  0  0  0  0  0  0  0
   23.0733  -12.0687    0.0000 O   0  0  0  0  0  0  0  0  0  0  0  0
   20.2392  -12.0698    0.0000 O   0  0  0  0  0  0  0  0  0  0  0  0
   20.2406  -10.4338    0.0000 C   0  0  0  0  0  0  0  0  0  0  0  0
   21.6511   -9.6161    0.0000 O   0  0  0  0  0  0  0  0  0  0  0  0
   23.0746  -12.8859    0.0000 C   0  0  0  0  0  0  0  0  0  0  0  0
   23.0652   -9.6101    0.0000 O   0  0  0  0  0  0  0  0  0  0  0  0
   20.2386  -12.8870    0.0000 C   0  0  0  0  0  0  0  0  0  0  0  0
   19.5330  -10.8425    0.0000 C   0  0  0  0  0  0  0  0  0  0  0  0
   18.8252  -10.4341    0.0000 C   0  0  0  0  0  0  0  0  0  0  0  0
   18.1176  -10.8429    0.0000 C   0  0  0  0  0  0  0  0  0  0  0  0
   18.8250   -9.6169    0.0000 C   0  0  0  0  0  0  0  0  0  0  0  0
   27.3181  -12.0432    0.0000 N   0  0  0  0  0  0  0  0  0  0  0  0
   27.3203  -12.8614    0.0000 C   0  0  0  0  0  0  0  0  0  0  0  0
   28.0260  -13.2663    0.0000 C   0  0  0  0  0  0  0  0  0  0  0  0
   28.7341  -12.8576    0.0000 N   0  0  0  0  0  0  0  0  0  0  0  0
   28.7319  -12.0394    0.0000 C   0  0  0  0  0  0  0  0  0  0  0  0
   28.0216  -11.6300    0.0000 C   0  0  0  0  0  0  0  0  0  0  0  0
  1  2  2  0
  2  3  1  0
  3  4  2  0
  4  5  1  0
  5  6  2  0
  6  1  1  0
  5  7  1  0
  7  8  1  0
  8  9  2  3
  9 10  1  0
 10 11  2  0
 11 12  1  0
 12 13  2  0
 13 14  1  0
 14 15  2  0
 15 10  1  0
  4 16  1  0
  2 17  1  0
  1 18  1  0
  6 19  1  0
 16 20  1  0
  7 21  2  0
 17 22  1  0
 18 23  1  0
 23 24  2  3
 24 25  1  0
 24 26  1  0
 27 28  1  0
 27 32  1  0
 28 29  1  0
 29 30  1  0
 30 31  1  0
 31 32  1  0
 13 27  1  0
M  END
>  <Classification>  (918) 
0

>  <pchembl>  (918) 
4.83

>  <InChI_steorem>  (918) 
InChI=1S/C26H32N2O4/c1-18(2)5-11-21-23(31-3)17-24(32-4)25(26(21)30)22(29)12-8-19-6-9-20(10-7-19)28-15-13-27-14-16-28/h5-10,12,17,27,30H,11,13-16H2,1-4H3

>  <source>  (918) 
ChEMBL28

>  <source_id>  (918) 
28

>  <optional_reference>  (918) 
10.1016/j.ejmech.2019.05.053

>  <optional_origin>  (918) 
None

>  <target>  (918) 
MDR1

$$$$

     RDKit          2D

 32 34  0  0  0  0  0  0  0  0999 V2000
   36.9662  -10.7885    0.0000 C   0  0  0  0  0  0  0  0  0  0  0  0
   36.9650  -11.6081    0.0000 C   0  0  0  0  0  0  0  0  0  0  0  0
   37.6731  -12.0170    0.0000 C   0  0  0  0  0  0  0  0  0  0  0  0
   38.3827  -11.6076    0.0000 C   0  0  0  0  0  0  0  0  0  0  0  0
   38.3799  -10.7849    0.0000 C   0  0  0  0  0  0  0  0  0  0  0  0
   37.6713  -10.3797    0.0000 C   0  0  0  0  0  0  0  0  0  0  0  0
   39.0861  -10.3737    0.0000 C   0  0  0  0  0  0  0  0  0  0  0  0
   39.7953  -10.7796    0.0000 C   0  0  0  0  0  0  0  0  0  0  0  0
   40.5015  -10.3683    0.0000 C   0  0  0  0  0  0  0  0  0  0  0  0
   41.2107  -10.7743    0.0000 C   0  0  0  0  0  0  0  0  0  0  0  0
   41.2107  -11.5903    0.0000 C   0  0  0  0  0  0  0  0  0  0  0  0
   41.9191  -11.9962    0.0000 C   0  0  0  0  0  0  0  0  0  0  0  0
   42.6263  -11.5849    0.0000 C   0  0  0  0  0  0  0  0  0  0  0  0
   42.6205  -10.7635    0.0000 C   0  0  0  0  0  0  0  0  0  0  0  0
   41.9116  -10.3613    0.0000 C   0  0  0  0  0  0  0  0  0  0  0  0
   39.0911  -12.0151    0.0000 O   0  0  0  0  0  0  0  0  0  0  0  0
   36.2570  -12.0161    0.0000 O   0  0  0  0  0  0  0  0  0  0  0  0
   36.2584  -10.3801    0.0000 C   0  0  0  0  0  0  0  0  0  0  0  0
   37.6688   -9.5625    0.0000 O   0  0  0  0  0  0  0  0  0  0  0  0
   39.0924  -12.8323    0.0000 C   0  0  0  0  0  0  0  0  0  0  0  0
   39.0830   -9.5565    0.0000 O   0  0  0  0  0  0  0  0  0  0  0  0
   36.2563  -12.8333    0.0000 C   0  0  0  0  0  0  0  0  0  0  0  0
   35.5508  -10.7889    0.0000 C   0  0  0  0  0  0  0  0  0  0  0  0
   34.8429  -10.3804    0.0000 C   0  0  0  0  0  0  0  0  0  0  0  0
   34.1353  -10.7892    0.0000 C   0  0  0  0  0  0  0  0  0  0  0  0
   34.8427   -9.5633    0.0000 C   0  0  0  0  0  0  0  0  0  0  0  0
   43.3217  -10.3499    0.0000 N   0  0  0  0  0  0  0  0  0  0  0  0
   44.0322  -10.7555    0.0000 C   0  0  0  0  0  0  0  0  0  0  0  0
   44.7348  -10.3452    0.0000 C   0  0  0  0  0  0  0  0  0  0  0  0
   44.7331   -9.5277    0.0000 O   0  0  0  0  0  0  0  0  0  0  0  0
   44.0226   -9.1221    0.0000 C   0  0  0  0  0  0  0  0  0  0  0  0
   43.3138   -9.5340    0.0000 C   0  0  0  0  0  0  0  0  0  0  0  0
  1  2  2  0
  2  3  1  0
  3  4  2  0
  4  5  1  0
  5  6  2  0
  6  1  1  0
  5  7  1  0
  7  8  1  0
  8  9  2  3
  9 10  1  0
 10 11  2  0
 11 12  1  0
 12 13  2  0
 13 14  1  0
 14 15  2  0
 15 10  1  0
  4 16  1  0
  2 17  1  0
  1 18  1  0
  6 19  1  0
 16 20  1  0
  7 21  2  0
 17 22  1  0
 18 23  1  0
 23 24  2  3
 24 25  1  0
 24 26  1  0
 27 28  1  0
 27 32  1  0
 28 29  1  0
 29 30  1  0
 30 31  1  0
 31 32  1  0
 14 27  1  0
M  END
>  <Classification>  (919) 
0

>  <pchembl>  (919) 
4.5

>  <InChI_steorem>  (919) 
InChI=1S/C26H31NO5/c1-18(2)8-10-21-23(30-3)17-24(31-4)25(26(21)29)22(28)11-9-19-6-5-7-20(16-19)27-12-14-32-15-13-27/h5-9,11,16-17,29H,10,12-15H2,1-4H3

>  <source>  (919) 
ChEMBL28

>  <source_id>  (919) 
28

>  <optional_reference>  (919) 
10.1016/j.ejmech.2019.05.053

>  <optional_origin>  (919) 
None

>  <target>  (919) 
MDR1

$$$$

     RDKit          2D

 32 34  0  0  0  0  0  0  0  0999 V2000
   37.2097   -2.8354    0.0000 C   0  0  0  0  0  0  0  0  0  0  0  0
   37.2085   -3.6549    0.0000 C   0  0  0  0  0  0  0  0  0  0  0  0
   37.9166   -4.0639    0.0000 C   0  0  0  0  0  0  0  0  0  0  0  0
   38.6262   -3.6544    0.0000 C   0  0  0  0  0  0  0  0  0  0  0  0
   38.6234   -2.8318    0.0000 C   0  0  0  0  0  0  0  0  0  0  0  0
   37.9148   -2.4265    0.0000 C   0  0  0  0  0  0  0  0  0  0  0  0
   39.3296   -2.4205    0.0000 C   0  0  0  0  0  0  0  0  0  0  0  0
   40.0388   -2.8264    0.0000 C   0  0  0  0  0  0  0  0  0  0  0  0
   40.7450   -2.4152    0.0000 C   0  0  0  0  0  0  0  0  0  0  0  0
   41.4542   -2.8211    0.0000 C   0  0  0  0  0  0  0  0  0  0  0  0
   41.4542   -3.6372    0.0000 C   0  0  0  0  0  0  0  0  0  0  0  0
   42.1626   -4.0430    0.0000 C   0  0  0  0  0  0  0  0  0  0  0  0
   42.8698   -3.6317    0.0000 C   0  0  0  0  0  0  0  0  0  0  0  0
   42.8640   -2.8103    0.0000 C   0  0  0  0  0  0  0  0  0  0  0  0
   42.1551   -2.4081    0.0000 C   0  0  0  0  0  0  0  0  0  0  0  0
   39.3346   -4.0619    0.0000 O   0  0  0  0  0  0  0  0  0  0  0  0
   36.5005   -4.0629    0.0000 O   0  0  0  0  0  0  0  0  0  0  0  0
   36.5019   -2.4269    0.0000 C   0  0  0  0  0  0  0  0  0  0  0  0
   37.9123   -1.6093    0.0000 O   0  0  0  0  0  0  0  0  0  0  0  0
   39.3359   -4.8791    0.0000 C   0  0  0  0  0  0  0  0  0  0  0  0
   39.3265   -1.6033    0.0000 O   0  0  0  0  0  0  0  0  0  0  0  0
   36.4999   -4.8801    0.0000 C   0  0  0  0  0  0  0  0  0  0  0  0
   35.7943   -2.8357    0.0000 C   0  0  0  0  0  0  0  0  0  0  0  0
   35.0865   -2.4273    0.0000 C   0  0  0  0  0  0  0  0  0  0  0  0
   34.3788   -2.8360    0.0000 C   0  0  0  0  0  0  0  0  0  0  0  0
   35.0863   -1.6101    0.0000 C   0  0  0  0  0  0  0  0  0  0  0  0
   43.5691   -2.3989    0.0000 N   0  0  0  0  0  0  0  0  0  0  0  0
   44.2796   -2.8045    0.0000 C   0  0  0  0  0  0  0  0  0  0  0  0
   44.9823   -2.3943    0.0000 C   0  0  0  0  0  0  0  0  0  0  0  0
   44.9805   -1.5767    0.0000 N   0  0  0  0  0  0  0  0  0  0  0  0
   44.2700   -1.1711    0.0000 C   0  0  0  0  0  0  0  0  0  0  0  0
   43.5612   -1.5831    0.0000 C   0  0  0  0  0  0  0  0  0  0  0  0
  1  2  2  0
  2  3  1  0
  3  4  2  0
  4  5  1  0
  5  6  2  0
  6  1  1  0
  5  7  1  0
  7  8  1  0
  8  9  2  3
  9 10  1  0
 10 11  2  0
 11 12  1  0
 12 13  2  0
 13 14  1  0
 14 15  2  0
 15 10  1  0
  4 16  1  0
  2 17  1  0
  1 18  1  0
  6 19  1  0
 16 20  1  0
  7 21  2  0
 17 22  1  0
 18 23  1  0
 23 24  2  3
 24 25  1  0
 24 26  1  0
 27 28  1  0
 27 32  1  0
 28 29  1  0
 29 30  1  0
 30 31  1  0
 31 32  1  0
 14 27  1  0
M  END
>  <Classification>  (920) 
1

>  <pchembl>  (920) 
5.99

>  <InChI_steorem>  (920) 
InChI=1S/C26H32N2O4/c1-18(2)8-10-21-23(31-3)17-24(32-4)25(26(21)30)22(29)11-9-19-6-5-7-20(16-19)28-14-12-27-13-15-28/h5-9,11,16-17,27,30H,10,12-15H2,1-4H3

>  <source>  (920) 
ChEMBL28

>  <source_id>  (920) 
28

>  <optional_reference>  (920) 
10.1016/j.ejmech.2019.05.053

>  <optional_origin>  (920) 
None

>  <target>  (920) 
MDR1

$$$$

     RDKit          2D

 32 34  0  0  0  0  0  0  0  0999 V2000
    3.7667   -0.4542    0.0000 C   0  0  0  0  0  0  0  0  0  0  0  0
    3.7667   -1.1667    0.0000 C   0  0  0  0  0  0  0  0  0  0  0  0
    2.5292   -0.4542    0.0000 C   0  0  0  0  0  0  0  0  0  0  0  0
    2.5292   -1.1667    0.0000 C   0  0  0  0  0  0  0  0  0  0  0  0
    3.1500   -0.0958    0.0000 C   0  0  0  0  0  0  0  0  0  0  0  0
    3.1500   -1.5292    0.0000 C   0  0  0  0  0  0  0  0  0  0  0  0
    4.3792   -1.5292    0.0000 C   0  0  0  0  0  0  0  0  0  0  0  0
    4.3792   -0.0958    0.0000 C   0  0  0  0  0  0  0  0  0  0  0  0
    1.9167   -0.0958    0.0000 C   0  0  0  0  0  0  0  0  0  0  0  0
    1.9167   -1.5292    0.0000 C   0  0  0  0  0  0  0  0  0  0  0  0
    3.1500    0.6083    0.0000 O   0  0  0  0  0  0  0  0  0  0  0  0
    3.1500   -2.2375    0.0000 O   0  0  0  0  0  0  0  0  0  0  0  0
    4.9917   -0.4542    0.0000 C   0  0  0  0  0  0  0  0  0  0  0  0
    4.9917   -1.1667    0.0000 C   0  0  0  0  0  0  0  0  0  0  0  0
    1.3042   -0.4542    0.0000 C   0  0  0  0  0  0  0  0  0  0  0  0
    1.3042   -1.1667    0.0000 C   0  0  0  0  0  0  0  0  0  0  0  0
    4.3792    0.6083    0.0000 N   0  0  0  0  0  0  0  0  0  0  0  0
    4.3792   -2.2375    0.0000 N   0  0  0  0  0  0  0  0  0  0  0  0
    1.9167    0.6083    0.0000 O   0  0  0  0  0  0  0  0  0  0  0  0
    1.9167   -2.2375    0.0000 O   0  0  0  0  0  0  0  0  0  0  0  0
    6.2292    0.9625    0.0000 N   0  0  0  0  0  0  0  0  0  0  0  0
    6.2292   -2.5917    0.0000 N   0  0  0  0  0  0  0  0  0  0  0  0
    8.0750   -2.2375    0.0000 O   0  0  0  0  0  0  0  0  0  0  0  0
    8.0750    0.6083    0.0000 O   0  0  0  0  0  0  0  0  0  0  0  0
    4.9917    0.9625    0.0000 C   0  0  0  0  0  0  0  0  0  0  0  0
    4.9917   -2.5917    0.0000 C   0  0  0  0  0  0  0  0  0  0  0  0
    5.6125   -2.2375    0.0000 C   0  0  0  0  0  0  0  0  0  0  0  0
    5.6125    0.6083    0.0000 C   0  0  0  0  0  0  0  0  0  0  0  0
    6.8417   -2.2375    0.0000 C   0  0  0  0  0  0  0  0  0  0  0  0
    6.8417    0.6083    0.0000 C   0  0  0  0  0  0  0  0  0  0  0  0
    7.4625   -2.5917    0.0000 C   0  0  0  0  0  0  0  0  0  0  0  0
    7.4625    0.9625    0.0000 C   0  0  0  0  0  0  0  0  0  0  0  0
  2  1  2  0
  3  5  1  0
  4  3  2  0
  5  1  1  0
  6  2  1  0
  7  2  1  0
  8  1  1  0
  9  3  1  0
 10  4  1  0
 11  5  2  0
 12  6  2  0
 13  8  2  0
 14 13  1  0
 15  9  2  0
 16 15  1  0
 17  8  1  0
 18  7  1  0
 19  9  1  0
 20 10  1  0
 21 28  1  0
 22 27  1  0
 23 31  1  0
 24 32  1  0
 25 17  1  0
 26 18  1  0
 27 26  1  0
 28 25  1  0
 29 22  1  0
 30 21  1  0
 31 29  1  0
 32 30  1  0
  4  6  1  0
 14  7  2  0
 16 10  2  0
M  END
>  <Classification>  (921) 
1

>  <pchembl>  (921) 
5.82

>  <InChI_steorem>  (921) 
InChI=1S/C22H28N4O6/c27-11-9-23-5-7-25-13-1-2-14(26-8-6-24-10-12-28)18-17(13)21(31)19-15(29)3-4-16(30)20(19)22(18)32/h1-4,23-30H,5-12H2

>  <source>  (921) 
ChEMBL28

>  <source_id>  (921) 
28

>  <optional_reference>  (921) 
10.1021/acs.jmedchem.9b00963

>  <optional_origin>  (921) 
None

>  <target>  (921) 
MDR1

$$$$

     RDKit          2D

 32 34  0  0  0  0  0  0  0  0999 V2000
   42.8245  -12.1940    0.0000 C   0  0  0  0  0  0  0  0  0  0  0  0
   42.8244  -13.0142    0.0000 C   0  0  0  0  0  0  0  0  0  0  0  0
   43.5370  -13.4201    0.0000 C   0  0  0  0  0  0  0  0  0  0  0  0
   44.2441  -13.0088    0.0000 C   0  0  0  0  0  0  0  0  0  0  0  0
   44.2384  -12.1832    0.0000 C   0  0  0  0  0  0  0  0  0  0  0  0
   43.5294  -11.7770    0.0000 C   0  0  0  0  0  0  0  0  0  0  0  0
   44.9579  -13.4180    0.0000 N   0  0  0  0  0  0  0  0  0  0  0  0
   44.9601  -14.2403    0.0000 C   0  0  0  0  0  0  0  0  0  0  0  0
   45.6699  -14.6493    0.0000 C   0  0  0  0  0  0  0  0  0  0  0  0
   46.3821  -14.2364    0.0000 N   0  0  0  0  0  0  0  0  0  0  0  0
   46.3799  -13.4142    0.0000 C   0  0  0  0  0  0  0  0  0  0  0  0
   45.6655  -13.0048    0.0000 C   0  0  0  0  0  0  0  0  0  0  0  0
   42.1133  -13.4240    0.0000 C   0  0  0  0  0  0  0  0  0  0  0  0
   41.4008  -13.0166    0.0000 C   0  0  0  0  0  0  0  0  0  0  0  0
   40.6896  -13.4264    0.0000 C   0  0  0  0  0  0  0  0  0  0  0  0
   39.9771  -13.0189    0.0000 C   0  0  0  0  0  0  0  0  0  0  0  0
   40.6910  -14.2477    0.0000 O   0  0  0  0  0  0  0  0  0  0  0  0
   39.9793  -12.1982    0.0000 C   0  0  0  0  0  0  0  0  0  0  0  0
   39.2676  -11.7867    0.0000 C   0  0  0  0  0  0  0  0  0  0  0  0
   38.5555  -12.2007    0.0000 C   0  0  0  0  0  0  0  0  0  0  0  0
   38.5595  -13.0262    0.0000 C   0  0  0  0  0  0  0  0  0  0  0  0
   39.2717  -13.4299    0.0000 C   0  0  0  0  0  0  0  0  0  0  0  0
   39.2766  -14.2512    0.0000 O   0  0  0  0  0  0  0  0  0  0  0  0
   38.5672  -14.6681    0.0000 C   0  0  0  0  0  0  0  0  0  0  0  0
   37.8465  -11.7901    0.0000 O   0  0  0  0  0  0  0  0  0  0  0  0
   37.8441  -10.9688    0.0000 C   0  0  0  0  0  0  0  0  0  0  0  0
   40.6914  -11.7860    0.0000 O   0  0  0  0  0  0  0  0  0  0  0  0
   39.2666  -10.9654    0.0000 C   0  0  0  0  0  0  0  0  0  0  0  0
   39.9780  -10.5560    0.0000 C   0  0  0  0  0  0  0  0  0  0  0  0
   39.9770   -9.7347    0.0000 C   0  0  0  0  0  0  0  0  0  0  0  0
   40.6884   -9.3211    0.0000 C   0  0  0  0  0  0  0  0  0  0  0  0
   40.6874   -8.4998    0.0000 C   0  0  0  0  0  0  0  0  0  0  0  0
  1  2  2  0
  2  3  1  0
  3  4  2  0
  4  5  1  0
  5  6  2  0
  6  1  1  0
  7  8  1  0
  7 12  1  0
  8  9  1  0
  9 10  1  0
 10 11  1  0
 11 12  1  0
  4  7  1  0
  2 13  1  0
 13 14  2  3
 14 15  1  0
 15 16  1  0
 15 17  2  0
 16 18  2  0
 18 19  1  0
 19 20  2  0
 20 21  1  0
 21 22  2  0
 22 16  1  0
 22 23  1  0
 23 24  1  0
 20 25  1  0
 25 26  1  0
 18 27  1  0
 19 28  1  0
 28 29  1  0
 29 30  1  0
 30 31  1  0
 31 32  1  0
M  END
>  <Classification>  (922) 
0

>  <pchembl>  (922) 
4.63

>  <InChI_steorem>  (922) 
InChI=1S/C26H34N2O4/c1-4-5-6-10-21-23(31-2)18-24(32-3)25(26(21)30)22(29)12-11-19-8-7-9-20(17-19)28-15-13-27-14-16-28/h7-9,11-12,17-18,27,30H,4-6,10,13-16H2,1-3H3

>  <source>  (922) 
ChEMBL28

>  <source_id>  (922) 
28

>  <optional_reference>  (922) 
10.1016/j.ejmech.2019.05.053

>  <optional_origin>  (922) 
None

>  <target>  (922) 
MDR1

$$$$

     RDKit          2D

 32 35  0  0  0  0  0  0  0  0999 V2000
   20.1972   -4.3339    0.0000 O   0  0  0  0  0  0  0  0  0  0  0  0
   20.9190   -4.7169    0.0000 C   0  0  0  0  0  0  0  0  0  0  0  0
   20.9468   -5.5336    0.0000 C   0  0  0  0  0  0  0  0  0  0  0  0
   22.3295   -4.6621    0.0000 C   0  0  0  0  0  0  0  0  0  0  0  0
   21.6080   -4.2828    0.0000 C   0  0  0  0  0  0  0  0  0  0  0  0
   22.3615   -5.4829    0.0000 C   0  0  0  0  0  0  0  0  0  0  0  0
   21.6682   -5.9117    0.0000 C   0  0  0  0  0  0  0  0  0  0  0  0
   21.6928   -6.7219    0.0000 O   0  0  0  0  0  0  0  0  0  0  0  0
   22.4092   -7.1096    0.0000 C   0  0  0  0  0  0  0  0  0  0  0  0
   23.1024   -6.6808    0.0000 C   0  0  0  0  0  0  0  0  0  0  0  0
   23.0793   -5.8644    0.0000 C   0  0  0  0  0  0  0  0  0  0  0  0
   22.4328   -7.9265    0.0000 O   0  0  0  0  0  0  0  0  0  0  0  0
   23.8218   -7.0685    0.0000 Cl  0  0  0  0  0  0  0  0  0  0  0  0
   23.7737   -5.4336    0.0000 C   0  0  0  0  0  0  0  0  0  0  0  0
   13.8233   -4.7322    0.0000 C   0  0  0  0  0  0  0  0  0  0  0  0
   13.8221   -5.5517    0.0000 C   0  0  0  0  0  0  0  0  0  0  0  0
   14.5302   -5.9607    0.0000 C   0  0  0  0  0  0  0  0  0  0  0  0
   14.5284   -4.3233    0.0000 C   0  0  0  0  0  0  0  0  0  0  0  0
   15.2370   -4.7286    0.0000 C   0  0  0  0  0  0  0  0  0  0  0  0
   15.2359   -5.5492    0.0000 C   0  0  0  0  0  0  0  0  0  0  0  0
   15.9421   -5.9582    0.0000 C   0  0  0  0  0  0  0  0  0  0  0  0
   16.6539   -5.5512    0.0000 C   0  0  0  0  0  0  0  0  0  0  0  0
   16.6551   -4.7306    0.0000 N   0  0  0  0  0  0  0  0  0  0  0  0
   15.9444   -4.3170    0.0000 C   0  0  0  0  0  0  0  0  0  0  0  0
   17.3638   -4.3237    0.0000 C   0  0  0  0  0  0  0  0  0  0  0  0
   18.0705   -4.7340    0.0000 C   0  0  0  0  0  0  0  0  0  0  0  0
   18.7792   -4.3271    0.0000 C   0  0  0  0  0  0  0  0  0  0  0  0
   13.1155   -4.3237    0.0000 O   0  0  0  0  0  0  0  0  0  0  0  0
   12.4079   -4.7325    0.0000 C   0  0  0  0  0  0  0  0  0  0  0  0
   13.1141   -5.9597    0.0000 O   0  0  0  0  0  0  0  0  0  0  0  0
   12.4067   -5.5506    0.0000 C   0  0  0  0  0  0  0  0  0  0  0  0
   19.4859   -4.7374    0.0000 C   0  0  0  0  0  0  0  0  0  0  0  0
  1  2  1  0
  2  3  2  0
  3  7  1  0
  6  4  1  0
  4  5  2  0
  5  2  1  0
  6  7  2  0
  6 11  1  0
  7  8  1  0
  8  9  1  0
  9 10  1  0
 10 11  2  0
  9 12  2  0
 10 13  1  0
 11 14  1  0
 15 16  2  0
 16 17  1  0
 17 20  2  0
 19 18  2  0
 18 15  1  0
 19 20  1  0
 19 24  1  0
 20 21  1  0
 21 22  1  0
 22 23  1  0
 23 24  1  0
 23 25  1  0
 25 26  1  0
 26 27  1  0
 15 28  1  0
 28 29  1  0
 16 30  1  0
 30 31  1  0
 27 32  1  0
 32  1  1  0
M  END
>  <Classification>  (923) 
1

>  <pchembl>  (923) 
6.25

>  <InChI_steorem>  (923) 
InChI=1S/C25H28ClNO5/c1-16-20-7-6-19(14-21(20)32-25(28)24(16)26)31-11-5-4-9-27-10-8-17-12-22(29-2)23(30-3)13-18(17)15-27/h6-7,12-14H,4-5,8-11,15H2,1-3H3

>  <source>  (923) 
ChEMBL28

>  <source_id>  (923) 
28

>  <optional_reference>  (923) 
10.1016/j.ejmech.2018.10.043

>  <optional_origin>  (923) 
None

>  <target>  (923) 
MDR1

$$$$

     RDKit          2D

 32 35  0  0  0  0  0  0  0  0999 V2000
   25.4501  -14.3119    0.0000 O   0  0  0  0  0  0  0  0  0  0  0  0
   26.1568  -14.7222    0.0000 C   0  0  0  0  0  0  0  0  0  0  0  0
   26.1534  -15.5394    0.0000 C   0  0  0  0  0  0  0  0  0  0  0  0
   27.5683  -14.7212    0.0000 C   0  0  0  0  0  0  0  0  0  0  0  0
   26.8619  -14.3147    0.0000 C   0  0  0  0  0  0  0  0  0  0  0  0
   27.5690  -15.5427    0.0000 C   0  0  0  0  0  0  0  0  0  0  0  0
   26.8599  -15.9447    0.0000 C   0  0  0  0  0  0  0  0  0  0  0  0
   26.8535  -16.7553    0.0000 O   0  0  0  0  0  0  0  0  0  0  0  0
   27.5546  -17.1700    0.0000 C   0  0  0  0  0  0  0  0  0  0  0  0
   28.2637  -16.7680    0.0000 C   0  0  0  0  0  0  0  0  0  0  0  0
   28.2717  -15.9512    0.0000 C   0  0  0  0  0  0  0  0  0  0  0  0
   27.5471  -17.9871    0.0000 O   0  0  0  0  0  0  0  0  0  0  0  0
   28.9677  -17.1828    0.0000 C   0  0  0  0  0  0  0  0  0  0  0  0
   28.9820  -15.5472    0.0000 C   0  0  0  0  0  0  0  0  0  0  0  0
   19.0788  -14.7135    0.0000 C   0  0  0  0  0  0  0  0  0  0  0  0
   19.0776  -15.5331    0.0000 C   0  0  0  0  0  0  0  0  0  0  0  0
   19.7857  -15.9420    0.0000 C   0  0  0  0  0  0  0  0  0  0  0  0
   19.7839  -14.3047    0.0000 C   0  0  0  0  0  0  0  0  0  0  0  0
   20.4925  -14.7099    0.0000 C   0  0  0  0  0  0  0  0  0  0  0  0
   20.4913  -15.5306    0.0000 C   0  0  0  0  0  0  0  0  0  0  0  0
   21.1975  -15.9396    0.0000 C   0  0  0  0  0  0  0  0  0  0  0  0
   21.9094  -15.5326    0.0000 C   0  0  0  0  0  0  0  0  0  0  0  0
   21.9106  -14.7119    0.0000 N   0  0  0  0  0  0  0  0  0  0  0  0
   21.1998  -14.2983    0.0000 C   0  0  0  0  0  0  0  0  0  0  0  0
   22.6193  -14.3051    0.0000 C   0  0  0  0  0  0  0  0  0  0  0  0
   23.3260  -14.7154    0.0000 C   0  0  0  0  0  0  0  0  0  0  0  0
   24.0347  -14.3085    0.0000 C   0  0  0  0  0  0  0  0  0  0  0  0
   24.7414  -14.7188    0.0000 C   0  0  0  0  0  0  0  0  0  0  0  0
   18.3710  -14.3051    0.0000 O   0  0  0  0  0  0  0  0  0  0  0  0
   17.6633  -14.7139    0.0000 C   0  0  0  0  0  0  0  0  0  0  0  0
   18.3696  -15.9411    0.0000 O   0  0  0  0  0  0  0  0  0  0  0  0
   17.6622  -15.5319    0.0000 C   0  0  0  0  0  0  0  0  0  0  0  0
  1  2  1  0
  2  3  2  0
  3  7  1  0
  6  4  1  0
  4  5  2  0
  5  2  1  0
  6  7  2  0
  6 11  1  0
  7  8  1  0
  8  9  1  0
  9 10  1  0
 10 11  2  0
  9 12  2  0
 10 13  1  0
 11 14  1  0
 15 16  2  0
 16 17  1  0
 17 20  2  0
 19 18  2  0
 18 15  1  0
 19 20  1  0
 19 24  1  0
 20 21  1  0
 21 22  1  0
 22 23  1  0
 23 24  1  0
 23 25  1  0
 25 26  1  0
 26 27  1  0
 27 28  1  0
 28  1  1  0
 15 29  1  0
 29 30  1  0
 16 31  1  0
 31 32  1  0
M  END
>  <Classification>  (924) 
1

>  <pchembl>  (924) 
6.82

>  <InChI_steorem>  (924) 
InChI=1S/C26H31NO5/c1-17-18(2)26(28)32-23-15-21(7-8-22(17)23)31-12-6-5-10-27-11-9-19-13-24(29-3)25(30-4)14-20(19)16-27/h7-8,13-15H,5-6,9-12,16H2,1-4H3

>  <source>  (924) 
ChEMBL28

>  <source_id>  (924) 
28

>  <optional_reference>  (924) 
10.1016/j.ejmech.2018.10.043

>  <optional_origin>  (924) 
None

>  <target>  (924) 
MDR1

$$$$

     RDKit          2D

 32 35  0  0  0  0  0  0  0  0999 V2000
   25.6564  -19.9745    0.0000 O   0  0  0  0  0  0  0  0  0  0  0  0
   26.3632  -20.3848    0.0000 C   0  0  0  0  0  0  0  0  0  0  0  0
   26.3598  -21.2019    0.0000 C   0  0  0  0  0  0  0  0  0  0  0  0
   27.7747  -20.3838    0.0000 C   0  0  0  0  0  0  0  0  0  0  0  0
   27.0682  -19.9773    0.0000 C   0  0  0  0  0  0  0  0  0  0  0  0
   27.7753  -21.2052    0.0000 C   0  0  0  0  0  0  0  0  0  0  0  0
   27.0663  -21.6072    0.0000 C   0  0  0  0  0  0  0  0  0  0  0  0
   27.0599  -22.4178    0.0000 O   0  0  0  0  0  0  0  0  0  0  0  0
   27.7609  -22.8325    0.0000 C   0  0  0  0  0  0  0  0  0  0  0  0
   28.4700  -22.4305    0.0000 C   0  0  0  0  0  0  0  0  0  0  0  0
   28.4781  -21.6138    0.0000 C   0  0  0  0  0  0  0  0  0  0  0  0
   27.7534  -23.6497    0.0000 O   0  0  0  0  0  0  0  0  0  0  0  0
   29.1741  -22.8454    0.0000 C   0  0  0  0  0  0  0  0  0  0  0  0
   29.1884  -21.2098    0.0000 C   0  0  0  0  0  0  0  0  0  0  0  0
   19.2851  -20.3761    0.0000 C   0  0  0  0  0  0  0  0  0  0  0  0
   19.2840  -21.1956    0.0000 C   0  0  0  0  0  0  0  0  0  0  0  0
   19.9920  -21.6046    0.0000 C   0  0  0  0  0  0  0  0  0  0  0  0
   19.9902  -19.9672    0.0000 C   0  0  0  0  0  0  0  0  0  0  0  0
   20.6989  -20.3725    0.0000 C   0  0  0  0  0  0  0  0  0  0  0  0
   20.6977  -21.1931    0.0000 C   0  0  0  0  0  0  0  0  0  0  0  0
   21.4039  -21.6022    0.0000 C   0  0  0  0  0  0  0  0  0  0  0  0
   22.1158  -21.1951    0.0000 C   0  0  0  0  0  0  0  0  0  0  0  0
   22.1169  -20.3745    0.0000 N   0  0  0  0  0  0  0  0  0  0  0  0
   21.4062  -19.9609    0.0000 C   0  0  0  0  0  0  0  0  0  0  0  0
   22.8256  -19.9676    0.0000 C   0  0  0  0  0  0  0  0  0  0  0  0
   23.5323  -20.3779    0.0000 C   0  0  0  0  0  0  0  0  0  0  0  0
   24.2410  -19.9710    0.0000 C   0  0  0  0  0  0  0  0  0  0  0  0
   24.9478  -20.3813    0.0000 C   0  0  0  0  0  0  0  0  0  0  0  0
   18.5773  -19.9677    0.0000 O   0  0  0  0  0  0  0  0  0  0  0  0
   17.8697  -20.3764    0.0000 C   0  0  0  0  0  0  0  0  0  0  0  0
   18.5759  -21.6037    0.0000 O   0  0  0  0  0  0  0  0  0  0  0  0
   17.8686  -21.1945    0.0000 C   0  0  0  0  0  0  0  0  0  0  0  0
  1  2  1  0
  2  3  2  0
  3  7  1  0
  6  4  1  0
  4  5  2  0
  5  2  1  0
  6  7  2  0
  6 11  1  0
  7  8  1  0
  8  9  1  0
  9 10  1  0
 10 11  2  0
  9 12  2  0
 10 13  1  0
 11 14  1  0
 15 16  2  0
 16 17  1  0
 17 20  2  0
 19 18  2  0
 18 15  1  0
 19 20  1  0
 19 24  1  0
 20 21  1  0
 21 22  1  0
 22 23  1  0
 23 24  1  0
 23 25  1  0
 25 26  1  0
 26 27  2  3
 27 28  1  0
 28  1  1  0
 15 29  1  0
 29 30  1  0
 16 31  1  0
 31 32  1  0
M  END
>  <Classification>  (925) 
1

>  <pchembl>  (925) 
6.0

>  <InChI_steorem>  (925) 
InChI=1S/C26H29NO5/c1-17-18(2)26(28)32-23-15-21(7-8-22(17)23)31-12-6-5-10-27-11-9-19-13-24(29-3)25(30-4)14-20(19)16-27/h5-8,13-15H,9-12,16H2,1-4H3

>  <source>  (925) 
ChEMBL28

>  <source_id>  (925) 
28

>  <optional_reference>  (925) 
10.1016/j.ejmech.2018.10.043

>  <optional_origin>  (925) 
None

>  <target>  (925) 
MDR1

$$$$

     RDKit          2D

 32 36  0  0  0  0  0  0  0  0999 V2000
   15.2457  -16.9780    0.0000 C   0  0  0  0  0  0  0  0  0  0  0  0
   15.9554  -16.5685    0.0000 C   0  0  0  0  0  0  0  0  0  0  0  0
   15.9525  -15.7459    0.0000 C   0  0  0  0  0  0  0  0  0  0  0  0
   15.2439  -15.3406    0.0000 C   0  0  0  0  0  0  0  0  0  0  0  0
   14.5377  -16.5690    0.0000 C   0  0  0  0  0  0  0  0  0  0  0  0
   14.5344  -15.7525    0.0000 C   0  0  0  0  0  0  0  0  0  0  0  0
   13.7568  -15.5033    0.0000 C   0  0  0  0  0  0  0  0  0  0  0  0
   13.2795  -16.1658    0.0000 C   0  0  0  0  0  0  0  0  0  0  0  0
   13.7621  -16.8244    0.0000 O   0  0  0  0  0  0  0  0  0  0  0  0
   16.6587  -15.3346    0.0000 C   0  0  0  0  0  0  0  0  0  0  0  0
   17.3679  -15.7405    0.0000 N   0  0  0  0  0  0  0  0  0  0  0  0
   17.3684  -16.5549    0.0000 C   0  0  0  0  0  0  0  0  0  0  0  0
   18.0736  -16.9608    0.0000 C   0  0  0  0  0  0  0  0  0  0  0  0
   18.7822  -16.5530    0.0000 N   0  0  0  0  0  0  0  0  0  0  0  0
   18.7811  -15.7349    0.0000 C   0  0  0  0  0  0  0  0  0  0  0  0
   18.0714  -15.3245    0.0000 C   0  0  0  0  0  0  0  0  0  0  0  0
   19.4899  -16.9616    0.0000 C   0  0  0  0  0  0  0  0  0  0  0  0
   19.4899  -17.7788    0.0000 O   0  0  0  0  0  0  0  0  0  0  0  0
   20.1976  -16.5530    0.0000 C   0  0  0  0  0  0  0  0  0  0  0  0
   20.9053  -16.9616    0.0000 S   0  0  0  0  0  0  0  0  0  0  0  0
   21.6130  -16.5530    0.0000 C   0  0  0  0  0  0  0  0  0  0  0  0
   22.3579  -16.8813    0.0000 N   0  0  0  0  0  0  0  0  0  0  0  0
   22.9047  -16.2740    0.0000 N   0  0  0  0  0  0  0  0  0  0  0  0
   22.4961  -15.5662    0.0000 C   0  0  0  0  0  0  0  0  0  0  0  0
   21.6968  -15.7362    0.0000 O   0  0  0  0  0  0  0  0  0  0  0  0
   22.8258  -14.8221    0.0000 C   0  0  0  0  0  0  0  0  0  0  0  0
   23.6397  -14.7379    0.0000 C   0  0  0  0  0  0  0  0  0  0  0  0
   23.9721  -13.9921    0.0000 C   0  0  0  0  0  0  0  0  0  0  0  0
   23.4915  -13.3301    0.0000 C   0  0  0  0  0  0  0  0  0  0  0  0
   22.6749  -13.4186    0.0000 C   0  0  0  0  0  0  0  0  0  0  0  0
   22.3463  -14.1645    0.0000 C   0  0  0  0  0  0  0  0  0  0  0  0
   23.8229  -12.5831    0.0000 F   0  0  0  0  0  0  0  0  0  0  0  0
  5  1  2  0
  1  2  1  0
  2  3  2  0
  3  4  1  0
  4  6  2  0
  5  6  1  0
  6  7  1  0
  7  8  1  0
  8  9  1  0
  9  5  1  0
  3 10  1  0
 10 11  1  0
 11 12  1  0
 11 16  1  0
 12 13  1  0
 13 14  1  0
 14 15  1  0
 15 16  1  0
 14 17  1  0
 17 18  2  0
 17 19  1  0
 19 20  1  0
 20 21  1  0
 21 22  2  0
 22 23  1  0
 23 24  2  0
 24 25  1  0
 25 21  1  0
 26 27  2  0
 27 28  1  0
 28 29  2  0
 29 30  1  0
 30 31  2  0
 31 26  1  0
 24 26  1  0
 29 32  1  0
M  END
>  <Classification>  (926) 
0

>  <pchembl>  (926) 
4.51

>  <InChI_steorem>  (926) 
InChI=1S/C23H23FN4O3S/c24-19-4-2-17(3-5-19)22-25-26-23(31-22)32-15-21(29)28-10-8-27(9-11-28)14-16-1-6-20-18(13-16)7-12-30-20/h1-6,13H,7-12,14-15H2

>  <source>  (926) 
ChEMBL28

>  <source_id>  (926) 
28

>  <optional_reference>  (926) 
10.1021/acs.jmedchem.8b01821

>  <optional_origin>  (926) 
None

>  <target>  (926) 
MDR1

$$$$

     RDKit          2D

 33 35  0  0  0  0  0  0  0  0999 V2000
    4.1299   -3.3224    0.0000 C   0  0  0  0  0  0  0  0  0  0  0  0
    4.1288   -4.1419    0.0000 C   0  0  0  0  0  0  0  0  0  0  0  0
    4.8368   -4.5509    0.0000 C   0  0  0  0  0  0  0  0  0  0  0  0
    5.5465   -4.1414    0.0000 C   0  0  0  0  0  0  0  0  0  0  0  0
    5.5437   -3.3188    0.0000 C   0  0  0  0  0  0  0  0  0  0  0  0
    4.8351   -2.9135    0.0000 C   0  0  0  0  0  0  0  0  0  0  0  0
    6.2498   -2.9075    0.0000 C   0  0  0  0  0  0  0  0  0  0  0  0
    6.9591   -3.3134    0.0000 C   0  0  0  0  0  0  0  0  0  0  0  0
    7.6652   -2.9022    0.0000 C   0  0  0  0  0  0  0  0  0  0  0  0
    8.3745   -3.3081    0.0000 C   0  0  0  0  0  0  0  0  0  0  0  0
    8.3745   -4.1242    0.0000 C   0  0  0  0  0  0  0  0  0  0  0  0
    9.0829   -4.5300    0.0000 C   0  0  0  0  0  0  0  0  0  0  0  0
    9.7900   -4.1187    0.0000 C   0  0  0  0  0  0  0  0  0  0  0  0
    9.7843   -3.2973    0.0000 C   0  0  0  0  0  0  0  0  0  0  0  0
    9.0753   -2.8952    0.0000 C   0  0  0  0  0  0  0  0  0  0  0  0
    6.2548   -4.5489    0.0000 O   0  0  0  0  0  0  0  0  0  0  0  0
    3.4208   -4.5500    0.0000 O   0  0  0  0  0  0  0  0  0  0  0  0
    3.4221   -2.9140    0.0000 C   0  0  0  0  0  0  0  0  0  0  0  0
    4.8326   -2.0963    0.0000 O   0  0  0  0  0  0  0  0  0  0  0  0
    6.2561   -5.3661    0.0000 C   0  0  0  0  0  0  0  0  0  0  0  0
    6.2468   -2.0903    0.0000 O   0  0  0  0  0  0  0  0  0  0  0  0
    3.4201   -5.3671    0.0000 C   0  0  0  0  0  0  0  0  0  0  0  0
    2.7145   -3.3227    0.0000 C   0  0  0  0  0  0  0  0  0  0  0  0
    2.0067   -2.9143    0.0000 C   0  0  0  0  0  0  0  0  0  0  0  0
    1.2991   -3.3231    0.0000 C   0  0  0  0  0  0  0  0  0  0  0  0
    2.0065   -2.0971    0.0000 C   0  0  0  0  0  0  0  0  0  0  0  0
   10.4894   -2.8859    0.0000 N   0  0  0  0  0  0  0  0  0  0  0  0
   11.1999   -3.2915    0.0000 C   0  0  0  0  0  0  0  0  0  0  0  0
   11.9025   -2.8813    0.0000 C   0  0  0  0  0  0  0  0  0  0  0  0
   11.9008   -2.0637    0.0000 N   0  0  0  0  0  0  0  0  0  0  0  0
   11.1903   -1.6581    0.0000 C   0  0  0  0  0  0  0  0  0  0  0  0
   10.4815   -2.0701    0.0000 C   0  0  0  0  0  0  0  0  0  0  0  0
   12.6071   -1.6527    0.0000 C   0  0  0  0  0  0  0  0  0  0  0  0
  1  2  2  0
  2  3  1  0
  3  4  2  0
  4  5  1  0
  5  6  2  0
  6  1  1  0
  5  7  1  0
  7  8  1  0
  8  9  2  3
  9 10  1  0
 10 11  2  0
 11 12  1  0
 12 13  2  0
 13 14  1  0
 14 15  2  0
 15 10  1  0
  4 16  1  0
  2 17  1  0
  1 18  1  0
  6 19  1  0
 16 20  1  0
  7 21  2  0
 17 22  1  0
 18 23  1  0
 23 24  2  3
 24 25  1  0
 24 26  1  0
 27 28  1  0
 27 32  1  0
 28 29  1  0
 29 30  1  0
 30 31  1  0
 31 32  1  0
 14 27  1  0
 30 33  1  0
M  END
>  <Classification>  (927) 
0

>  <pchembl>  (927) 
4.63

>  <InChI_steorem>  (927) 
InChI=1S/C27H34N2O4/c1-19(2)9-11-22-24(32-4)18-25(33-5)26(27(22)31)23(30)12-10-20-7-6-8-21(17-20)29-15-13-28(3)14-16-29/h6-10,12,17-18,31H,11,13-16H2,1-5H3

>  <source>  (927) 
ChEMBL28

>  <source_id>  (927) 
28

>  <optional_reference>  (927) 
10.1016/j.ejmech.2019.05.053

>  <optional_origin>  (927) 
None

>  <target>  (927) 
MDR1

$$$$

     RDKit          2D

 33 36  0  0  0  0  0  0  0  0999 V2000
   27.9605   -5.4193    0.0000 C   0  0  0  0  0  0  0  0  0  0  0  0
   27.9593   -6.2388    0.0000 C   0  0  0  0  0  0  0  0  0  0  0  0
   28.6674   -6.6478    0.0000 C   0  0  0  0  0  0  0  0  0  0  0  0
   28.6656   -5.0104    0.0000 C   0  0  0  0  0  0  0  0  0  0  0  0
   29.3742   -5.4157    0.0000 C   0  0  0  0  0  0  0  0  0  0  0  0
   29.3730   -6.2363    0.0000 C   0  0  0  0  0  0  0  0  0  0  0  0
   30.0792   -6.6454    0.0000 C   0  0  0  0  0  0  0  0  0  0  0  0
   30.7911   -6.2383    0.0000 C   0  0  0  0  0  0  0  0  0  0  0  0
   30.7923   -5.4177    0.0000 N   0  0  0  0  0  0  0  0  0  0  0  0
   30.0815   -5.0041    0.0000 C   0  0  0  0  0  0  0  0  0  0  0  0
   31.5010   -5.0108    0.0000 C   0  0  0  0  0  0  0  0  0  0  0  0
   32.2077   -5.4211    0.0000 C   0  0  0  0  0  0  0  0  0  0  0  0
   32.9164   -5.0142    0.0000 C   0  0  0  0  0  0  0  0  0  0  0  0
   27.2527   -5.0108    0.0000 O   0  0  0  0  0  0  0  0  0  0  0  0
   26.5450   -5.4196    0.0000 C   0  0  0  0  0  0  0  0  0  0  0  0
   27.2513   -6.6468    0.0000 O   0  0  0  0  0  0  0  0  0  0  0  0
   26.5439   -6.2377    0.0000 C   0  0  0  0  0  0  0  0  0  0  0  0
   33.6231   -5.4245    0.0000 C   0  0  0  0  0  0  0  0  0  0  0  0
   34.3318   -5.0176    0.0000 C   0  0  0  0  0  0  0  0  0  0  0  0
   35.0385   -5.4279    0.0000 O   0  0  0  0  0  0  0  0  0  0  0  0
   35.7482   -5.0228    0.0000 C   0  0  0  0  0  0  0  0  0  0  0  0
   36.4532   -5.4361    0.0000 C   0  0  0  0  0  0  0  0  0  0  0  0
   36.4562   -3.8017    0.0000 C   0  0  0  0  0  0  0  0  0  0  0  0
   35.7498   -4.2085    0.0000 C   0  0  0  0  0  0  0  0  0  0  0  0
   37.1668   -4.2136    0.0000 C   0  0  0  0  0  0  0  0  0  0  0  0
   37.1584   -5.0287    0.0000 C   0  0  0  0  0  0  0  0  0  0  0  0
   37.8562   -5.4412    0.0000 O   0  0  0  0  0  0  0  0  0  0  0  0
   38.5669   -5.0432    0.0000 C   0  0  0  0  0  0  0  0  0  0  0  0
   38.5753   -4.2281    0.0000 C   0  0  0  0  0  0  0  0  0  0  0  0
   37.8730   -3.8110    0.0000 C   0  0  0  0  0  0  0  0  0  0  0  0
   39.2698   -5.4600    0.0000 O   0  0  0  0  0  0  0  0  0  0  0  0
   39.2876   -3.8275    0.0000 Cl  0  0  0  0  0  0  0  0  0  0  0  0
   37.8803   -2.9939    0.0000 C   0  0  0  0  0  0  0  0  0  0  0  0
  1  2  2  0
  2  3  1  0
  3  6  2  0
  5  4  2  0
  4  1  1  0
  5  6  1  0
  5 10  1  0
  6  7  1  0
  7  8  1  0
  8  9  1  0
  9 10  1  0
  9 11  1  0
 11 12  1  0
 12 13  1  0
  1 14  1  0
 14 15  1  0
  2 16  1  0
 16 17  1  0
 13 18  1  0
 18 19  1  0
 19 20  1  0
 20 21  1  0
 21 22  2  0
 22 26  1  0
 25 23  1  0
 23 24  2  0
 24 21  1  0
 25 26  2  0
 25 30  1  0
 26 27  1  0
 27 28  1  0
 28 29  1  0
 29 30  2  0
 28 31  2  0
 29 32  1  0
 30 33  1  0
M  END
>  <Classification>  (928) 
1

>  <pchembl>  (928) 
6.34

>  <InChI_steorem>  (928) 
InChI=1S/C26H30ClNO5/c1-17-21-8-7-20(15-22(21)33-26(29)25(17)27)32-12-6-4-5-10-28-11-9-18-13-23(30-2)24(31-3)14-19(18)16-28/h7-8,13-15H,4-6,9-12,16H2,1-3H3

>  <source>  (928) 
ChEMBL28

>  <source_id>  (928) 
28

>  <optional_reference>  (928) 
10.1016/j.ejmech.2018.10.043

>  <optional_origin>  (928) 
None

>  <target>  (928) 
MDR1

$$$$

     RDKit          2D

 33 36  0  0  0  0  0  0  0  0999 V2000
    3.0237  -12.7492    0.0000 C   0  0  0  0  0  0  0  0  0  0  0  0
    3.0226  -13.5688    0.0000 C   0  0  0  0  0  0  0  0  0  0  0  0
    3.7306  -13.9777    0.0000 C   0  0  0  0  0  0  0  0  0  0  0  0
    3.7289  -12.3404    0.0000 C   0  0  0  0  0  0  0  0  0  0  0  0
    4.4375  -12.7456    0.0000 C   0  0  0  0  0  0  0  0  0  0  0  0
    4.4363  -13.5663    0.0000 C   0  0  0  0  0  0  0  0  0  0  0  0
    5.1425  -13.9753    0.0000 C   0  0  0  0  0  0  0  0  0  0  0  0
    5.8544  -13.5683    0.0000 C   0  0  0  0  0  0  0  0  0  0  0  0
    5.8555  -12.7476    0.0000 N   0  0  0  0  0  0  0  0  0  0  0  0
    5.1448  -12.3340    0.0000 C   0  0  0  0  0  0  0  0  0  0  0  0
    6.5642  -12.3407    0.0000 C   0  0  0  0  0  0  0  0  0  0  0  0
    7.2710  -12.7511    0.0000 C   0  0  0  0  0  0  0  0  0  0  0  0
    7.9797  -12.3442    0.0000 C   0  0  0  0  0  0  0  0  0  0  0  0
    2.3159  -12.3408    0.0000 O   0  0  0  0  0  0  0  0  0  0  0  0
    1.6083  -12.7496    0.0000 C   0  0  0  0  0  0  0  0  0  0  0  0
    2.3146  -13.9768    0.0000 O   0  0  0  0  0  0  0  0  0  0  0  0
    1.6072  -13.5676    0.0000 C   0  0  0  0  0  0  0  0  0  0  0  0
    8.6864  -12.7545    0.0000 C   0  0  0  0  0  0  0  0  0  0  0  0
    9.3951  -12.3476    0.0000 C   0  0  0  0  0  0  0  0  0  0  0  0
   10.1018  -12.7579    0.0000 O   0  0  0  0  0  0  0  0  0  0  0  0
   10.8115  -12.3528    0.0000 C   0  0  0  0  0  0  0  0  0  0  0  0
   11.5165  -12.7660    0.0000 C   0  0  0  0  0  0  0  0  0  0  0  0
   11.5194  -11.1316    0.0000 C   0  0  0  0  0  0  0  0  0  0  0  0
   10.8131  -11.5384    0.0000 C   0  0  0  0  0  0  0  0  0  0  0  0
   12.2301  -11.5435    0.0000 C   0  0  0  0  0  0  0  0  0  0  0  0
   12.2217  -12.3586    0.0000 C   0  0  0  0  0  0  0  0  0  0  0  0
   12.9195  -12.7711    0.0000 O   0  0  0  0  0  0  0  0  0  0  0  0
   13.6302  -12.3731    0.0000 C   0  0  0  0  0  0  0  0  0  0  0  0
   13.6386  -11.5581    0.0000 C   0  0  0  0  0  0  0  0  0  0  0  0
   12.9363  -11.1410    0.0000 C   0  0  0  0  0  0  0  0  0  0  0  0
   14.3331  -12.7900    0.0000 O   0  0  0  0  0  0  0  0  0  0  0  0
   14.3509  -11.1575    0.0000 Br  0  0  0  0  0  0  0  0  0  0  0  0
   12.9436  -10.3238    0.0000 C   0  0  0  0  0  0  0  0  0  0  0  0
  1  2  2  0
  2  3  1  0
  3  6  2  0
  5  4  2  0
  4  1  1  0
  5  6  1  0
  5 10  1  0
  6  7  1  0
  7  8  1  0
  8  9  1  0
  9 10  1  0
  9 11  1  0
 11 12  1  0
 12 13  1  0
  1 14  1  0
 14 15  1  0
  2 16  1  0
 16 17  1  0
 13 18  1  0
 18 19  1  0
 19 20  1  0
 20 21  1  0
 21 22  2  0
 22 26  1  0
 25 23  1  0
 23 24  2  0
 24 21  1  0
 25 26  2  0
 25 30  1  0
 26 27  1  0
 27 28  1  0
 28 29  1  0
 29 30  2  0
 28 31  2  0
 29 32  1  0
 30 33  1  0
M  END
>  <Classification>  (929) 
1

>  <pchembl>  (929) 
6.55

>  <InChI_steorem>  (929) 
InChI=1S/C26H30BrNO5/c1-17-21-8-7-20(15-22(21)33-26(29)25(17)27)32-12-6-4-5-10-28-11-9-18-13-23(30-2)24(31-3)14-19(18)16-28/h7-8,13-15H,4-6,9-12,16H2,1-3H3

>  <source>  (929) 
ChEMBL28

>  <source_id>  (929) 
28

>  <optional_reference>  (929) 
10.1016/j.ejmech.2018.10.043

>  <optional_origin>  (929) 
None

>  <target>  (929) 
MDR1

$$$$

     RDKit          2D

 33 36  0  0  0  0  0  0  0  0999 V2000
   40.1138  -15.9346    0.0000 O   0  0  0  0  0  0  0  0  0  0  0  0
   40.8203  -15.5239    0.0000 C   0  0  0  0  0  0  0  0  0  0  0  0
   41.5285  -15.9316    0.0000 C   0  0  0  0  0  0  0  0  0  0  0  0
   41.5187  -14.2972    0.0000 C   0  0  0  0  0  0  0  0  0  0  0  0
   40.8156  -14.7096    0.0000 C   0  0  0  0  0  0  0  0  0  0  0  0
   42.2326  -14.7036    0.0000 C   0  0  0  0  0  0  0  0  0  0  0  0
   42.2305  -15.5187    0.0000 C   0  0  0  0  0  0  0  0  0  0  0  0
   42.9316  -15.9257    0.0000 O   0  0  0  0  0  0  0  0  0  0  0  0
   43.6391  -15.5222    0.0000 C   0  0  0  0  0  0  0  0  0  0  0  0
   43.6411  -14.7071    0.0000 C   0  0  0  0  0  0  0  0  0  0  0  0
   42.9356  -14.2955    0.0000 C   0  0  0  0  0  0  0  0  0  0  0  0
   44.3452  -15.9335    0.0000 O   0  0  0  0  0  0  0  0  0  0  0  0
   44.3502  -14.3009    0.0000 C   0  0  0  0  0  0  0  0  0  0  0  0
   42.9365  -13.4783    0.0000 C   0  0  0  0  0  0  0  0  0  0  0  0
   33.0355  -15.9293    0.0000 C   0  0  0  0  0  0  0  0  0  0  0  0
   33.0344  -16.7489    0.0000 C   0  0  0  0  0  0  0  0  0  0  0  0
   33.7424  -17.1578    0.0000 C   0  0  0  0  0  0  0  0  0  0  0  0
   33.7406  -15.5205    0.0000 C   0  0  0  0  0  0  0  0  0  0  0  0
   34.4493  -15.9257    0.0000 C   0  0  0  0  0  0  0  0  0  0  0  0
   34.4481  -16.7464    0.0000 C   0  0  0  0  0  0  0  0  0  0  0  0
   35.1543  -17.1554    0.0000 C   0  0  0  0  0  0  0  0  0  0  0  0
   35.8662  -16.7484    0.0000 C   0  0  0  0  0  0  0  0  0  0  0  0
   35.8673  -15.9277    0.0000 N   0  0  0  0  0  0  0  0  0  0  0  0
   35.1566  -15.5141    0.0000 C   0  0  0  0  0  0  0  0  0  0  0  0
   36.5760  -15.5208    0.0000 C   0  0  0  0  0  0  0  0  0  0  0  0
   37.2828  -15.9311    0.0000 C   0  0  0  0  0  0  0  0  0  0  0  0
   37.9914  -15.5243    0.0000 C   0  0  0  0  0  0  0  0  0  0  0  0
   38.6982  -15.9346    0.0000 C   0  0  0  0  0  0  0  0  0  0  0  0
   39.4069  -15.5277    0.0000 C   0  0  0  0  0  0  0  0  0  0  0  0
   32.3277  -15.5209    0.0000 O   0  0  0  0  0  0  0  0  0  0  0  0
   31.6201  -15.9297    0.0000 C   0  0  0  0  0  0  0  0  0  0  0  0
   32.3264  -17.1569    0.0000 O   0  0  0  0  0  0  0  0  0  0  0  0
   31.6190  -16.7477    0.0000 C   0  0  0  0  0  0  0  0  0  0  0  0
  1  2  1  0
  2  3  2  0
  3  7  1  0
  6  4  1  0
  4  5  2  0
  5  2  1  0
  6  7  2  0
  6 11  1  0
  7  8  1  0
  8  9  1  0
  9 10  1  0
 10 11  2  0
  9 12  2  0
 10 13  1  0
 11 14  1  0
 15 16  2  0
 16 17  1  0
 17 20  2  0
 19 18  2  0
 18 15  1  0
 19 20  1  0
 19 24  1  0
 20 21  1  0
 21 22  1  0
 22 23  1  0
 23 24  1  0
 23 25  1  0
 25 26  1  0
 26 27  1  0
 27 28  1  0
 28 29  1  0
 29  1  1  0
 15 30  1  0
 30 31  1  0
 16 32  1  0
 32 33  1  0
M  END
>  <Classification>  (930) 
1

>  <pchembl>  (930) 
7.16

>  <InChI_steorem>  (930) 
InChI=1S/C27H33NO5/c1-18-19(2)27(29)33-24-16-22(8-9-23(18)24)32-13-7-5-6-11-28-12-10-20-14-25(30-3)26(31-4)15-21(20)17-28/h8-9,14-16H,5-7,10-13,17H2,1-4H3

>  <source>  (930) 
ChEMBL28

>  <source_id>  (930) 
28

>  <optional_reference>  (930) 
10.1016/j.ejmech.2018.10.043

>  <optional_origin>  (930) 
None

>  <target>  (930) 
MDR1

$$$$

     RDKit          2D

 33 37  0  0  0  0  0  0  0  0999 V2000
   15.4195   -7.5747    0.0000 C   0  0  0  0  0  0  0  0  0  0  0  0
   16.2120   -7.7893    0.0000 N   0  0  0  0  0  0  0  0  0  0  0  0
   16.6599   -7.1005    0.0000 C   0  0  0  0  0  0  0  0  0  0  0  0
   16.1417   -6.4626    0.0000 N   0  0  0  0  0  0  0  0  0  0  0  0
   15.3762   -6.7558    0.0000 N   0  0  0  0  0  0  0  0  0  0  0  0
   14.7861   -8.0935    0.0000 C   0  0  0  0  0  0  0  0  0  0  0  0
   13.9750   -8.2220    0.0000 C   0  0  0  0  0  0  0  0  0  0  0  0
   14.4898   -8.8608    0.0000 C   0  0  0  0  0  0  0  0  0  0  0  0
   17.4801   -7.0570    0.0000 S   0  0  0  0  0  0  0  0  0  0  0  0
   17.8505   -6.3245    0.0000 C   0  0  0  0  0  0  0  0  0  0  0  0
   18.6706   -6.2810    0.0000 C   0  0  0  0  0  0  0  0  0  0  0  0
   19.0452   -5.5485    0.0000 N   0  0  0  0  0  0  0  0  0  0  0  0
   19.1204   -6.9701    0.0000 O   0  0  0  0  0  0  0  0  0  0  0  0
   19.8653   -5.5050    0.0000 C   0  0  0  0  0  0  0  0  0  0  0  0
   20.3788   -6.1434    0.0000 C   0  0  0  0  0  0  0  0  0  0  0  0
   21.0837   -5.8458    0.0000 C   0  0  0  0  0  0  0  0  0  0  0  0
   21.0403   -5.0256    0.0000 N   0  0  0  0  0  0  0  0  0  0  0  0
   20.3085   -4.8149    0.0000 N   0  0  0  0  0  0  0  0  0  0  0  0
   20.0241   -4.0474    0.0000 C   0  0  0  0  0  0  0  0  0  0  0  0
   20.5498   -3.4128    0.0000 C   0  0  0  0  0  0  0  0  0  0  0  0
   20.2602   -2.6438    0.0000 C   0  0  0  0  0  0  0  0  0  0  0  0
   19.4493   -2.5082    0.0000 C   0  0  0  0  0  0  0  0  0  0  0  0
   18.9288   -3.1478    0.0000 C   0  0  0  0  0  0  0  0  0  0  0  0
   19.2171   -3.9143    0.0000 C   0  0  0  0  0  0  0  0  0  0  0  0
   21.7781   -6.2815    0.0000 C   0  0  0  0  0  0  0  0  0  0  0  0
   21.7466   -7.1034    0.0000 C   0  0  0  0  0  0  0  0  0  0  0  0
   22.4420   -7.5377    0.0000 C   0  0  0  0  0  0  0  0  0  0  0  0
   23.1694   -7.1554    0.0000 C   0  0  0  0  0  0  0  0  0  0  0  0
   23.1971   -6.3303    0.0000 C   0  0  0  0  0  0  0  0  0  0  0  0
   22.5009   -5.8956    0.0000 C   0  0  0  0  0  0  0  0  0  0  0  0
   23.9222   -5.9415    0.0000 C   0  0  0  0  0  0  0  0  0  0  0  0
   23.8663   -7.5889    0.0000 C   0  0  0  0  0  0  0  0  0  0  0  0
   21.0197   -7.4848    0.0000 C   0  0  0  0  0  0  0  0  0  0  0  0
  1  2  2  0
  2  3  1  0
  3  4  2  0
  4  5  1  0
  5  1  1  0
  7  6  1  0
  8  7  1  0
  6  8  1  0
  1  6  1  0
  3  9  1  0
  9 10  1  0
 10 11  1  0
 11 12  1  0
 11 13  2  0
 12 14  1  0
 14 15  2  0
 15 16  1  0
 16 17  2  0
 17 18  1  0
 18 14  1  0
 19 20  2  0
 20 21  1  0
 21 22  2  0
 22 23  1  0
 23 24  2  0
 24 19  1  0
 18 19  1  0
 25 26  2  0
 26 27  1  0
 27 28  2  0
 28 29  1  0
 29 30  2  0
 30 25  1  0
 16 25  1  0
 29 31  1  0
 28 32  1  0
 26 33  1  0
M  END
>  <Classification>  (931) 
1

>  <pchembl>  (931) 
6.2

>  <InChI_steorem>  (931) 
InChI=1S/C25H26N6OS/c1-15-11-17(3)20(12-16(15)2)21-13-22(31(30-21)19-7-5-4-6-8-19)26-23(32)14-33-25-27-24(28-29-25)18-9-10-18/h4-8,11-13,18H,9-10,14H2,1-3H3,(H,26,32)(H,27,28,29)

>  <source>  (931) 
ChEMBL28

>  <source_id>  (931) 
28

>  <optional_reference>  (931) 
10.1021/acs.jmedchem.9b00966

>  <optional_origin>  (931) 
None

>  <target>  (931) 
MDR1

$$$$

     RDKit          2D

 33 37  0  0  0  0  0  0  0  0999 V2000
   20.6981  -23.5582    0.0000 C   0  0  0  0  0  0  0  0  0  0  0  0
   20.6981  -24.3754    0.0000 C   0  0  0  0  0  0  0  0  0  0  0  0
   21.4033  -24.7799    0.0000 O   0  0  0  0  0  0  0  0  0  0  0  0
   21.4033  -23.1455    0.0000 C   0  0  0  0  0  0  0  0  0  0  0  0
   22.1086  -23.5582    0.0000 C   0  0  0  0  0  0  0  0  0  0  0  0
   22.1070  -24.3736    0.0000 C   0  0  0  0  0  0  0  0  0  0  0  0
   22.8112  -24.7809    0.0000 C   0  0  0  0  0  0  0  0  0  0  0  0
   23.5175  -24.3739    0.0000 C   0  0  0  0  0  0  0  0  0  0  0  0
   23.5152  -23.5554    0.0000 C   0  0  0  0  0  0  0  0  0  0  0  0
   22.8104  -23.1518    0.0000 C   0  0  0  0  0  0  0  0  0  0  0  0
   21.4033  -22.3283    0.0000 O   0  0  0  0  0  0  0  0  0  0  0  0
   19.9891  -23.1517    0.0000 O   0  0  0  0  0  0  0  0  0  0  0  0
   19.2826  -23.5624    0.0000 C   0  0  0  0  0  0  0  0  0  0  0  0
   18.5737  -23.1558    0.0000 C   0  0  0  0  0  0  0  0  0  0  0  0
   17.8672  -23.5665    0.0000 N   0  0  0  0  0  0  0  0  0  0  0  0
   18.5713  -22.3387    0.0000 O   0  0  0  0  0  0  0  0  0  0  0  0
   17.1583  -23.1600    0.0000 C   0  0  0  0  0  0  0  0  0  0  0  0
   17.1601  -22.3438    0.0000 C   0  0  0  0  0  0  0  0  0  0  0  0
   16.4521  -21.9374    0.0000 C   0  0  0  0  0  0  0  0  0  0  0  0
   16.4582  -23.5723    0.0000 C   0  0  0  0  0  0  0  0  0  0  0  0
   15.7496  -23.1695    0.0000 C   0  0  0  0  0  0  0  0  0  0  0  0
   15.7409  -22.3473    0.0000 C   0  0  0  0  0  0  0  0  0  0  0  0
   14.9563  -22.1014    0.0000 C   0  0  0  0  0  0  0  0  0  0  0  0
   14.4799  -22.7718    0.0000 O   0  0  0  0  0  0  0  0  0  0  0  0
   14.9703  -23.4318    0.0000 C   0  0  0  0  0  0  0  0  0  0  0  0
   14.6956  -21.3269    0.0000 O   0  0  0  0  0  0  0  0  0  0  0  0
   19.9919  -24.7855    0.0000 C   0  0  0  0  0  0  0  0  0  0  0  0
   19.2833  -24.3762    0.0000 C   0  0  0  0  0  0  0  0  0  0  0  0
   18.5767  -24.7852    0.0000 C   0  0  0  0  0  0  0  0  0  0  0  0
   18.5774  -25.6032    0.0000 C   0  0  0  0  0  0  0  0  0  0  0  0
   19.2907  -26.0106    0.0000 C   0  0  0  0  0  0  0  0  0  0  0  0
   19.9944  -25.5994    0.0000 C   0  0  0  0  0  0  0  0  0  0  0  0
   20.7038  -26.0050    0.0000 Cl  0  0  0  0  0  0  0  0  0  0  0  0
  1  2  2  0
  1  4  1  0
  2  3  1  0
  3  6  1  0
  5  4  1  0
  5  6  2  0
  6  7  1  0
  7  8  2  0
  8  9  1  0
  9 10  2  0
 10  5  1  0
  4 11  2  0
  1 12  1  0
 12 13  1  0
 13 14  1  0
 14 15  1  0
 14 16  2  0
 15 17  1  0
 17 18  2  0
 18 19  1  0
 19 22  2  0
 21 20  2  0
 20 17  1  0
 21 22  1  0
 22 23  1  0
 23 24  1  0
 24 25  1  0
 25 21  1  0
 23 26  2  0
 27 28  2  0
 28 29  1  0
 29 30  2  0
 30 31  1  0
 31 32  2  0
 32 27  1  0
  2 27  1  0
 32 33  1  0
M  END
>  <Classification>  (932) 
1

>  <pchembl>  (932) 
5.3

>  <InChI_steorem>  (932) 
InChI=1S/C25H16ClNO6/c26-19-7-3-1-5-17(19)23-24(22(29)18-6-2-4-8-20(18)33-23)31-13-21(28)27-15-9-10-16-14(11-15)12-32-25(16)30/h1-11H,12-13H2,(H,27,28)

>  <source>  (932) 
ChEMBL28

>  <source_id>  (932) 
28

>  <optional_reference>  (932) 
10.1016/j.ejmech.2018.12.019

>  <optional_origin>  (932) 
None

>  <target>  (932) 
MDR1

$$$$

     RDKit          2D

 33 37  0  0  0  0  0  0  0  0999 V2000
   23.8746  -19.7322    0.0000 C   0  0  0  0  0  0  0  0  0  0  0  0
   23.8735  -20.5518    0.0000 C   0  0  0  0  0  0  0  0  0  0  0  0
   24.5815  -20.9607    0.0000 C   0  0  0  0  0  0  0  0  0  0  0  0
   24.5797  -19.3234    0.0000 C   0  0  0  0  0  0  0  0  0  0  0  0
   25.2883  -19.7286    0.0000 C   0  0  0  0  0  0  0  0  0  0  0  0
   25.2886  -20.5518    0.0000 C   0  0  0  0  0  0  0  0  0  0  0  0
   26.0716  -20.8060    0.0000 N   0  0  0  0  0  0  0  0  0  0  0  0
   26.0711  -19.4741    0.0000 C   0  0  0  0  0  0  0  0  0  0  0  0
   26.5553  -20.1412    0.0000 C   0  0  0  0  0  0  0  0  0  0  0  0
   27.3706  -20.0559    0.0000 C   0  0  0  0  0  0  0  0  0  0  0  0
   27.7081  -19.3045    0.0000 N   0  0  0  0  0  0  0  0  0  0  0  0
   27.2239  -18.6374    0.0000 C   0  0  0  0  0  0  0  0  0  0  0  0
   26.4023  -18.7217    0.0000 C   0  0  0  0  0  0  0  0  0  0  0  0
   28.5210  -19.2206    0.0000 C   0  0  0  0  0  0  0  0  0  0  0  0
   29.0001  -19.8827    0.0000 O   0  0  0  0  0  0  0  0  0  0  0  0
   28.8548  -18.4747    0.0000 C   0  0  0  0  0  0  0  0  0  0  0  0
   29.6679  -18.3949    0.0000 C   0  0  0  0  0  0  0  0  0  0  0  0
   30.0017  -17.6498    0.0000 C   0  0  0  0  0  0  0  0  0  0  0  0
   29.5224  -16.9868    0.0000 C   0  0  0  0  0  0  0  0  0  0  0  0
   28.7056  -17.0737    0.0000 C   0  0  0  0  0  0  0  0  0  0  0  0
   28.3755  -17.8190    0.0000 C   0  0  0  0  0  0  0  0  0  0  0  0
   27.8506  -20.7146    0.0000 C   0  0  0  0  0  0  0  0  0  0  0  0
   27.5151  -21.4610    0.0000 C   0  0  0  0  0  0  0  0  0  0  0  0
   27.9935  -22.1226    0.0000 C   0  0  0  0  0  0  0  0  0  0  0  0
   28.8073  -22.0390    0.0000 C   0  0  0  0  0  0  0  0  0  0  0  0
   29.1404  -21.2882    0.0000 C   0  0  0  0  0  0  0  0  0  0  0  0
   28.6600  -20.6297    0.0000 C   0  0  0  0  0  0  0  0  0  0  0  0
   29.8552  -16.2404    0.0000 O   0  0  0  0  0  0  0  0  0  0  0  0
   30.6680  -16.1555    0.0000 C   0  0  0  0  0  0  0  0  0  0  0  0
   30.8146  -17.5663    0.0000 O   0  0  0  0  0  0  0  0  0  0  0  0
   31.2933  -18.2285    0.0000 C   0  0  0  0  0  0  0  0  0  0  0  0
   27.6593  -22.8683    0.0000 Cl  0  0  0  0  0  0  0  0  0  0  0  0
   29.2872  -22.7004    0.0000 Cl  0  0  0  0  0  0  0  0  0  0  0  0
  1  2  2  0
  2  3  1  0
  3  6  2  0
  5  4  2  0
  4  1  1  0
  5  6  1  0
  6  7  1  0
  7  9  1  0
  8  5  1  0
  8  9  2  0
  8 13  1  0
  9 10  1  0
 10 11  1  0
 11 12  1  0
 12 13  1  0
 11 14  1  0
 14 15  2  0
 14 16  1  0
 16 17  2  0
 17 18  1  0
 18 19  2  0
 19 20  1  0
 20 21  2  0
 21 16  1  0
 22 23  2  0
 23 24  1  0
 24 25  2  0
 25 26  1  0
 26 27  2  0
 27 22  1  0
 10 22  1  0
 19 28  1  0
 28 29  1  0
 18 30  1  0
 30 31  1  0
 24 32  1  0
 25 33  1  0
M  END
>  <Classification>  (933) 
0

>  <pchembl>  (933) 
4.84

>  <InChI_steorem>  (933) 
InChI=1S/C26H22Cl2N2O3/c1-32-22-10-8-16(14-23(22)33-2)26(31)30-12-11-18-17-5-3-4-6-21(17)29-24(18)25(30)15-7-9-19(27)20(28)13-15/h3-10,13-14,25,29H,11-12H2,1-2H3

>  <source>  (933) 
ChEMBL28

>  <source_id>  (933) 
28

>  <optional_reference>  (933) 
10.1021/acs.jmedchem.6b00035

>  <optional_origin>  (933) 
None

>  <target>  (933) 
MDR1

$$$$

     RDKit          2D

 33 37  0  0  0  0  0  0  0  0999 V2000
   31.5719   -4.2015    0.0000 C   0  0  0  0  0  0  0  0  0  0  0  0
   31.5707   -5.0210    0.0000 C   0  0  0  0  0  0  0  0  0  0  0  0
   32.2788   -5.4300    0.0000 C   0  0  0  0  0  0  0  0  0  0  0  0
   32.2770   -3.7926    0.0000 C   0  0  0  0  0  0  0  0  0  0  0  0
   32.9856   -4.1979    0.0000 C   0  0  0  0  0  0  0  0  0  0  0  0
   32.9859   -5.0211    0.0000 C   0  0  0  0  0  0  0  0  0  0  0  0
   33.7688   -5.2752    0.0000 N   0  0  0  0  0  0  0  0  0  0  0  0
   33.7684   -3.9433    0.0000 C   0  0  0  0  0  0  0  0  0  0  0  0
   34.2526   -4.6104    0.0000 C   0  0  0  0  0  0  0  0  0  0  0  0
   35.0679   -4.5252    0.0000 C   0  0  0  0  0  0  0  0  0  0  0  0
   35.4054   -3.7738    0.0000 N   0  0  0  0  0  0  0  0  0  0  0  0
   34.9212   -3.1067    0.0000 C   0  0  0  0  0  0  0  0  0  0  0  0
   34.0995   -3.1909    0.0000 C   0  0  0  0  0  0  0  0  0  0  0  0
   36.2183   -3.6899    0.0000 C   0  0  0  0  0  0  0  0  0  0  0  0
   36.6973   -4.3519    0.0000 O   0  0  0  0  0  0  0  0  0  0  0  0
   36.5520   -2.9440    0.0000 C   0  0  0  0  0  0  0  0  0  0  0  0
   37.3652   -2.8641    0.0000 C   0  0  0  0  0  0  0  0  0  0  0  0
   37.6989   -2.1190    0.0000 C   0  0  0  0  0  0  0  0  0  0  0  0
   37.2197   -1.4560    0.0000 C   0  0  0  0  0  0  0  0  0  0  0  0
   36.4029   -1.5430    0.0000 C   0  0  0  0  0  0  0  0  0  0  0  0
   36.0728   -2.2883    0.0000 C   0  0  0  0  0  0  0  0  0  0  0  0
   35.5478   -5.1838    0.0000 C   0  0  0  0  0  0  0  0  0  0  0  0
   35.2124   -5.9302    0.0000 C   0  0  0  0  0  0  0  0  0  0  0  0
   35.6908   -6.5918    0.0000 C   0  0  0  0  0  0  0  0  0  0  0  0
   36.5046   -6.5083    0.0000 C   0  0  0  0  0  0  0  0  0  0  0  0
   36.8377   -5.7574    0.0000 C   0  0  0  0  0  0  0  0  0  0  0  0
   36.3573   -5.0989    0.0000 C   0  0  0  0  0  0  0  0  0  0  0  0
   37.5525   -0.7097    0.0000 O   0  0  0  0  0  0  0  0  0  0  0  0
   38.3652   -0.6247    0.0000 C   0  0  0  0  0  0  0  0  0  0  0  0
   38.5119   -2.0355    0.0000 O   0  0  0  0  0  0  0  0  0  0  0  0
   38.9906   -2.6978    0.0000 C   0  0  0  0  0  0  0  0  0  0  0  0
   35.3566   -7.3376    0.0000 F   0  0  0  0  0  0  0  0  0  0  0  0
   36.9845   -7.1696    0.0000 F   0  0  0  0  0  0  0  0  0  0  0  0
  1  2  2  0
  2  3  1  0
  3  6  2  0
  5  4  2  0
  4  1  1  0
  5  6  1  0
  6  7  1  0
  7  9  1  0
  8  5  1  0
  8  9  2  0
  8 13  1  0
  9 10  1  0
 10 11  1  0
 11 12  1  0
 12 13  1  0
 11 14  1  0
 14 15  2  0
 14 16  1  0
 16 17  2  0
 17 18  1  0
 18 19  2  0
 19 20  1  0
 20 21  2  0
 21 16  1  0
 22 23  2  0
 23 24  1  0
 24 25  2  0
 25 26  1  0
 26 27  2  0
 27 22  1  0
 10 22  1  0
 19 28  1  0
 28 29  1  0
 18 30  1  0
 30 31  1  0
 24 32  1  0
 25 33  1  0
M  END
>  <Classification>  (934) 
1

>  <pchembl>  (934) 
5.54

>  <InChI_steorem>  (934) 
InChI=1S/C26H22F2N2O3/c1-32-22-10-8-16(14-23(22)33-2)26(31)30-12-11-18-17-5-3-4-6-21(17)29-24(18)25(30)15-7-9-19(27)20(28)13-15/h3-10,13-14,25,29H,11-12H2,1-2H3

>  <source>  (934) 
ChEMBL28

>  <source_id>  (934) 
28

>  <optional_reference>  (934) 
10.1021/acs.jmedchem.6b00035

>  <optional_origin>  (934) 
None

>  <target>  (934) 
MDR1

$$$$

     RDKit          2D

 33 37  0  0  0  0  0  0  0  0999 V2000
    7.3836   -3.0707    0.0000 C   0  0  0  0  0  0  0  0  0  0  0  0
    7.3836   -3.8920    0.0000 C   0  0  0  0  0  0  0  0  0  0  0  0
    8.0930   -4.2964    0.0000 O   0  0  0  0  0  0  0  0  0  0  0  0
    8.0930   -2.6538    0.0000 C   0  0  0  0  0  0  0  0  0  0  0  0
    8.7983   -3.0707    0.0000 C   0  0  0  0  0  0  0  0  0  0  0  0
    8.7967   -3.8902    0.0000 C   0  0  0  0  0  0  0  0  0  0  0  0
    9.5050   -4.2975    0.0000 C   0  0  0  0  0  0  0  0  0  0  0  0
   10.2155   -3.8905    0.0000 C   0  0  0  0  0  0  0  0  0  0  0  0
   10.2131   -3.0679    0.0000 C   0  0  0  0  0  0  0  0  0  0  0  0
    9.5042   -2.6601    0.0000 C   0  0  0  0  0  0  0  0  0  0  0  0
    8.0930   -1.8325    0.0000 O   0  0  0  0  0  0  0  0  0  0  0  0
    6.6724   -4.3016    0.0000 O   0  0  0  0  0  0  0  0  0  0  0  0
    5.9599   -3.8940    0.0000 C   0  0  0  0  0  0  0  0  0  0  0  0
    5.2487   -4.3037    0.0000 C   0  0  0  0  0  0  0  0  0  0  0  0
    4.5363   -3.8961    0.0000 N   0  0  0  0  0  0  0  0  0  0  0  0
    5.2499   -5.1250    0.0000 O   0  0  0  0  0  0  0  0  0  0  0  0
    3.8250   -4.3057    0.0000 C   0  0  0  0  0  0  0  0  0  0  0  0
    2.4076   -5.1276    0.0000 C   0  0  0  0  0  0  0  0  0  0  0  0
    3.1250   -5.5392    0.0000 C   0  0  0  0  0  0  0  0  0  0  0  0
    3.8287   -5.1238    0.0000 C   0  0  0  0  0  0  0  0  0  0  0  0
    6.6730   -2.6621    0.0000 C   0  0  0  0  0  0  0  0  0  0  0  0
    6.6719   -1.8397    0.0000 C   0  0  0  0  0  0  0  0  0  0  0  0
    5.9597   -1.4332    0.0000 C   0  0  0  0  0  0  0  0  0  0  0  0
    5.2481   -1.8440    0.0000 C   0  0  0  0  0  0  0  0  0  0  0  0
    5.2531   -2.6695    0.0000 C   0  0  0  0  0  0  0  0  0  0  0  0
    5.9659   -3.0764    0.0000 C   0  0  0  0  0  0  0  0  0  0  0  0
    2.4068   -4.3054    0.0000 C   0  0  0  0  0  0  0  0  0  0  0  0
    3.1177   -3.9011    0.0000 C   0  0  0  0  0  0  0  0  0  0  0  0
    3.1200   -3.0847    0.0000 C   0  0  0  0  0  0  0  0  0  0  0  0
    2.4121   -2.6715    0.0000 C   0  0  0  0  0  0  0  0  0  0  0  0
    1.7005   -3.0849    0.0000 C   0  0  0  0  0  0  0  0  0  0  0  0
    1.7017   -3.9001    0.0000 C   0  0  0  0  0  0  0  0  0  0  0  0
    4.5345   -1.4384    0.0000 C   0  0  0  0  0  0  0  0  0  0  0  0
  1  2  2  0
  1  4  1  0
  2  3  1  0
  3  6  1  0
  5  4  1  0
  5  6  2  0
  6  7  1  0
  7  8  2  0
  8  9  1  0
  9 10  2  0
 10  5  1  0
  4 11  2  0
  2 12  1  0
 12 13  1  0
 13 14  1  0
 14 15  1  0
 14 16  2  0
 15 17  1  0
 17 28  2  0
 27 18  2  0
 18 19  1  0
 19 20  2  0
 20 17  1  0
 21 22  2  0
 22 23  1  0
 23 24  2  0
 24 25  1  0
 25 26  2  0
 26 21  1  0
  1 21  1  0
 27 28  1  0
 28 29  1  0
 29 30  2  0
 30 31  1  0
 31 32  2  0
 32 27  1  0
 24 33  1  0
M  END
>  <Classification>  (935) 
1

>  <pchembl>  (935) 
5.72

>  <InChI_steorem>  (935) 
InChI=1S/C28H21NO4/c1-18-13-15-20(16-14-18)26-27(31)22-10-4-5-12-24(22)33-28(26)32-17-25(30)29-23-11-6-8-19-7-2-3-9-21(19)23/h2-16H,17H2,1H3,(H,29,30)

>  <source>  (935) 
ChEMBL28

>  <source_id>  (935) 
28

>  <optional_reference>  (935) 
10.1016/j.ejmech.2018.12.019

>  <optional_origin>  (935) 
None

>  <target>  (935) 
MDR1

$$$$

     RDKit          2D

 34 36  0  0  0  0  0  0  0  0999 V2000
   19.0829  -18.9604    0.0000 C   0  0  0  0  0  0  0  0  0  0  0  0
   19.0817  -19.7800    0.0000 C   0  0  0  0  0  0  0  0  0  0  0  0
   19.7898  -20.1890    0.0000 C   0  0  0  0  0  0  0  0  0  0  0  0
   20.4994  -19.7795    0.0000 C   0  0  0  0  0  0  0  0  0  0  0  0
   20.4966  -18.9569    0.0000 C   0  0  0  0  0  0  0  0  0  0  0  0
   19.7880  -18.5516    0.0000 C   0  0  0  0  0  0  0  0  0  0  0  0
   21.2028  -18.5456    0.0000 C   0  0  0  0  0  0  0  0  0  0  0  0
   21.9120  -18.9515    0.0000 C   0  0  0  0  0  0  0  0  0  0  0  0
   22.6182  -18.5403    0.0000 C   0  0  0  0  0  0  0  0  0  0  0  0
   23.3274  -18.9462    0.0000 C   0  0  0  0  0  0  0  0  0  0  0  0
   23.3274  -19.7622    0.0000 C   0  0  0  0  0  0  0  0  0  0  0  0
   24.0358  -20.1681    0.0000 C   0  0  0  0  0  0  0  0  0  0  0  0
   24.7430  -19.7568    0.0000 C   0  0  0  0  0  0  0  0  0  0  0  0
   24.7372  -18.9354    0.0000 C   0  0  0  0  0  0  0  0  0  0  0  0
   24.0283  -18.5332    0.0000 C   0  0  0  0  0  0  0  0  0  0  0  0
   21.2078  -20.1870    0.0000 O   0  0  0  0  0  0  0  0  0  0  0  0
   18.3737  -20.1880    0.0000 O   0  0  0  0  0  0  0  0  0  0  0  0
   19.7856  -17.7344    0.0000 O   0  0  0  0  0  0  0  0  0  0  0  0
   21.2091  -21.0042    0.0000 C   0  0  0  0  0  0  0  0  0  0  0  0
   21.1997  -17.7284    0.0000 O   0  0  0  0  0  0  0  0  0  0  0  0
   18.3731  -21.0052    0.0000 C   0  0  0  0  0  0  0  0  0  0  0  0
   25.4423  -18.5240    0.0000 N   0  0  0  0  0  0  0  0  0  0  0  0
   26.1529  -18.9296    0.0000 C   0  0  0  0  0  0  0  0  0  0  0  0
   26.8555  -18.5193    0.0000 C   0  0  0  0  0  0  0  0  0  0  0  0
   26.8537  -17.7018    0.0000 N   0  0  0  0  0  0  0  0  0  0  0  0
   26.1432  -17.2962    0.0000 C   0  0  0  0  0  0  0  0  0  0  0  0
   25.4344  -17.7082    0.0000 C   0  0  0  0  0  0  0  0  0  0  0  0
   27.5600  -17.2907    0.0000 C   0  0  0  0  0  0  0  0  0  0  0  0
   28.2691  -17.6968    0.0000 O   0  0  0  0  0  0  0  0  0  0  0  0
   27.5571  -16.4735    0.0000 O   0  0  0  0  0  0  0  0  0  0  0  0
   28.9754  -17.2858    0.0000 C   0  0  0  0  0  0  0  0  0  0  0  0
   29.6845  -17.6919    0.0000 C   0  0  0  0  0  0  0  0  0  0  0  0
   28.9725  -16.4686    0.0000 C   0  0  0  0  0  0  0  0  0  0  0  0
   29.6789  -16.8721    0.0000 C   0  0  0  0  0  0  0  0  0  0  0  0
  1  2  2  0
  2  3  1  0
  3  4  2  0
  4  5  1  0
  5  6  2  0
  6  1  1  0
  5  7  1  0
  7  8  1  0
  8  9  2  3
  9 10  1  0
 10 11  2  0
 11 12  1  0
 12 13  2  0
 13 14  1  0
 14 15  2  0
 15 10  1  0
  4 16  1  0
  2 17  1  0
  6 18  1  0
 16 19  1  0
  7 20  2  0
 17 21  1  0
 22 23  1  0
 22 27  1  0
 23 24  1  0
 24 25  1  0
 25 26  1  0
 26 27  1  0
 14 22  1  0
 25 28  1  0
 28 29  1  0
 28 30  2  0
 29 31  1  0
 31 32  1  0
 31 33  1  0
 31 34  1  0
M  END
>  <Classification>  (936) 
0

>  <pchembl>  (936) 
4.4

>  <InChI_steorem>  (936) 
InChI=1S/C26H32N2O6/c1-26(2,3)34-25(31)28-13-11-27(12-14-28)19-8-6-7-18(15-19)9-10-21(29)24-22(30)16-20(32-4)17-23(24)33-5/h6-10,15-17,30H,11-14H2,1-5H3

>  <source>  (936) 
ChEMBL28

>  <source_id>  (936) 
28

>  <optional_reference>  (936) 
10.1016/j.ejmech.2019.05.053

>  <optional_origin>  (936) 
None

>  <target>  (936) 
MDR1

$$$$

     RDKit          2D

 34 36  0  0  0  0  0  0  0  0999 V2000
    3.0816  -25.3081    0.0000 C   0  0  0  0  0  0  0  0  0  0  0  0
    3.0805  -26.1277    0.0000 C   0  0  0  0  0  0  0  0  0  0  0  0
    3.7885  -26.5366    0.0000 C   0  0  0  0  0  0  0  0  0  0  0  0
    4.4982  -26.1272    0.0000 C   0  0  0  0  0  0  0  0  0  0  0  0
    4.4954  -25.3045    0.0000 C   0  0  0  0  0  0  0  0  0  0  0  0
    3.7867  -24.8993    0.0000 C   0  0  0  0  0  0  0  0  0  0  0  0
    5.2015  -24.8933    0.0000 C   0  0  0  0  0  0  0  0  0  0  0  0
    5.9108  -25.2992    0.0000 C   0  0  0  0  0  0  0  0  0  0  0  0
    6.6169  -24.8879    0.0000 C   0  0  0  0  0  0  0  0  0  0  0  0
    7.3262  -25.2939    0.0000 C   0  0  0  0  0  0  0  0  0  0  0  0
    7.3262  -26.1099    0.0000 C   0  0  0  0  0  0  0  0  0  0  0  0
    8.0346  -26.5158    0.0000 C   0  0  0  0  0  0  0  0  0  0  0  0
    8.7417  -26.1045    0.0000 C   0  0  0  0  0  0  0  0  0  0  0  0
    8.7360  -25.2831    0.0000 C   0  0  0  0  0  0  0  0  0  0  0  0
    8.0270  -24.8809    0.0000 C   0  0  0  0  0  0  0  0  0  0  0  0
    5.2065  -26.5347    0.0000 O   0  0  0  0  0  0  0  0  0  0  0  0
    2.3724  -26.5357    0.0000 O   0  0  0  0  0  0  0  0  0  0  0  0
    3.7843  -24.0821    0.0000 O   0  0  0  0  0  0  0  0  0  0  0  0
    5.2078  -27.3519    0.0000 C   0  0  0  0  0  0  0  0  0  0  0  0
    5.1984  -24.0761    0.0000 O   0  0  0  0  0  0  0  0  0  0  0  0
    2.3718  -27.3529    0.0000 C   0  0  0  0  0  0  0  0  0  0  0  0
    9.4514  -26.5137    0.0000 N   0  0  0  0  0  0  0  0  0  0  0  0
    9.4536  -27.3318    0.0000 C   0  0  0  0  0  0  0  0  0  0  0  0
   10.1593  -27.7367    0.0000 C   0  0  0  0  0  0  0  0  0  0  0  0
   10.8673  -27.3280    0.0000 N   0  0  0  0  0  0  0  0  0  0  0  0
   10.8651  -26.5099    0.0000 C   0  0  0  0  0  0  0  0  0  0  0  0
   10.1549  -26.1005    0.0000 C   0  0  0  0  0  0  0  0  0  0  0  0
   11.5756  -27.7357    0.0000 C   0  0  0  0  0  0  0  0  0  0  0  0
   11.5766  -28.5529    0.0000 O   0  0  0  0  0  0  0  0  0  0  0  0
   12.2827  -27.3262    0.0000 O   0  0  0  0  0  0  0  0  0  0  0  0
   12.9910  -27.7338    0.0000 C   0  0  0  0  0  0  0  0  0  0  0  0
   13.6981  -27.3243    0.0000 C   0  0  0  0  0  0  0  0  0  0  0  0
   12.9920  -28.5510    0.0000 C   0  0  0  0  0  0  0  0  0  0  0  0
   13.6941  -28.1394    0.0000 C   0  0  0  0  0  0  0  0  0  0  0  0
  1  2  2  0
  2  3  1  0
  3  4  2  0
  4  5  1  0
  5  6  2  0
  6  1  1  0
  5  7  1  0
  7  8  1  0
  8  9  2  3
  9 10  1  0
 10 11  2  0
 11 12  1  0
 12 13  2  0
 13 14  1  0
 14 15  2  0
 15 10  1  0
  4 16  1  0
  2 17  1  0
  6 18  1  0
 16 19  1  0
  7 20  2  0
 17 21  1  0
 22 23  1  0
 22 27  1  0
 23 24  1  0
 24 25  1  0
 25 26  1  0
 26 27  1  0
 13 22  1  0
 25 28  1  0
 28 29  2  0
 28 30  1  0
 30 31  1  0
 31 32  1  0
 31 33  1  0
 31 34  1  0
M  END
>  <Classification>  (937) 
0

>  <pchembl>  (937) 
4.23

>  <InChI_steorem>  (937) 
InChI=1S/C26H32N2O6/c1-26(2,3)34-25(31)28-14-12-27(13-15-28)19-9-6-18(7-10-19)8-11-21(29)24-22(30)16-20(32-4)17-23(24)33-5/h6-11,16-17,30H,12-15H2,1-5H3

>  <source>  (937) 
ChEMBL28

>  <source_id>  (937) 
28

>  <optional_reference>  (937) 
10.1016/j.ejmech.2019.05.053

>  <optional_origin>  (937) 
None

>  <target>  (937) 
MDR1

$$$$

     RDKit          2D

 34 37  0  0  0  0  0  0  0  0999 V2000
   10.3731  -20.1100    0.0000 O   0  0  0  0  0  0  0  0  0  0  0  0
   11.0798  -20.5203    0.0000 C   0  0  0  0  0  0  0  0  0  0  0  0
   11.0764  -21.3374    0.0000 C   0  0  0  0  0  0  0  0  0  0  0  0
   12.4913  -20.5193    0.0000 C   0  0  0  0  0  0  0  0  0  0  0  0
   11.7849  -20.1128    0.0000 C   0  0  0  0  0  0  0  0  0  0  0  0
   12.4920  -21.3407    0.0000 C   0  0  0  0  0  0  0  0  0  0  0  0
   11.7829  -21.7427    0.0000 C   0  0  0  0  0  0  0  0  0  0  0  0
   11.7766  -22.5533    0.0000 O   0  0  0  0  0  0  0  0  0  0  0  0
   12.4776  -22.9680    0.0000 C   0  0  0  0  0  0  0  0  0  0  0  0
   13.1867  -22.5660    0.0000 C   0  0  0  0  0  0  0  0  0  0  0  0
   13.1947  -21.7493    0.0000 C   0  0  0  0  0  0  0  0  0  0  0  0
   12.4701  -23.7852    0.0000 O   0  0  0  0  0  0  0  0  0  0  0  0
   13.8907  -22.9809    0.0000 C   0  0  0  0  0  0  0  0  0  0  0  0
   13.9050  -21.3453    0.0000 C   0  0  0  0  0  0  0  0  0  0  0  0
    2.5864  -20.5082    0.0000 C   0  0  0  0  0  0  0  0  0  0  0  0
    2.5852  -21.3277    0.0000 C   0  0  0  0  0  0  0  0  0  0  0  0
    3.2933  -21.7367    0.0000 C   0  0  0  0  0  0  0  0  0  0  0  0
    3.2915  -20.0993    0.0000 C   0  0  0  0  0  0  0  0  0  0  0  0
    4.0001  -20.5046    0.0000 C   0  0  0  0  0  0  0  0  0  0  0  0
    3.9989  -21.3252    0.0000 C   0  0  0  0  0  0  0  0  0  0  0  0
    4.7051  -21.7343    0.0000 C   0  0  0  0  0  0  0  0  0  0  0  0
    5.4170  -21.3272    0.0000 C   0  0  0  0  0  0  0  0  0  0  0  0
    5.4182  -20.5066    0.0000 N   0  0  0  0  0  0  0  0  0  0  0  0
    4.7074  -20.0930    0.0000 C   0  0  0  0  0  0  0  0  0  0  0  0
    6.1269  -20.0997    0.0000 C   0  0  0  0  0  0  0  0  0  0  0  0
    6.8336  -20.5100    0.0000 C   0  0  0  0  0  0  0  0  0  0  0  0
    7.5423  -20.1031    0.0000 C   0  0  0  0  0  0  0  0  0  0  0  0
    8.2490  -20.5134    0.0000 C   0  0  0  0  0  0  0  0  0  0  0  0
    1.8785  -20.0997    0.0000 O   0  0  0  0  0  0  0  0  0  0  0  0
    1.1709  -20.5085    0.0000 C   0  0  0  0  0  0  0  0  0  0  0  0
    1.8772  -21.7357    0.0000 O   0  0  0  0  0  0  0  0  0  0  0  0
    1.1698  -21.3266    0.0000 C   0  0  0  0  0  0  0  0  0  0  0  0
    8.9577  -20.1065    0.0000 C   0  0  0  0  0  0  0  0  0  0  0  0
    9.6644  -20.5168    0.0000 C   0  0  0  0  0  0  0  0  0  0  0  0
  1  2  1  0
  2  3  2  0
  3  7  1  0
  6  4  1  0
  4  5  2  0
  5  2  1  0
  6  7  2  0
  6 11  1  0
  7  8  1  0
  8  9  1  0
  9 10  1  0
 10 11  2  0
  9 12  2  0
 10 13  1  0
 11 14  1  0
 15 16  2  0
 16 17  1  0
 17 20  2  0
 19 18  2  0
 18 15  1  0
 19 20  1  0
 19 24  1  0
 20 21  1  0
 21 22  1  0
 22 23  1  0
 23 24  1  0
 23 25  1  0
 25 26  1  0
 26 27  1  0
 27 28  1  0
 15 29  1  0
 29 30  1  0
 16 31  1  0
 31 32  1  0
 28 33  1  0
 33 34  1  0
 34  1  1  0
M  END
>  <Classification>  (938) 
1

>  <pchembl>  (938) 
6.66

>  <InChI_steorem>  (938) 
InChI=1S/C28H35NO5/c1-19-20(2)28(30)34-25-17-23(9-10-24(19)25)33-14-8-6-5-7-12-29-13-11-21-15-26(31-3)27(32-4)16-22(21)18-29/h9-10,15-17H,5-8,11-14,18H2,1-4H3

>  <source>  (938) 
ChEMBL28

>  <source_id>  (938) 
28

>  <optional_reference>  (938) 
10.1016/j.ejmech.2018.10.043

>  <optional_origin>  (938) 
None

>  <target>  (938) 
MDR1

$$$$

     RDKit          2D

 34 38  0  0  0  0  0  0  0  0999 V2000
   18.7500   -3.7888    0.0000 C   0  0  0  0  0  0  0  0  0  0  0  0
   18.7500   -4.6101    0.0000 C   0  0  0  0  0  0  0  0  0  0  0  0
   19.4594   -5.0187    0.0000 O   0  0  0  0  0  0  0  0  0  0  0  0
   19.4594   -3.3761    0.0000 C   0  0  0  0  0  0  0  0  0  0  0  0
   20.1647   -3.7888    0.0000 C   0  0  0  0  0  0  0  0  0  0  0  0
   20.1631   -4.6083    0.0000 C   0  0  0  0  0  0  0  0  0  0  0  0
   20.8714   -5.0197    0.0000 C   0  0  0  0  0  0  0  0  0  0  0  0
   21.5819   -4.6086    0.0000 C   0  0  0  0  0  0  0  0  0  0  0  0
   21.5795   -3.7860    0.0000 C   0  0  0  0  0  0  0  0  0  0  0  0
   20.8706   -3.3824    0.0000 C   0  0  0  0  0  0  0  0  0  0  0  0
   19.4594   -2.5506    0.0000 O   0  0  0  0  0  0  0  0  0  0  0  0
   18.0388   -5.0239    0.0000 O   0  0  0  0  0  0  0  0  0  0  0  0
   17.3263   -4.6122    0.0000 C   0  0  0  0  0  0  0  0  0  0  0  0
   16.6151   -5.0259    0.0000 C   0  0  0  0  0  0  0  0  0  0  0  0
   15.9027   -4.6142    0.0000 N   0  0  0  0  0  0  0  0  0  0  0  0
   16.6163   -5.8472    0.0000 O   0  0  0  0  0  0  0  0  0  0  0  0
   15.1914   -5.0280    0.0000 C   0  0  0  0  0  0  0  0  0  0  0  0
   13.7740   -5.8499    0.0000 C   0  0  0  0  0  0  0  0  0  0  0  0
   14.4914   -6.2573    0.0000 C   0  0  0  0  0  0  0  0  0  0  0  0
   15.1951   -5.8460    0.0000 C   0  0  0  0  0  0  0  0  0  0  0  0
   18.0394   -3.3844    0.0000 C   0  0  0  0  0  0  0  0  0  0  0  0
   18.0383   -2.5620    0.0000 C   0  0  0  0  0  0  0  0  0  0  0  0
   17.3261   -2.1514    0.0000 C   0  0  0  0  0  0  0  0  0  0  0  0
   16.6145   -2.5662    0.0000 C   0  0  0  0  0  0  0  0  0  0  0  0
   16.6195   -3.3918    0.0000 C   0  0  0  0  0  0  0  0  0  0  0  0
   17.3323   -3.7945    0.0000 C   0  0  0  0  0  0  0  0  0  0  0  0
   13.7732   -5.0277    0.0000 C   0  0  0  0  0  0  0  0  0  0  0  0
   14.4841   -4.6193    0.0000 C   0  0  0  0  0  0  0  0  0  0  0  0
   14.4863   -3.8028    0.0000 C   0  0  0  0  0  0  0  0  0  0  0  0
   13.7785   -3.3938    0.0000 C   0  0  0  0  0  0  0  0  0  0  0  0
   13.0669   -3.8031    0.0000 C   0  0  0  0  0  0  0  0  0  0  0  0
   13.0681   -4.6182    0.0000 C   0  0  0  0  0  0  0  0  0  0  0  0
   15.9009   -2.1565    0.0000 O   0  0  0  0  0  0  0  0  0  0  0  0
   15.8975   -1.3352    0.0000 C   0  0  0  0  0  0  0  0  0  0  0  0
  1  2  2  0
  1  4  1  0
  2  3  1  0
  3  6  1  0
  5  4  1  0
  5  6  2  0
  6  7  1  0
  7  8  2  0
  8  9  1  0
  9 10  2  0
 10  5  1  0
  4 11  2  0
  2 12  1  0
 12 13  1  0
 13 14  1  0
 14 15  1  0
 14 16  2  0
 15 17  1  0
 17 28  2  0
 27 18  2  0
 18 19  1  0
 19 20  2  0
 20 17  1  0
 21 22  2  0
 22 23  1  0
 23 24  2  0
 24 25  1  0
 25 26  2  0
 26 21  1  0
  1 21  1  0
 27 28  1  0
 28 29  1  0
 29 30  2  0
 30 31  1  0
 31 32  2  0
 32 27  1  0
 24 33  1  0
 33 34  1  0
M  END
>  <Classification>  (939) 
1

>  <pchembl>  (939) 
5.85

>  <InChI_steorem>  (939) 
InChI=1S/C28H21NO5/c1-32-20-15-13-19(14-16-20)26-27(31)22-10-4-5-12-24(22)34-28(26)33-17-25(30)29-23-11-6-8-18-7-2-3-9-21(18)23/h2-16H,17H2,1H3,(H,29,30)

>  <source>  (939) 
ChEMBL28

>  <source_id>  (939) 
28

>  <optional_reference>  (939) 
10.1016/j.ejmech.2018.12.019

>  <optional_origin>  (939) 
None

>  <target>  (939) 
MDR1

$$$$

     RDKit          2D

 34 38  0  0  0  0  0  0  0  0999 V2000
   39.3863  -28.2958    0.0000 C   0  0  0  0  0  0  0  0  0  0  0  0
   33.7247  -27.4709    0.0000 C   0  0  0  0  0  0  0  0  0  0  0  0
   33.7235  -28.2905    0.0000 C   0  0  0  0  0  0  0  0  0  0  0  0
   34.4315  -28.6994    0.0000 C   0  0  0  0  0  0  0  0  0  0  0  0
   34.4298  -27.0621    0.0000 C   0  0  0  0  0  0  0  0  0  0  0  0
   35.1384  -27.4673    0.0000 C   0  0  0  0  0  0  0  0  0  0  0  0
   35.1372  -28.2880    0.0000 C   0  0  0  0  0  0  0  0  0  0  0  0
   35.8434  -28.6970    0.0000 C   0  0  0  0  0  0  0  0  0  0  0  0
   36.5553  -28.2900    0.0000 C   0  0  0  0  0  0  0  0  0  0  0  0
   36.5565  -27.4693    0.0000 N   0  0  0  0  0  0  0  0  0  0  0  0
   35.8457  -27.0557    0.0000 C   0  0  0  0  0  0  0  0  0  0  0  0
   37.2652  -27.0624    0.0000 C   0  0  0  0  0  0  0  0  0  0  0  0
   37.9719  -27.4728    0.0000 C   0  0  0  0  0  0  0  0  0  0  0  0
   33.0168  -27.0625    0.0000 O   0  0  0  0  0  0  0  0  0  0  0  0
   32.3092  -27.4713    0.0000 C   0  0  0  0  0  0  0  0  0  0  0  0
   33.0155  -28.6985    0.0000 O   0  0  0  0  0  0  0  0  0  0  0  0
   32.3081  -28.2893    0.0000 C   0  0  0  0  0  0  0  0  0  0  0  0
   37.9683  -28.2892    0.0000 C   0  0  0  0  0  0  0  0  0  0  0  0
   38.6741  -28.6994    0.0000 C   0  0  0  0  0  0  0  0  0  0  0  0
   39.3832  -27.4711    0.0000 C   0  0  0  0  0  0  0  0  0  0  0  0
   38.6767  -27.0646    0.0000 C   0  0  0  0  0  0  0  0  0  0  0  0
   40.0898  -27.0606    0.0000 C   0  0  0  0  0  0  0  0  0  0  0  0
   40.7986  -27.4674    0.0000 O   0  0  0  0  0  0  0  0  0  0  0  0
   41.5049  -27.0563    0.0000 C   0  0  0  0  0  0  0  0  0  0  0  0
   42.2133  -27.4636    0.0000 C   0  0  0  0  0  0  0  0  0  0  0  0
   42.2025  -25.8292    0.0000 C   0  0  0  0  0  0  0  0  0  0  0  0
   41.4997  -26.2420    0.0000 C   0  0  0  0  0  0  0  0  0  0  0  0
   42.9166  -26.2352    0.0000 C   0  0  0  0  0  0  0  0  0  0  0  0
   42.9151  -27.0503    0.0000 C   0  0  0  0  0  0  0  0  0  0  0  0
   43.6163  -27.4569    0.0000 O   0  0  0  0  0  0  0  0  0  0  0  0
   44.3236  -27.0530    0.0000 C   0  0  0  0  0  0  0  0  0  0  0  0
   44.3252  -26.2378    0.0000 C   0  0  0  0  0  0  0  0  0  0  0  0
   43.6194  -25.8267    0.0000 C   0  0  0  0  0  0  0  0  0  0  0  0
   45.0300  -27.4639    0.0000 O   0  0  0  0  0  0  0  0  0  0  0  0
  2  3  2  0
  3  4  1  0
  4  7  2  0
  6  5  2  0
  5  2  1  0
  6  7  1  0
  6 11  1  0
  7  8  1  0
  8  9  1  0
  9 10  1  0
 10 11  1  0
 10 12  1  0
 12 13  1  0
  2 14  1  0
 14 15  1  0
  3 16  1  0
 16 17  1  0
 13 18  2  0
 18 19  1  0
 19  1  2  0
  1 20  1  0
 20 21  2  0
 21 13  1  0
 20 22  1  0
 22 23  1  0
 23 24  1  0
 24 25  2  0
 25 29  1  0
 28 26  1  0
 26 27  2  0
 27 24  1  0
 28 29  2  0
 28 33  1  0
 29 30  1  0
 30 31  1  0
 31 32  1  0
 32 33  2  0
 31 34  2  0
M  END
>  <Classification>  (940) 
1

>  <pchembl>  (940) 
6.11

>  <InChI_steorem>  (940) 
InChI=1S/C28H27NO5/c1-31-26-13-22-10-11-29(17-23(22)14-27(26)32-2)16-19-4-3-5-20(12-19)18-33-24-8-6-21-7-9-28(30)34-25(21)15-24/h3-9,12-15H,10-11,16-18H2,1-2H3

>  <source>  (940) 
ChEMBL28

>  <source_id>  (940) 
28

>  <optional_reference>  (940) 
10.1016/j.ejmech.2018.10.043

>  <optional_origin>  (940) 
None

>  <target>  (940) 
MDR1

$$$$

     RDKit          2D

 34 39  0  0  0  0  0  0  0  0999 V2000
    3.0437   -0.0963    0.0000 C   0  0  0  0  0  0  0  0  0  0  0  0
    3.9511   -0.8815    0.0000 C   0  0  0  0  0  0  0  0  0  0  0  0
    4.9531   -1.9978    0.0000 C   0  0  0  0  0  0  0  0  0  0  0  0
    4.2010   -3.2956    0.0000 C   0  0  0  0  0  0  0  0  0  0  0  0
    2.7343   -2.9815    0.0000 C   0  0  0  0  0  0  0  0  0  0  0  0
    2.5987   -1.5004    0.0000 N   0  0  0  0  0  0  0  0  0  0  0  0
    1.2990   -0.7500    0.0000 C   0  0  0  0  0  0  0  0  0  0  0  0
    1.2990    0.7500    0.0000 N   0  0  0  0  0  0  0  0  0  0  0  0
    0.0000    1.5000    0.0000 C   0  0  0  0  0  0  0  0  0  0  0  0
    0.0031    3.0008    0.0000 N   0  0  0  0  0  0  0  0  0  0  0  0
    1.3039    3.7494    0.0000 C   0  0  0  0  0  0  0  0  0  0  0  0
    1.4469    5.2298    0.0000 C   0  0  0  0  0  0  0  0  0  0  0  0
    2.9152    5.5365    0.0000 C   0  0  0  0  0  0  0  0  0  0  0  0
    3.6607    4.2349    0.0000 N   0  0  0  0  0  0  0  0  0  0  0  0
    2.6531    3.1237    0.0000 N   0  0  0  0  0  0  0  0  0  0  0  0
    3.5304    6.9054    0.0000 C   0  0  0  0  0  0  0  0  0  0  0  0
    3.4681    8.3217    0.0000 C   0  0  0  0  0  0  0  0  0  0  0  0
    4.7759    7.5871    0.0000 C   0  0  0  0  0  0  0  0  0  0  0  0
   -1.2990    0.7500    0.0000 C   0  0  0  0  0  0  0  0  0  0  0  0
   -2.7248    1.2135    0.0000 C   0  0  0  0  0  0  0  0  0  0  0  0
   -3.6065    0.0000    0.0000 C   0  0  0  0  0  0  0  0  0  0  0  0
   -2.7248   -1.2135    0.0000 C   0  0  0  0  0  0  0  0  0  0  0  0
   -1.2990   -0.7500    0.0000 N   0  0  0  0  0  0  0  0  0  0  0  0
    0.0000   -1.5000    0.0000 N   0  0  0  0  0  0  0  0  0  0  0  0
    5.3712   -0.4376    0.0000 C   0  0  0  0  0  0  0  0  0  0  0  0
    5.6155    0.7373    0.0000 O   0  0  0  0  0  0  0  0  0  0  0  0
    6.4913   -1.4365    0.0000 N   0  0  0  0  0  0  0  0  0  0  0  0
    7.9168   -0.9668    0.0000 C   0  0  0  0  0  0  0  0  0  0  0  0
    9.0377   -1.9636    0.0000 C   0  0  0  0  0  0  0  0  0  0  0  0
   10.4614   -1.4913    0.0000 C   0  0  0  0  0  0  0  0  0  0  0  0
   10.7643   -0.0222    0.0000 C   0  0  0  0  0  0  0  0  0  0  0  0
   11.9032    0.3557    0.0000 F   0  0  0  0  0  0  0  0  0  0  0  0
    9.6434    0.9746    0.0000 N   0  0  0  0  0  0  0  0  0  0  0  0
    8.2197    0.5023    0.0000 C   0  0  0  0  0  0  0  0  0  0  0  0
  2  1  1  0
  2  3  1  0
  3  4  1  0
  4  5  1  0
  5  6  1  0
  6  2  1  0
  6  7  1  0
  7  8  1  0
  8  9  2  0
  9 10  1  0
 10 11  1  0
 11 12  2  0
 12 13  1  0
 13 14  2  0
 14 15  1  0
 15 11  1  0
 13 16  1  0
 16 17  1  0
 17 18  1  0
 18 16  1  0
  9 19  1  0
 19 20  2  0
 20 21  1  0
 21 22  2  0
 22 23  1  0
 23 19  1  0
 23 24  1  0
 24  7  2  0
  2 25  1  0
 25 26  2  0
 25 27  1  0
 27 28  1  0
 28 29  2  0
 29 30  1  0
 30 31  2  0
 31 32  1  0
 31 33  1  0
 33 34  2  0
 34 28  1  0
M  END
>  <Classification>  (941) 
0

>  <pchembl>  (941) 
4.75

>  <InChI_steorem>  (941) 
InChI=1S/C23H24FN9O/c1-23(21(34)26-15-7-8-18(24)25-13-15)9-3-10-32(23)22-28-20(17-4-2-11-33(17)31-22)27-19-12-16(29-30-19)14-5-6-14/h2,4,7-8,11-14H,3,5-6,9-10H2,1H3,(H,26,34)(H2,27,28,29,30,31)

>  <source>  (941) 
ChEMBL28

>  <source_id>  (941) 
28

>  <optional_reference>  (941) 
10.1021/acs.jmedchem.8b01821

>  <optional_origin>  (941) 
None

>  <target>  (941) 
MDR1

$$$$

     RDKit          2D

 35 39  0  0  0  0  0  0  0  0999 V2000
   20.3261  -18.4219    0.0000 C   0  0  0  0  0  0  0  0  0  0  0  0
   20.3250  -19.2500    0.0000 C   0  0  0  0  0  0  0  0  0  0  0  0
   21.0404  -19.6633    0.0000 C   0  0  0  0  0  0  0  0  0  0  0  0
   21.0386  -18.0087    0.0000 C   0  0  0  0  0  0  0  0  0  0  0  0
   21.7547  -18.4183    0.0000 C   0  0  0  0  0  0  0  0  0  0  0  0
   21.7536  -19.2475    0.0000 C   0  0  0  0  0  0  0  0  0  0  0  0
   22.4672  -19.6609    0.0000 C   0  0  0  0  0  0  0  0  0  0  0  0
   23.1865  -19.2495    0.0000 C   0  0  0  0  0  0  0  0  0  0  0  0
   23.1877  -18.4203    0.0000 N   0  0  0  0  0  0  0  0  0  0  0  0
   22.4695  -18.0023    0.0000 C   0  0  0  0  0  0  0  0  0  0  0  0
   23.9038  -18.0091    0.0000 C   0  0  0  0  0  0  0  0  0  0  0  0
   24.6180  -18.4237    0.0000 C   0  0  0  0  0  0  0  0  0  0  0  0
   25.3341  -18.0125    0.0000 C   0  0  0  0  0  0  0  0  0  0  0  0
   19.6109  -18.0092    0.0000 O   0  0  0  0  0  0  0  0  0  0  0  0
   18.8958  -18.4222    0.0000 C   0  0  0  0  0  0  0  0  0  0  0  0
   19.6094  -19.6624    0.0000 O   0  0  0  0  0  0  0  0  0  0  0  0
   18.8946  -19.2489    0.0000 C   0  0  0  0  0  0  0  0  0  0  0  0
   26.0482  -18.4271    0.0000 C   0  0  0  0  0  0  0  0  0  0  0  0
   26.7644  -18.0161    0.0000 C   0  0  0  0  0  0  0  0  0  0  0  0
   27.4785  -18.4307    0.0000 O   0  0  0  0  0  0  0  0  0  0  0  0
   28.1957  -18.0212    0.0000 C   0  0  0  0  0  0  0  0  0  0  0  0
   28.9081  -18.4389    0.0000 C   0  0  0  0  0  0  0  0  0  0  0  0
   28.9111  -16.7873    0.0000 C   0  0  0  0  0  0  0  0  0  0  0  0
   28.1974  -17.1984    0.0000 C   0  0  0  0  0  0  0  0  0  0  0  0
   29.6293  -17.2035    0.0000 C   0  0  0  0  0  0  0  0  0  0  0  0
   29.6208  -18.0272    0.0000 C   0  0  0  0  0  0  0  0  0  0  0  0
   30.3260  -18.4440    0.0000 O   0  0  0  0  0  0  0  0  0  0  0  0
   31.0440  -18.0418    0.0000 C   0  0  0  0  0  0  0  0  0  0  0  0
   31.7543  -18.4630    0.0000 O   0  0  0  0  0  0  0  0  0  0  0  0
   30.3429  -16.7967    0.0000 C   0  0  0  0  0  0  0  0  0  0  0  0
   31.0491  -17.2169    0.0000 C   0  0  0  0  0  0  0  0  0  0  0  0
   31.7639  -16.8155    0.0000 C   0  0  0  0  0  0  0  0  0  0  0  0
   31.7738  -15.9940    0.0000 C   0  0  0  0  0  0  0  0  0  0  0  0
   31.0628  -15.5757    0.0000 C   0  0  0  0  0  0  0  0  0  0  0  0
   30.3509  -15.9795    0.0000 C   0  0  0  0  0  0  0  0  0  0  0  0
  1  2  2  0
  2  3  1  0
  3  6  2  0
  5  4  2  0
  4  1  1  0
  5  6  1  0
  5 10  1  0
  6  7  1  0
  7  8  1  0
  8  9  1  0
  9 10  1  0
  9 11  1  0
 11 12  1  0
 12 13  1  0
  1 14  1  0
 14 15  1  0
  2 16  1  0
 16 17  1  0
 13 18  1  0
 18 19  1  0
 19 20  1  0
 20 21  1  0
 21 22  2  0
 22 26  1  0
 25 23  1  0
 23 24  2  0
 24 21  1  0
 25 26  2  0
 25 30  1  0
 26 27  1  0
 27 28  1  0
 28 31  1  0
 28 29  2  0
 30 31  2  0
 31 32  1  0
 32 33  2  0
 33 34  1  0
 34 35  2  0
 35 30  1  0
M  END
>  <Classification>  (942) 
1

>  <pchembl>  (942) 
6.48

>  <InChI_steorem>  (942) 
InChI=1S/C29H31NO5/c1-32-27-16-20-12-14-30(19-21(20)17-28(27)33-2)13-6-3-7-15-34-22-10-11-24-23-8-4-5-9-25(23)29(31)35-26(24)18-22/h4-5,8-11,16-18H,3,6-7,12-15,19H2,1-2H3

>  <source>  (942) 
ChEMBL28

>  <source_id>  (942) 
28

>  <optional_reference>  (942) 
10.1016/j.ejmech.2018.10.043

>  <optional_origin>  (942) 
None

>  <target>  (942) 
MDR1

$$$$

     RDKit          2D

 35 39  0  0  0  0  0  0  0  0999 V2000
   30.0173  -14.4742    0.0000 C   0  0  0  0  0  0  0  0  0  0  0  0
   30.0173  -15.2914    0.0000 N   0  0  0  0  0  0  0  0  0  0  0  0
   30.7226  -15.6959    0.0000 C   0  0  0  0  0  0  0  0  0  0  0  0
   31.4279  -15.2914    0.0000 C   0  0  0  0  0  0  0  0  0  0  0  0
   31.4279  -14.4742    0.0000 N   0  0  0  0  0  0  0  0  0  0  0  0
   30.7226  -14.0615    0.0000 C   0  0  0  0  0  0  0  0  0  0  0  0
   32.1368  -14.0677    0.0000 C   0  0  0  0  0  0  0  0  0  0  0  0
   32.8433  -14.4783    0.0000 C   0  0  0  0  0  0  0  0  0  0  0  0
   32.1392  -13.2505    0.0000 O   0  0  0  0  0  0  0  0  0  0  0  0
   32.8409  -15.2955    0.0000 S   0  0  0  0  0  0  0  0  0  0  0  0
   33.5474  -15.7062    0.0000 C   0  0  0  0  0  0  0  0  0  0  0  0
   33.6326  -16.5174    0.0000 N   0  0  0  0  0  0  0  0  0  0  0  0
   34.4314  -16.6897    0.0000 C   0  0  0  0  0  0  0  0  0  0  0  0
   34.8421  -15.9831    0.0000 N   0  0  0  0  0  0  0  0  0  0  0  0
   34.2970  -15.3743    0.0000 N   0  0  0  0  0  0  0  0  0  0  0  0
   34.7610  -17.4320    0.0000 C   0  0  0  0  0  0  0  0  0  0  0  0
   34.2770  -18.0919    0.0000 C   0  0  0  0  0  0  0  0  0  0  0  0
   34.6066  -18.8388    0.0000 N   0  0  0  0  0  0  0  0  0  0  0  0
   35.4199  -18.9271    0.0000 C   0  0  0  0  0  0  0  0  0  0  0  0
   35.9025  -18.2625    0.0000 C   0  0  0  0  0  0  0  0  0  0  0  0
   35.5703  -17.5182    0.0000 C   0  0  0  0  0  0  0  0  0  0  0  0
   33.0270  -17.0600    0.0000 C   0  0  0  0  0  0  0  0  0  0  0  0
   32.2496  -16.8047    0.0000 C   0  0  0  0  0  0  0  0  0  0  0  0
   31.6418  -17.3498    0.0000 C   0  0  0  0  0  0  0  0  0  0  0  0
   31.8102  -18.1504    0.0000 C   0  0  0  0  0  0  0  0  0  0  0  0
   32.5919  -18.4029    0.0000 C   0  0  0  0  0  0  0  0  0  0  0  0
   33.1963  -17.8561    0.0000 C   0  0  0  0  0  0  0  0  0  0  0  0
   32.0817  -16.0049    0.0000 C   0  0  0  0  0  0  0  0  0  0  0  0
   29.3102  -15.7010    0.0000 C   0  0  0  0  0  0  0  0  0  0  0  0
   28.6019  -15.2934    0.0000 C   0  0  0  0  0  0  0  0  0  0  0  0
   28.6037  -14.4772    0.0000 C   0  0  0  0  0  0  0  0  0  0  0  0
   27.8962  -14.0697    0.0000 C   0  0  0  0  0  0  0  0  0  0  0  0
   27.1882  -14.4794    0.0000 C   0  0  0  0  0  0  0  0  0  0  0  0
   27.1920  -15.3008    0.0000 C   0  0  0  0  0  0  0  0  0  0  0  0
   27.9000  -15.7046    0.0000 C   0  0  0  0  0  0  0  0  0  0  0  0
  1  2  1  0
  1  6  1  0
  2  3  1  0
  3  4  1  0
  4  5  1  0
  5  6  1  0
  5  7  1  0
  7  8  1  0
  7  9  2  0
  8 10  1  0
 10 11  1  0
 11 12  1  0
 12 13  1  0
 13 14  2  0
 14 15  1  0
 15 11  2  0
 16 17  2  0
 17 18  1  0
 18 19  2  0
 19 20  1  0
 20 21  2  0
 21 16  1  0
 13 16  1  0
 22 23  2  0
 23 24  1  0
 24 25  2  0
 25 26  1  0
 26 27  2  0
 27 22  1  0
 12 22  1  0
 23 28  1  0
  2 29  1  0
 29 30  1  0
 30 31  2  0
 31 32  1  0
 32 33  2  0
 33 34  1  0
 34 35  2  0
 35 30  1  0
M  END
>  <Classification>  (943) 
0

>  <pchembl>  (943) 
4.81

>  <InChI_steorem>  (943) 
InChI=1S/C27H28N6OS/c1-21-8-5-6-12-24(21)33-26(23-11-7-13-28-18-23)29-30-27(33)35-20-25(34)32-16-14-31(15-17-32)19-22-9-3-2-4-10-22/h2-13,18H,14-17,19-20H2,1H3

>  <source>  (943) 
ChEMBL28

>  <source_id>  (943) 
28

>  <optional_reference>  (943) 
10.1021/acs.jmedchem.8b01821

>  <optional_origin>  (943) 
None

>  <target>  (943) 
MDR1

$$$$

     RDKit          2D

 36 40  0  0  0  0  0  0  0  0999 V2000
   24.3797  -28.0894    0.0000 C   0  0  0  0  0  0  0  0  0  0  0  0
   18.7180  -27.2646    0.0000 C   0  0  0  0  0  0  0  0  0  0  0  0
   18.7169  -28.0841    0.0000 C   0  0  0  0  0  0  0  0  0  0  0  0
   19.4249  -28.4931    0.0000 C   0  0  0  0  0  0  0  0  0  0  0  0
   19.4232  -26.8557    0.0000 C   0  0  0  0  0  0  0  0  0  0  0  0
   20.1318  -27.2610    0.0000 C   0  0  0  0  0  0  0  0  0  0  0  0
   20.1306  -28.0816    0.0000 C   0  0  0  0  0  0  0  0  0  0  0  0
   20.8368  -28.4907    0.0000 C   0  0  0  0  0  0  0  0  0  0  0  0
   21.5487  -28.0836    0.0000 C   0  0  0  0  0  0  0  0  0  0  0  0
   21.5499  -27.2630    0.0000 N   0  0  0  0  0  0  0  0  0  0  0  0
   20.8391  -26.8494    0.0000 C   0  0  0  0  0  0  0  0  0  0  0  0
   22.2586  -26.8561    0.0000 C   0  0  0  0  0  0  0  0  0  0  0  0
   22.9653  -27.2664    0.0000 C   0  0  0  0  0  0  0  0  0  0  0  0
   18.0102  -26.8561    0.0000 O   0  0  0  0  0  0  0  0  0  0  0  0
   17.3026  -27.2649    0.0000 C   0  0  0  0  0  0  0  0  0  0  0  0
   18.0089  -28.4921    0.0000 O   0  0  0  0  0  0  0  0  0  0  0  0
   17.3015  -28.0830    0.0000 C   0  0  0  0  0  0  0  0  0  0  0  0
   22.9617  -28.0829    0.0000 C   0  0  0  0  0  0  0  0  0  0  0  0
   23.6675  -28.4931    0.0000 C   0  0  0  0  0  0  0  0  0  0  0  0
   24.3766  -27.2647    0.0000 C   0  0  0  0  0  0  0  0  0  0  0  0
   23.6701  -26.8582    0.0000 C   0  0  0  0  0  0  0  0  0  0  0  0
   25.0832  -26.8543    0.0000 C   0  0  0  0  0  0  0  0  0  0  0  0
   25.7920  -27.2610    0.0000 O   0  0  0  0  0  0  0  0  0  0  0  0
   26.4983  -26.8499    0.0000 C   0  0  0  0  0  0  0  0  0  0  0  0
   27.2067  -27.2573    0.0000 C   0  0  0  0  0  0  0  0  0  0  0  0
   27.1959  -25.6229    0.0000 C   0  0  0  0  0  0  0  0  0  0  0  0
   26.4931  -26.0356    0.0000 C   0  0  0  0  0  0  0  0  0  0  0  0
   27.9100  -26.0288    0.0000 C   0  0  0  0  0  0  0  0  0  0  0  0
   27.9085  -26.8439    0.0000 C   0  0  0  0  0  0  0  0  0  0  0  0
   28.6097  -27.2506    0.0000 O   0  0  0  0  0  0  0  0  0  0  0  0
   29.3170  -26.8466    0.0000 C   0  0  0  0  0  0  0  0  0  0  0  0
   29.3186  -26.0315    0.0000 C   0  0  0  0  0  0  0  0  0  0  0  0
   28.6128  -25.6203    0.0000 C   0  0  0  0  0  0  0  0  0  0  0  0
   30.0234  -27.2575    0.0000 O   0  0  0  0  0  0  0  0  0  0  0  0
   30.0275  -25.6249    0.0000 C   0  0  0  0  0  0  0  0  0  0  0  0
   28.6132  -24.8031    0.0000 C   0  0  0  0  0  0  0  0  0  0  0  0
  2  3  2  0
  3  4  1  0
  4  7  2  0
  6  5  2  0
  5  2  1  0
  6  7  1  0
  6 11  1  0
  7  8  1  0
  8  9  1  0
  9 10  1  0
 10 11  1  0
 10 12  1  0
 12 13  1  0
  2 14  1  0
 14 15  1  0
  3 16  1  0
 16 17  1  0
 13 18  2  0
 18 19  1  0
 19  1  2  0
  1 20  1  0
 20 21  2  0
 21 13  1  0
 20 22  1  0
 22 23  1  0
 23 24  1  0
 24 25  2  0
 25 29  1  0
 28 26  1  0
 26 27  2  0
 27 24  1  0
 28 29  2  0
 28 33  1  0
 29 30  1  0
 30 31  1  0
 31 32  1  0
 32 33  2  0
 31 34  2  0
 32 35  1  0
 33 36  1  0
M  END
>  <Classification>  (944) 
1

>  <pchembl>  (944) 
6.8

>  <InChI_steorem>  (944) 
InChI=1S/C30H31NO5/c1-19-20(2)30(32)36-27-15-25(8-9-26(19)27)35-18-22-7-5-6-21(12-22)16-31-11-10-23-13-28(33-3)29(34-4)14-24(23)17-31/h5-9,12-15H,10-11,16-18H2,1-4H3

>  <source>  (944) 
ChEMBL28

>  <source_id>  (944) 
28

>  <optional_reference>  (944) 
10.1016/j.ejmech.2018.10.043

>  <optional_origin>  (944) 
None

>  <target>  (944) 
MDR1

$$$$

     RDKit          2D

 36 40  0  0  0  0  0  0  0  0999 V2000
   24.4936  -10.7187    0.0000 O   0  0  0  0  0  0  0  0  0  0  0  0
   25.2155  -11.1018    0.0000 C   0  0  0  0  0  0  0  0  0  0  0  0
   25.2433  -11.9185    0.0000 C   0  0  0  0  0  0  0  0  0  0  0  0
   26.6259  -11.0469    0.0000 C   0  0  0  0  0  0  0  0  0  0  0  0
   25.9045  -10.6677    0.0000 C   0  0  0  0  0  0  0  0  0  0  0  0
   26.6579  -11.8678    0.0000 C   0  0  0  0  0  0  0  0  0  0  0  0
   25.9647  -12.2965    0.0000 C   0  0  0  0  0  0  0  0  0  0  0  0
   25.9893  -13.1068    0.0000 O   0  0  0  0  0  0  0  0  0  0  0  0
   26.7056  -13.4944    0.0000 C   0  0  0  0  0  0  0  0  0  0  0  0
   27.3989  -13.0657    0.0000 C   0  0  0  0  0  0  0  0  0  0  0  0
   27.3757  -12.2492    0.0000 C   0  0  0  0  0  0  0  0  0  0  0  0
   26.7293  -14.3113    0.0000 O   0  0  0  0  0  0  0  0  0  0  0  0
   28.1182  -13.4533    0.0000 C   0  0  0  0  0  0  0  0  0  0  0  0
   18.1197  -11.1170    0.0000 C   0  0  0  0  0  0  0  0  0  0  0  0
   18.1186  -11.9365    0.0000 C   0  0  0  0  0  0  0  0  0  0  0  0
   18.8266  -12.3455    0.0000 C   0  0  0  0  0  0  0  0  0  0  0  0
   18.8248  -10.7081    0.0000 C   0  0  0  0  0  0  0  0  0  0  0  0
   19.5335  -11.1134    0.0000 C   0  0  0  0  0  0  0  0  0  0  0  0
   19.5323  -11.9340    0.0000 C   0  0  0  0  0  0  0  0  0  0  0  0
   20.2385  -12.3431    0.0000 C   0  0  0  0  0  0  0  0  0  0  0  0
   20.9504  -11.9360    0.0000 C   0  0  0  0  0  0  0  0  0  0  0  0
   20.9515  -11.1154    0.0000 N   0  0  0  0  0  0  0  0  0  0  0  0
   20.2408  -10.7018    0.0000 C   0  0  0  0  0  0  0  0  0  0  0  0
   21.6602  -10.7085    0.0000 C   0  0  0  0  0  0  0  0  0  0  0  0
   22.3669  -11.1188    0.0000 C   0  0  0  0  0  0  0  0  0  0  0  0
   23.0756  -10.7119    0.0000 C   0  0  0  0  0  0  0  0  0  0  0  0
   17.4119  -10.7085    0.0000 O   0  0  0  0  0  0  0  0  0  0  0  0
   16.7043  -11.1173    0.0000 C   0  0  0  0  0  0  0  0  0  0  0  0
   17.4106  -12.3445    0.0000 O   0  0  0  0  0  0  0  0  0  0  0  0
   16.7032  -11.9354    0.0000 C   0  0  0  0  0  0  0  0  0  0  0  0
   23.7824  -11.1222    0.0000 C   0  0  0  0  0  0  0  0  0  0  0  0
   28.1400  -14.2686    0.0000 C   0  0  0  0  0  0  0  0  0  0  0  0
   28.8585  -14.6562    0.0000 C   0  0  0  0  0  0  0  0  0  0  0  0
   29.5549  -14.2270    0.0000 C   0  0  0  0  0  0  0  0  0  0  0  0
   29.5282  -13.4060    0.0000 C   0  0  0  0  0  0  0  0  0  0  0  0
   28.8092  -13.0221    0.0000 C   0  0  0  0  0  0  0  0  0  0  0  0
  1  2  1  0
  2  3  2  0
  3  7  1  0
  6  4  1  0
  4  5  2  0
  5  2  1  0
  6  7  2  0
  6 11  1  0
  7  8  1  0
  8  9  1  0
  9 10  1  0
 10 11  2  0
  9 12  2  0
 10 13  1  0
 14 15  2  0
 15 16  1  0
 16 19  2  0
 18 17  2  0
 17 14  1  0
 18 19  1  0
 18 23  1  0
 19 20  1  0
 20 21  1  0
 21 22  1  0
 22 23  1  0
 22 24  1  0
 24 25  1  0
 25 26  1  0
 14 27  1  0
 27 28  1  0
 15 29  1  0
 29 30  1  0
 26 31  1  0
 31  1  1  0
 13 32  2  0
 32 33  1  0
 33 34  2  0
 34 35  1  0
 35 36  2  0
 36 13  1  0
M  END
>  <Classification>  (945) 
1

>  <pchembl>  (945) 
6.39

>  <InChI_steorem>  (945) 
InChI=1S/C30H31NO5/c1-33-28-17-22-12-14-31(20-24(22)18-29(28)34-2)13-6-7-15-35-25-11-10-23-16-26(21-8-4-3-5-9-21)30(32)36-27(23)19-25/h3-5,8-11,16-19H,6-7,12-15,20H2,1-2H3

>  <source>  (945) 
ChEMBL28

>  <source_id>  (945) 
28

>  <optional_reference>  (945) 
10.1016/j.ejmech.2018.10.043

>  <optional_origin>  (945) 
None

>  <target>  (945) 
MDR1

$$$$

     RDKit          2D

 36 40  0  0  0  0  0  0  0  0999 V2000
   31.8292   -3.2605    0.0000 C   0  0  0  0  0  0  0  0  0  0  0  0
   31.8292   -4.0818    0.0000 C   0  0  0  0  0  0  0  0  0  0  0  0
   32.5386   -4.4904    0.0000 O   0  0  0  0  0  0  0  0  0  0  0  0
   32.5386   -2.8478    0.0000 C   0  0  0  0  0  0  0  0  0  0  0  0
   33.2439   -3.2605    0.0000 C   0  0  0  0  0  0  0  0  0  0  0  0
   33.2423   -4.0800    0.0000 C   0  0  0  0  0  0  0  0  0  0  0  0
   33.9506   -4.4914    0.0000 C   0  0  0  0  0  0  0  0  0  0  0  0
   34.6610   -4.0803    0.0000 C   0  0  0  0  0  0  0  0  0  0  0  0
   34.6587   -3.2577    0.0000 C   0  0  0  0  0  0  0  0  0  0  0  0
   33.9498   -2.8541    0.0000 C   0  0  0  0  0  0  0  0  0  0  0  0
   32.5386   -2.0265    0.0000 O   0  0  0  0  0  0  0  0  0  0  0  0
   31.1179   -4.4956    0.0000 O   0  0  0  0  0  0  0  0  0  0  0  0
   30.4055   -4.0839    0.0000 C   0  0  0  0  0  0  0  0  0  0  0  0
   29.6943   -4.4976    0.0000 C   0  0  0  0  0  0  0  0  0  0  0  0
   28.9818   -4.0859    0.0000 N   0  0  0  0  0  0  0  0  0  0  0  0
   29.6955   -5.3189    0.0000 O   0  0  0  0  0  0  0  0  0  0  0  0
   28.2706   -4.4997    0.0000 C   0  0  0  0  0  0  0  0  0  0  0  0
   26.8532   -5.3216    0.0000 C   0  0  0  0  0  0  0  0  0  0  0  0
   27.5706   -5.7290    0.0000 C   0  0  0  0  0  0  0  0  0  0  0  0
   28.2743   -5.3177    0.0000 C   0  0  0  0  0  0  0  0  0  0  0  0
   31.1186   -2.8561    0.0000 C   0  0  0  0  0  0  0  0  0  0  0  0
   31.1175   -2.0337    0.0000 C   0  0  0  0  0  0  0  0  0  0  0  0
   30.4053   -1.6231    0.0000 C   0  0  0  0  0  0  0  0  0  0  0  0
   29.6937   -2.0380    0.0000 C   0  0  0  0  0  0  0  0  0  0  0  0
   29.6987   -2.8635    0.0000 C   0  0  0  0  0  0  0  0  0  0  0  0
   30.4115   -3.2662    0.0000 C   0  0  0  0  0  0  0  0  0  0  0  0
   26.8524   -4.4994    0.0000 C   0  0  0  0  0  0  0  0  0  0  0  0
   27.5633   -4.0910    0.0000 C   0  0  0  0  0  0  0  0  0  0  0  0
   27.5655   -3.2745    0.0000 C   0  0  0  0  0  0  0  0  0  0  0  0
   26.8576   -2.8655    0.0000 C   0  0  0  0  0  0  0  0  0  0  0  0
   26.1460   -3.2748    0.0000 C   0  0  0  0  0  0  0  0  0  0  0  0
   26.1473   -4.0899    0.0000 C   0  0  0  0  0  0  0  0  0  0  0  0
   30.4033   -0.8018    0.0000 O   0  0  0  0  0  0  0  0  0  0  0  0
   28.9801   -1.6282    0.0000 O   0  0  0  0  0  0  0  0  0  0  0  0
   28.9766   -0.8069    0.0000 C   0  0  0  0  0  0  0  0  0  0  0  0
   31.1141   -0.3915    0.0000 C   0  0  0  0  0  0  0  0  0  0  0  0
  1  2  2  0
  1  4  1  0
  2  3  1  0
  3  6  1  0
  5  4  1  0
  5  6  2  0
  6  7  1  0
  7  8  2  0
  8  9  1  0
  9 10  2  0
 10  5  1  0
  4 11  2  0
  2 12  1  0
 12 13  1  0
 13 14  1  0
 14 15  1  0
 14 16  2  0
 15 17  1  0
 17 28  2  0
 27 18  2  0
 18 19  1  0
 19 20  2  0
 20 17  1  0
 21 22  2  0
 22 23  1  0
 23 24  2  0
 24 25  1  0
 25 26  2  0
 26 21  1  0
  1 21  1  0
 27 28  1  0
 28 29  1  0
 29 30  2  0
 30 31  1  0
 31 32  2  0
 32 27  1  0
 23 33  1  0
 24 34  1  0
 34 35  1  0
 33 36  1  0
M  END
>  <Classification>  (946) 
1

>  <pchembl>  (946) 
5.26

>  <InChI_steorem>  (946) 
InChI=1S/C29H23NO6/c1-33-24-15-14-19(16-25(24)34-2)27-28(32)21-11-5-6-13-23(21)36-29(27)35-17-26(31)30-22-12-7-9-18-8-3-4-10-20(18)22/h3-16H,17H2,1-2H3,(H,30,31)

>  <source>  (946) 
ChEMBL28

>  <source_id>  (946) 
28

>  <optional_reference>  (946) 
10.1016/j.ejmech.2018.12.019

>  <optional_origin>  (946) 
None

>  <target>  (946) 
MDR1

$$$$

     RDKit          2D

 36 40  0  0  0  0  0  0  0  0999 V2000
   40.7951  -20.9650    0.0000 O   0  0  0  0  0  0  0  0  0  0  0  0
   41.5018  -21.3753    0.0000 C   0  0  0  0  0  0  0  0  0  0  0  0
   41.4984  -22.1925    0.0000 C   0  0  0  0  0  0  0  0  0  0  0  0
   42.9134  -21.3743    0.0000 C   0  0  0  0  0  0  0  0  0  0  0  0
   42.2069  -20.9678    0.0000 C   0  0  0  0  0  0  0  0  0  0  0  0
   42.9140  -22.1958    0.0000 C   0  0  0  0  0  0  0  0  0  0  0  0
   42.2049  -22.5978    0.0000 C   0  0  0  0  0  0  0  0  0  0  0  0
   42.1986  -23.4084    0.0000 O   0  0  0  0  0  0  0  0  0  0  0  0
   42.8996  -23.8231    0.0000 C   0  0  0  0  0  0  0  0  0  0  0  0
   43.6087  -23.4211    0.0000 C   0  0  0  0  0  0  0  0  0  0  0  0
   43.6167  -22.6043    0.0000 C   0  0  0  0  0  0  0  0  0  0  0  0
   42.8921  -24.6402    0.0000 O   0  0  0  0  0  0  0  0  0  0  0  0
   44.3128  -23.8359    0.0000 C   0  0  0  0  0  0  0  0  0  0  0  0
   44.3271  -22.2003    0.0000 C   0  0  0  0  0  0  0  0  0  0  0  0
   39.3797  -20.9616    0.0000 C   0  0  0  0  0  0  0  0  0  0  0  0
   40.0864  -21.3719    0.0000 C   0  0  0  0  0  0  0  0  0  0  0  0
   33.7180  -20.1367    0.0000 C   0  0  0  0  0  0  0  0  0  0  0  0
   33.7169  -20.9562    0.0000 C   0  0  0  0  0  0  0  0  0  0  0  0
   34.4249  -21.3652    0.0000 C   0  0  0  0  0  0  0  0  0  0  0  0
   34.4232  -19.7278    0.0000 C   0  0  0  0  0  0  0  0  0  0  0  0
   35.1318  -20.1331    0.0000 C   0  0  0  0  0  0  0  0  0  0  0  0
   35.1306  -20.9538    0.0000 C   0  0  0  0  0  0  0  0  0  0  0  0
   35.8368  -21.3628    0.0000 C   0  0  0  0  0  0  0  0  0  0  0  0
   36.5487  -20.9558    0.0000 C   0  0  0  0  0  0  0  0  0  0  0  0
   36.5498  -20.1351    0.0000 N   0  0  0  0  0  0  0  0  0  0  0  0
   35.8391  -19.7215    0.0000 C   0  0  0  0  0  0  0  0  0  0  0  0
   37.2585  -19.7282    0.0000 C   0  0  0  0  0  0  0  0  0  0  0  0
   37.9653  -20.1385    0.0000 C   0  0  0  0  0  0  0  0  0  0  0  0
   33.0102  -19.7283    0.0000 O   0  0  0  0  0  0  0  0  0  0  0  0
   32.3026  -20.1370    0.0000 C   0  0  0  0  0  0  0  0  0  0  0  0
   33.0089  -21.3643    0.0000 O   0  0  0  0  0  0  0  0  0  0  0  0
   32.3015  -20.9551    0.0000 C   0  0  0  0  0  0  0  0  0  0  0  0
   37.9616  -20.9550    0.0000 C   0  0  0  0  0  0  0  0  0  0  0  0
   38.6675  -21.3652    0.0000 C   0  0  0  0  0  0  0  0  0  0  0  0
   39.3766  -20.1369    0.0000 C   0  0  0  0  0  0  0  0  0  0  0  0
   38.6701  -19.7303    0.0000 C   0  0  0  0  0  0  0  0  0  0  0  0
  1  2  1  0
  2  3  2  0
  3  7  1  0
  6  4  1  0
  4  5  2  0
  5  2  1  0
  6  7  2  0
  6 11  1  0
  7  8  1  0
  8  9  1  0
  9 10  1  0
 10 11  2  0
  9 12  2  0
 10 13  1  0
 11 14  1  0
 15 16  1  0
 16  1  1  0
 17 18  2  0
 18 19  1  0
 19 22  2  0
 21 20  2  0
 20 17  1  0
 21 22  1  0
 21 26  1  0
 22 23  1  0
 23 24  1  0
 24 25  1  0
 25 26  1  0
 25 27  1  0
 27 28  1  0
 17 29  1  0
 29 30  1  0
 18 31  1  0
 31 32  1  0
 28 33  2  0
 33 34  1  0
 34 15  2  0
 15 35  1  0
 35 36  2  0
 36 28  1  0
M  END
>  <Classification>  (947) 
1

>  <pchembl>  (947) 
6.72

>  <InChI_steorem>  (947) 
InChI=1S/C30H31NO5/c1-19-20(2)30(32)36-27-15-25(9-10-26(19)27)35-18-22-7-5-21(6-8-22)16-31-12-11-23-13-28(33-3)29(34-4)14-24(23)17-31/h5-10,13-15H,11-12,16-18H2,1-4H3

>  <source>  (947) 
ChEMBL28

>  <source_id>  (947) 
28

>  <optional_reference>  (947) 
10.1016/j.ejmech.2018.10.043

>  <optional_origin>  (947) 
None

>  <target>  (947) 
MDR1

$$$$

     RDKit          2D

 36 40  0  0  0  0  0  0  0  0999 V2000
    8.5019   -5.2349    0.0000 O   0  0  0  0  0  0  0  0  0  0  0  0
    8.5175   -4.4179    0.0000 C   0  0  0  0  0  0  0  0  0  0  0  0
    9.2335   -4.0241    0.0000 C   0  0  0  0  0  0  0  0  0  0  0  0
    7.8313   -3.1844    0.0000 C   0  0  0  0  0  0  0  0  0  0  0  0
    7.8189   -3.9994    0.0000 C   0  0  0  0  0  0  0  0  0  0  0  0
    8.5491   -2.7850    0.0000 C   0  0  0  0  0  0  0  0  0  0  0  0
    9.2448   -3.2097    0.0000 C   0  0  0  0  0  0  0  0  0  0  0  0
    9.9565   -2.8216    0.0000 O   0  0  0  0  0  0  0  0  0  0  0  0
    9.9787   -2.0074    0.0000 C   0  0  0  0  0  0  0  0  0  0  0  0
    9.2829   -1.5827    0.0000 C   0  0  0  0  0  0  0  0  0  0  0  0
    8.5650   -1.9722    0.0000 C   0  0  0  0  0  0  0  0  0  0  0  0
   10.6967   -1.6172    0.0000 O   0  0  0  0  0  0  0  0  0  0  0  0
    9.3037   -0.7658    0.0000 C   0  0  0  0  0  0  0  0  0  0  0  0
    7.8669   -1.5475    0.0000 C   0  0  0  0  0  0  0  0  0  0  0  0
    8.5023   -7.6968    0.0000 C   0  0  0  0  0  0  0  0  0  0  0  0
    2.8406   -6.8719    0.0000 C   0  0  0  0  0  0  0  0  0  0  0  0
    2.8395   -7.6915    0.0000 C   0  0  0  0  0  0  0  0  0  0  0  0
    3.5475   -8.1004    0.0000 C   0  0  0  0  0  0  0  0  0  0  0  0
    3.5457   -6.4631    0.0000 C   0  0  0  0  0  0  0  0  0  0  0  0
    4.2543   -6.8683    0.0000 C   0  0  0  0  0  0  0  0  0  0  0  0
    4.2532   -7.6890    0.0000 C   0  0  0  0  0  0  0  0  0  0  0  0
    4.9594   -8.0980    0.0000 C   0  0  0  0  0  0  0  0  0  0  0  0
    5.6712   -7.6910    0.0000 C   0  0  0  0  0  0  0  0  0  0  0  0
    5.6724   -6.8703    0.0000 N   0  0  0  0  0  0  0  0  0  0  0  0
    4.9617   -6.4567    0.0000 C   0  0  0  0  0  0  0  0  0  0  0  0
    6.3811   -6.4634    0.0000 C   0  0  0  0  0  0  0  0  0  0  0  0
    7.0878   -6.8738    0.0000 C   0  0  0  0  0  0  0  0  0  0  0  0
    2.1328   -6.4635    0.0000 O   0  0  0  0  0  0  0  0  0  0  0  0
    1.4252   -6.8723    0.0000 C   0  0  0  0  0  0  0  0  0  0  0  0
    2.1314   -8.0995    0.0000 O   0  0  0  0  0  0  0  0  0  0  0  0
    1.4240   -7.6903    0.0000 C   0  0  0  0  0  0  0  0  0  0  0  0
    7.0842   -7.6902    0.0000 C   0  0  0  0  0  0  0  0  0  0  0  0
    7.7901   -8.1004    0.0000 C   0  0  0  0  0  0  0  0  0  0  0  0
    8.4991   -6.8721    0.0000 C   0  0  0  0  0  0  0  0  0  0  0  0
    7.7927   -6.4656    0.0000 C   0  0  0  0  0  0  0  0  0  0  0  0
    7.7915   -5.6484    0.0000 C   0  0  0  0  0  0  0  0  0  0  0  0
  1  2  1  0
  2  3  2  0
  3  7  1  0
  6  4  1  0
  4  5  2  0
  5  2  1  0
  6  7  2  0
  6 11  1  0
  7  8  1  0
  8  9  1  0
  9 10  1  0
 10 11  2  0
  9 12  2  0
 10 13  1  0
 11 14  1  0
 16 17  2  0
 17 18  1  0
 18 21  2  0
 20 19  2  0
 19 16  1  0
 20 21  1  0
 20 25  1  0
 21 22  1  0
 22 23  1  0
 23 24  1  0
 24 25  1  0
 24 26  1  0
 26 27  1  0
 16 28  1  0
 28 29  1  0
 17 30  1  0
 30 31  1  0
 27 32  2  0
 32 33  1  0
 33 15  2  0
 15 34  1  0
 34 35  2  0
 35 27  1  0
 35 36  1  0
 36  1  1  0
M  END
>  <Classification>  (948) 
1

>  <pchembl>  (948) 
6.8

>  <InChI_steorem>  (948) 
InChI=1S/C30H31NO5/c1-19-20(2)30(32)36-27-15-25(9-10-26(19)27)35-18-23-8-6-5-7-22(23)16-31-12-11-21-13-28(33-3)29(34-4)14-24(21)17-31/h5-10,13-15H,11-12,16-18H2,1-4H3

>  <source>  (948) 
ChEMBL28

>  <source_id>  (948) 
28

>  <optional_reference>  (948) 
10.1016/j.ejmech.2018.10.043

>  <optional_origin>  (948) 
None

>  <target>  (948) 
MDR1

$$$$

     RDKit          2D

 36 41  0  0  0  0  0  0  0  0999 V2000
   17.5239   -4.4683    0.0000 C   0  0  0  0  0  0  0  0  0  0  0  0
   18.2336   -4.0589    0.0000 N   0  0  0  0  0  0  0  0  0  0  0  0
   18.2308   -3.2362    0.0000 C   0  0  0  0  0  0  0  0  0  0  0  0
   17.5222   -2.8310    0.0000 N   0  0  0  0  0  0  0  0  0  0  0  0
   18.9339   -2.8263    0.0000 C   0  0  0  0  0  0  0  0  0  0  0  0
   19.6434   -3.2339    0.0000 C   0  0  0  0  0  0  0  0  0  0  0  0
   20.3491   -2.8233    0.0000 N   0  0  0  0  0  0  0  0  0  0  0  0
   20.3465   -2.0053    0.0000 C   0  0  0  0  0  0  0  0  0  0  0  0
   19.6323   -1.5995    0.0000 C   0  0  0  0  0  0  0  0  0  0  0  0
   18.9295   -2.0124    0.0000 C   0  0  0  0  0  0  0  0  0  0  0  0
   16.8159   -4.0594    0.0000 C   0  0  0  0  0  0  0  0  0  0  0  0
   16.8171   -3.2429    0.0000 C   0  0  0  0  0  0  0  0  0  0  0  0
   16.0409   -2.9893    0.0000 S   0  0  0  0  0  0  0  0  0  0  0  0
   16.0390   -4.3105    0.0000 C   0  0  0  0  0  0  0  0  0  0  0  0
   15.5580   -3.6461    0.0000 C   0  0  0  0  0  0  0  0  0  0  0  0
   14.7467   -3.7299    0.0000 C   0  0  0  0  0  0  0  0  0  0  0  0
   14.4099   -4.4771    0.0000 C   0  0  0  0  0  0  0  0  0  0  0  0
   14.8909   -5.1415    0.0000 C   0  0  0  0  0  0  0  0  0  0  0  0
   15.7085   -5.0587    0.0000 C   0  0  0  0  0  0  0  0  0  0  0  0
   13.5970   -4.5600    0.0000 C   0  0  0  0  0  0  0  0  0  0  0  0
   17.5237   -5.2855    0.0000 N   0  0  0  0  0  0  0  0  0  0  0  0
   16.8147   -5.6878    0.0000 C   0  0  0  0  0  0  0  0  0  0  0  0
   16.8125   -6.5014    0.0000 C   0  0  0  0  0  0  0  0  0  0  0  0
   17.5183   -6.9140    0.0000 N   0  0  0  0  0  0  0  0  0  0  0  0
   18.2279   -6.5068    0.0000 C   0  0  0  0  0  0  0  0  0  0  0  0
   18.2318   -5.6870    0.0000 C   0  0  0  0  0  0  0  0  0  0  0  0
   17.5150   -7.7312    0.0000 C   0  0  0  0  0  0  0  0  0  0  0  0
   16.8057   -8.1369    0.0000 C   0  0  0  0  0  0  0  0  0  0  0  0
   18.2211   -8.1426    0.0000 C   0  0  0  0  0  0  0  0  0  0  0  0
   18.2178   -8.9598    0.0000 N   0  0  0  0  0  0  0  0  0  0  0  0
   18.9304   -7.7369    0.0000 O   0  0  0  0  0  0  0  0  0  0  0  0
   16.1018   -7.7240    0.0000 C   0  0  0  0  0  0  0  0  0  0  0  0
   15.3929   -8.1291    0.0000 C   0  0  0  0  0  0  0  0  0  0  0  0
   15.3892   -8.9471    0.0000 C   0  0  0  0  0  0  0  0  0  0  0  0
   16.1002   -9.3584    0.0000 C   0  0  0  0  0  0  0  0  0  0  0  0
   16.8062   -8.9510    0.0000 C   0  0  0  0  0  0  0  0  0  0  0  0
 11  1  1  0
  1  2  2  0
  2  3  1  0
  3  4  2  0
  4 12  1  0
  5  6  2  0
  6  7  1  0
  7  8  2  0
  8  9  1  0
  9 10  2  0
 10  5  1  0
  3  5  1  0
 11 12  2  0
 12 13  1  0
 13 15  1  0
 14 11  1  0
 14 15  2  0
 14 19  1  0
 15 16  1  0
 16 17  1  0
 17 18  1  0
 18 19  1  0
 17 20  1  0
  1 21  1  0
 21 22  1  0
 21 26  1  0
 22 23  1  0
 23 24  1  0
 24 25  1  0
 25 26  1  0
 24 27  1  0
 27 28  1  0
 27 29  1  0
 29 30  1  0
 29 31  2  0
 28 32  2  0
 32 33  1  0
 33 34  2  0
 34 35  1  0
 35 36  2  0
 36 28  1  0
M  END
>  <Classification>  (949) 
1

>  <pchembl>  (949) 
5.76

>  <InChI_steorem>  (949) 
InChI=1S/C28H30N6OS/c1-18-9-10-21-22(16-18)36-28-23(21)27(31-26(32-28)20-8-5-11-30-17-20)34-14-12-33(13-15-34)24(25(29)35)19-6-3-2-4-7-19/h2-8,11,17-18,24H,9-10,12-16H2,1H3,(H2,29,35)

>  <source>  (949) 
ChEMBL28

>  <source_id>  (949) 
28

>  <optional_reference>  (949) 
10.1021/acs.jmedchem.8b01821

>  <optional_origin>  (949) 
None

>  <target>  (949) 
MDR1

$$$$

     RDKit          2D

 37 40  0  0  0  0  0  0  0  0999 V2000
    5.6234   -5.8820    0.0000 N   0  0  0  0  0  0  0  0  0  0  0  0
    6.3346   -5.4723    0.0000 C   0  0  0  0  0  0  0  0  0  0  0  0
    7.0471   -5.8798    0.0000 C   0  0  0  0  0  0  0  0  0  0  0  0
    7.7582   -5.4701    0.0000 S   0  0  0  0  0  0  0  0  0  0  0  0
    6.3333   -4.6510    0.0000 O   0  0  0  0  0  0  0  0  0  0  0  0
    8.4707   -5.8776    0.0000 C   0  0  0  0  0  0  0  0  0  0  0  0
    9.1819   -5.4679    0.0000 C   0  0  0  0  0  0  0  0  0  0  0  0
    9.8944   -5.8754    0.0000 N   0  0  0  0  0  0  0  0  0  0  0  0
    9.1806   -4.6466    0.0000 O   0  0  0  0  0  0  0  0  0  0  0  0
   10.6056   -5.4657    0.0000 C   0  0  0  0  0  0  0  0  0  0  0  0
   11.3545   -5.7944    0.0000 N   0  0  0  0  0  0  0  0  0  0  0  0
   11.9004   -5.1821    0.0000 N   0  0  0  0  0  0  0  0  0  0  0  0
   11.4906   -4.4709    0.0000 C   0  0  0  0  0  0  0  0  0  0  0  0
   10.6875   -4.6463    0.0000 C   0  0  0  0  0  0  0  0  0  0  0  0
   11.8210   -3.7226    0.0000 C   0  0  0  0  0  0  0  0  0  0  0  0
   12.6390   -3.6370    0.0000 C   0  0  0  0  0  0  0  0  0  0  0  0
   12.9701   -2.8867    0.0000 C   0  0  0  0  0  0  0  0  0  0  0  0
   12.4885   -2.2254    0.0000 C   0  0  0  0  0  0  0  0  0  0  0  0
   11.6679   -2.3152    0.0000 C   0  0  0  0  0  0  0  0  0  0  0  0
   11.3364   -3.0658    0.0000 C   0  0  0  0  0  0  0  0  0  0  0  0
   10.5199   -3.1547    0.0000 C   0  0  0  0  0  0  0  0  0  0  0  0
   12.8187   -1.4737    0.0000 C   0  0  0  0  0  0  0  0  0  0  0  0
   13.7869   -2.8003    0.0000 C   0  0  0  0  0  0  0  0  0  0  0  0
   11.5277   -6.5957    0.0000 C   0  0  0  0  0  0  0  0  0  0  0  0
   10.9159   -7.1478    0.0000 C   0  0  0  0  0  0  0  0  0  0  0  0
   11.0872   -7.9502    0.0000 C   0  0  0  0  0  0  0  0  0  0  0  0
   11.8698   -8.2016    0.0000 C   0  0  0  0  0  0  0  0  0  0  0  0
   12.4813   -7.6444    0.0000 C   0  0  0  0  0  0  0  0  0  0  0  0
   12.3068   -6.8441    0.0000 C   0  0  0  0  0  0  0  0  0  0  0  0
    5.6226   -6.6992    0.0000 C   0  0  0  0  0  0  0  0  0  0  0  0
    4.9145   -7.1071    0.0000 C   0  0  0  0  0  0  0  0  0  0  0  0
    4.2072   -6.6959    0.0000 C   0  0  0  0  0  0  0  0  0  0  0  0
    3.4996   -7.1031    0.0000 C   0  0  0  0  0  0  0  0  0  0  0  0
    3.4983   -7.9212    0.0000 C   0  0  0  0  0  0  0  0  0  0  0  0
    4.2106   -8.3303    0.0000 C   0  0  0  0  0  0  0  0  0  0  0  0
    4.9153   -7.9207    0.0000 C   0  0  0  0  0  0  0  0  0  0  0  0
    2.7908   -8.3300    0.0000 F   0  0  0  0  0  0  0  0  0  0  0  0
  1  2  1  0
  2  3  1  0
  3  4  1  0
  2  5  2  0
  4  6  1  0
  6  7  1  0
  7  8  1  0
  7  9  2  0
  8 10  1  0
 10 11  1  0
 11 12  1  0
 12 13  2  0
 13 14  1  0
 14 10  2  0
 15 16  2  0
 16 17  1  0
 17 18  2  0
 18 19  1  0
 19 20  2  0
 20 15  1  0
 13 15  1  0
 20 21  1  0
 18 22  1  0
 17 23  1  0
 24 25  2  0
 25 26  1  0
 26 27  2  0
 27 28  1  0
 28 29  2  0
 29 24  1  0
 11 24  1  0
  1 30  1  0
 30 31  1  0
 31 32  2  0
 32 33  1  0
 33 34  2  0
 34 35  1  0
 35 36  2  0
 36 31  1  0
 34 37  1  0
M  END
>  <Classification>  (950) 
1

>  <pchembl>  (950) 
6.34

>  <InChI_steorem>  (950) 
InChI=1S/C29H29FN4O2S/c1-19-13-21(3)25(14-20(19)2)26-15-27(34(33-26)24-7-5-4-6-8-24)32-29(36)18-37-17-28(35)31-16-22-9-11-23(30)12-10-22/h4-15H,16-18H2,1-3H3,(H,31,35)(H,32,36)

>  <source>  (950) 
ChEMBL28

>  <source_id>  (950) 
28

>  <optional_reference>  (950) 
10.1021/acs.jmedchem.9b00966

>  <optional_origin>  (950) 
None

>  <target>  (950) 
MDR1

$$$$

     RDKit          2D

 37 40  0  0  0  0  0  0  0  0999 V2000
    7.2955   -9.3151    0.0000 C   0  0  0  0  0  0  0  0  0  0  0  0
    7.2944  -10.1347    0.0000 C   0  0  0  0  0  0  0  0  0  0  0  0
    8.0024  -10.5436    0.0000 C   0  0  0  0  0  0  0  0  0  0  0  0
    8.7121  -10.1342    0.0000 C   0  0  0  0  0  0  0  0  0  0  0  0
    8.7093   -9.3115    0.0000 C   0  0  0  0  0  0  0  0  0  0  0  0
    8.0006   -8.9063    0.0000 C   0  0  0  0  0  0  0  0  0  0  0  0
    6.5877   -8.9067    0.0000 O   0  0  0  0  0  0  0  0  0  0  0  0
    9.4154   -8.9003    0.0000 C   0  0  0  0  0  0  0  0  0  0  0  0
   10.1247   -9.3062    0.0000 C   0  0  0  0  0  0  0  0  0  0  0  0
    9.4123   -8.0831    0.0000 O   0  0  0  0  0  0  0  0  0  0  0  0
   10.8308   -8.8949    0.0000 C   0  0  0  0  0  0  0  0  0  0  0  0
   11.5401   -9.3009    0.0000 C   0  0  0  0  0  0  0  0  0  0  0  0
    5.8801   -9.3155    0.0000 C   0  0  0  0  0  0  0  0  0  0  0  0
    5.1723   -8.9070    0.0000 C   0  0  0  0  0  0  0  0  0  0  0  0
    4.4647   -9.3158    0.0000 N   0  0  0  0  0  0  0  0  0  0  0  0
    5.1721   -8.0898    0.0000 O   0  0  0  0  0  0  0  0  0  0  0  0
    3.7569   -8.9074    0.0000 C   0  0  0  0  0  0  0  0  0  0  0  0
   11.5401  -10.1169    0.0000 C   0  0  0  0  0  0  0  0  0  0  0  0
   12.2485  -10.5228    0.0000 C   0  0  0  0  0  0  0  0  0  0  0  0
   12.9556  -10.1114    0.0000 C   0  0  0  0  0  0  0  0  0  0  0  0
   12.9499   -9.2900    0.0000 C   0  0  0  0  0  0  0  0  0  0  0  0
   12.2409   -8.8879    0.0000 C   0  0  0  0  0  0  0  0  0  0  0  0
    3.7605   -8.0899    0.0000 C   0  0  0  0  0  0  0  0  0  0  0  0
    3.0536   -7.6816    0.0000 C   0  0  0  0  0  0  0  0  0  0  0  0
    3.0554   -9.3165    0.0000 C   0  0  0  0  0  0  0  0  0  0  0  0
    2.3478   -8.9118    0.0000 C   0  0  0  0  0  0  0  0  0  0  0  0
    2.3439   -8.0866    0.0000 C   0  0  0  0  0  0  0  0  0  0  0  0
    1.5579   -7.8354    0.0000 C   0  0  0  0  0  0  0  0  0  0  0  0
    1.0760   -8.5053    0.0000 O   0  0  0  0  0  0  0  0  0  0  0  0
    1.5642   -9.1705    0.0000 C   0  0  0  0  0  0  0  0  0  0  0  0
    1.3017   -7.0594    0.0000 O   0  0  0  0  0  0  0  0  0  0  0  0
   13.6654  -10.5164    0.0000 O   0  0  0  0  0  0  0  0  0  0  0  0
   13.6696  -11.3336    0.0000 C   0  0  0  0  0  0  0  0  0  0  0  0
   13.6546   -8.8763    0.0000 O   0  0  0  0  0  0  0  0  0  0  0  0
   14.3653   -9.2797    0.0000 C   0  0  0  0  0  0  0  0  0  0  0  0
   12.2511  -11.3399    0.0000 O   0  0  0  0  0  0  0  0  0  0  0  0
   11.5448  -11.7509    0.0000 C   0  0  0  0  0  0  0  0  0  0  0  0
  1  2  2  0
  2  3  1  0
  3  4  2  0
  4  5  1  0
  5  6  2  0
  6  1  1  0
  1  7  1  0
  5  8  1  0
  8  9  1  0
  8 10  2  0
  9 11  2  3
 11 12  1  0
  7 13  1  0
 13 14  1  0
 14 15  1  0
 14 16  2  0
 15 17  1  0
 12 18  2  0
 18 19  1  0
 19 20  2  0
 20 21  1  0
 21 22  2  0
 22 12  1  0
 17 23  2  0
 23 24  1  0
 24 27  2  0
 26 25  2  0
 25 17  1  0
 26 27  1  0
 27 28  1  0
 28 29  1  0
 29 30  1  0
 30 26  1  0
 28 31  2  0
 20 32  1  0
 32 33  1  0
 21 34  1  0
 34 35  1  0
 19 36  1  0
 36 37  1  0
M  END
>  <Classification>  (951) 
0

>  <pchembl>  (951) 
4.93

>  <InChI_steorem>  (951) 
InChI=1S/C28H25NO8/c1-33-24-11-17(12-25(34-2)27(24)35-3)7-10-23(30)18-5-4-6-21(14-18)36-16-26(31)29-20-8-9-22-19(13-20)15-37-28(22)32/h4-14H,15-16H2,1-3H3,(H,29,31)

>  <source>  (951) 
ChEMBL28

>  <source_id>  (951) 
28

>  <optional_reference>  (951) 
10.1016/j.ejmech.2018.12.019

>  <optional_origin>  (951) 
None

>  <target>  (951) 
MDR1

$$$$

     RDKit          2D

 37 41  0  0  0  0  0  0  0  0999 V2000
    2.7308  -29.4931    0.0000 C   0  0  0  0  0  0  0  0  0  0  0  0
    2.7297  -30.3127    0.0000 C   0  0  0  0  0  0  0  0  0  0  0  0
    3.4377  -30.7216    0.0000 C   0  0  0  0  0  0  0  0  0  0  0  0
    3.4359  -29.0843    0.0000 C   0  0  0  0  0  0  0  0  0  0  0  0
    4.1445  -29.4895    0.0000 C   0  0  0  0  0  0  0  0  0  0  0  0
    4.1434  -30.3102    0.0000 C   0  0  0  0  0  0  0  0  0  0  0  0
    4.8496  -30.7192    0.0000 C   0  0  0  0  0  0  0  0  0  0  0  0
    5.5615  -30.3122    0.0000 C   0  0  0  0  0  0  0  0  0  0  0  0
    5.5626  -29.4915    0.0000 N   0  0  0  0  0  0  0  0  0  0  0  0
    4.8519  -29.0779    0.0000 C   0  0  0  0  0  0  0  0  0  0  0  0
    6.2713  -29.0847    0.0000 C   0  0  0  0  0  0  0  0  0  0  0  0
    2.0230  -29.0847    0.0000 O   0  0  0  0  0  0  0  0  0  0  0  0
    1.3154  -29.4935    0.0000 C   0  0  0  0  0  0  0  0  0  0  0  0
    2.0216  -30.7207    0.0000 O   0  0  0  0  0  0  0  0  0  0  0  0
    1.3142  -30.3116    0.0000 C   0  0  0  0  0  0  0  0  0  0  0  0
    6.9780  -29.4950    0.0000 C   0  0  0  0  0  0  0  0  0  0  0  0
    7.6867  -29.0881    0.0000 C   0  0  0  0  0  0  0  0  0  0  0  0
    9.7809  -27.0203    0.0000 O   0  0  0  0  0  0  0  0  0  0  0  0
   10.4830  -26.6021    0.0000 C   0  0  0  0  0  0  0  0  0  0  0  0
   11.1955  -27.0022    0.0000 C   0  0  0  0  0  0  0  0  0  0  0  0
   11.1682  -25.3680    0.0000 C   0  0  0  0  0  0  0  0  0  0  0  0
   10.4695  -25.7878    0.0000 C   0  0  0  0  0  0  0  0  0  0  0  0
   11.8863  -25.7667    0.0000 C   0  0  0  0  0  0  0  0  0  0  0  0
   11.8931  -26.5818    0.0000 C   0  0  0  0  0  0  0  0  0  0  0  0
   12.5984  -26.9813    0.0000 O   0  0  0  0  0  0  0  0  0  0  0  0
   13.3015  -26.5701    0.0000 C   0  0  0  0  0  0  0  0  0  0  0  0
   13.2948  -25.7551    0.0000 C   0  0  0  0  0  0  0  0  0  0  0  0
   12.5850  -25.3511    0.0000 C   0  0  0  0  0  0  0  0  0  0  0  0
   14.0120  -26.9739    0.0000 O   0  0  0  0  0  0  0  0  0  0  0  0
   13.9996  -25.3414    0.0000 C   0  0  0  0  0  0  0  0  0  0  0  0
   12.5771  -24.5339    0.0000 C   0  0  0  0  0  0  0  0  0  0  0  0
    9.0900  -28.2556    0.0000 C   0  0  0  0  0  0  0  0  0  0  0  0
    9.7920  -27.8374    0.0000 C   0  0  0  0  0  0  0  0  0  0  0  0
    8.3950  -29.4917    0.0000 C   0  0  0  0  0  0  0  0  0  0  0  0
    9.0966  -29.0742    0.0000 C   0  0  0  0  0  0  0  0  0  0  0  0
    8.3677  -27.8575    0.0000 C   0  0  0  0  0  0  0  0  0  0  0  0
    7.6691  -28.2774    0.0000 C   0  0  0  0  0  0  0  0  0  0  0  0
  1  2  2  0
  2  3  1  0
  3  6  2  0
  5  4  2  0
  4  1  1  0
  5  6  1  0
  5 10  1  0
  6  7  1  0
  7  8  1  0
  8  9  1  0
  9 10  1  0
  9 11  1  0
  1 12  1  0
 12 13  1  0
  2 14  1  0
 14 15  1  0
 11 16  1  0
 16 17  1  0
 18 19  1  0
 19 20  2  0
 20 24  1  0
 23 21  1  0
 21 22  2  0
 22 19  1  0
 23 24  2  0
 23 28  1  0
 24 25  1  0
 25 26  1  0
 26 27  1  0
 27 28  2  0
 26 29  2  0
 27 30  1  0
 28 31  1  0
 32 33  1  0
 33 18  1  0
 17 34  2  0
 34 35  1  0
 35 32  2  0
 32 36  1  0
 36 37  2  0
 37 17  1  0
M  END
>  <Classification>  (952) 
1

>  <pchembl>  (952) 
6.72

>  <InChI_steorem>  (952) 
InChI=1S/C31H33NO5/c1-20-21(2)31(33)37-28-17-26(9-10-27(20)28)36-19-23-7-5-22(6-8-23)11-13-32-14-12-24-15-29(34-3)30(35-4)16-25(24)18-32/h5-10,15-17H,11-14,18-19H2,1-4H3

>  <source>  (952) 
ChEMBL28

>  <source_id>  (952) 
28

>  <optional_reference>  (952) 
10.1016/j.ejmech.2018.10.043

>  <optional_origin>  (952) 
None

>  <target>  (952) 
MDR1

$$$$

     RDKit          2D

 37 41  0  0  0  0  0  0  0  0999 V2000
   32.6407  -11.2056    0.0000 C   0  0  0  0  0  0  0  0  0  0  0  0
   32.6396  -12.0252    0.0000 C   0  0  0  0  0  0  0  0  0  0  0  0
   33.3476  -12.4341    0.0000 C   0  0  0  0  0  0  0  0  0  0  0  0
   33.3458  -10.7968    0.0000 C   0  0  0  0  0  0  0  0  0  0  0  0
   34.0545  -11.2020    0.0000 C   0  0  0  0  0  0  0  0  0  0  0  0
   34.0533  -12.0227    0.0000 C   0  0  0  0  0  0  0  0  0  0  0  0
   34.7595  -12.4317    0.0000 C   0  0  0  0  0  0  0  0  0  0  0  0
   35.4714  -12.0247    0.0000 C   0  0  0  0  0  0  0  0  0  0  0  0
   35.4725  -11.2040    0.0000 N   0  0  0  0  0  0  0  0  0  0  0  0
   34.7618  -10.7905    0.0000 C   0  0  0  0  0  0  0  0  0  0  0  0
   36.1812  -10.7972    0.0000 C   0  0  0  0  0  0  0  0  0  0  0  0
   36.8880  -11.2075    0.0000 C   0  0  0  0  0  0  0  0  0  0  0  0
   37.5967  -10.8006    0.0000 C   0  0  0  0  0  0  0  0  0  0  0  0
   31.9329  -10.7972    0.0000 O   0  0  0  0  0  0  0  0  0  0  0  0
   31.2253  -11.2060    0.0000 C   0  0  0  0  0  0  0  0  0  0  0  0
   31.9316  -12.4332    0.0000 O   0  0  0  0  0  0  0  0  0  0  0  0
   31.2242  -12.0241    0.0000 C   0  0  0  0  0  0  0  0  0  0  0  0
   38.3034  -11.2109    0.0000 C   0  0  0  0  0  0  0  0  0  0  0  0
   39.0121  -10.8040    0.0000 C   0  0  0  0  0  0  0  0  0  0  0  0
   39.7188  -11.2143    0.0000 O   0  0  0  0  0  0  0  0  0  0  0  0
   40.4285  -10.8092    0.0000 C   0  0  0  0  0  0  0  0  0  0  0  0
   41.1335  -11.2225    0.0000 C   0  0  0  0  0  0  0  0  0  0  0  0
   41.1364   -9.5880    0.0000 C   0  0  0  0  0  0  0  0  0  0  0  0
   40.4301   -9.9949    0.0000 C   0  0  0  0  0  0  0  0  0  0  0  0
   41.8471  -10.0000    0.0000 C   0  0  0  0  0  0  0  0  0  0  0  0
   41.8387  -10.8150    0.0000 C   0  0  0  0  0  0  0  0  0  0  0  0
   42.5365  -11.2275    0.0000 O   0  0  0  0  0  0  0  0  0  0  0  0
   43.2472  -10.8295    0.0000 C   0  0  0  0  0  0  0  0  0  0  0  0
   43.2556  -10.0145    0.0000 C   0  0  0  0  0  0  0  0  0  0  0  0
   42.5533   -9.5974    0.0000 C   0  0  0  0  0  0  0  0  0  0  0  0
   43.9501  -11.2464    0.0000 O   0  0  0  0  0  0  0  0  0  0  0  0
   43.9679   -9.6139    0.0000 C   0  0  0  0  0  0  0  0  0  0  0  0
   44.6688  -10.0330    0.0000 C   0  0  0  0  0  0  0  0  0  0  0  0
   45.3806   -9.6331    0.0000 C   0  0  0  0  0  0  0  0  0  0  0  0
   45.3903   -8.8151    0.0000 C   0  0  0  0  0  0  0  0  0  0  0  0
   44.6823   -8.3986    0.0000 C   0  0  0  0  0  0  0  0  0  0  0  0
   43.9734   -8.8009    0.0000 C   0  0  0  0  0  0  0  0  0  0  0  0
  1  2  2  0
  2  3  1  0
  3  6  2  0
  5  4  2  0
  4  1  1  0
  5  6  1  0
  5 10  1  0
  6  7  1  0
  7  8  1  0
  8  9  1  0
  9 10  1  0
  9 11  1  0
 11 12  1  0
 12 13  1  0
  1 14  1  0
 14 15  1  0
  2 16  1  0
 16 17  1  0
 13 18  1  0
 18 19  1  0
 19 20  1  0
 20 21  1  0
 21 22  2  0
 22 26  1  0
 25 23  1  0
 23 24  2  0
 24 21  1  0
 25 26  2  0
 25 30  1  0
 26 27  1  0
 27 28  1  0
 28 29  1  0
 29 30  2  0
 28 31  2  0
 29 32  1  0
 32 33  2  0
 33 34  1  0
 34 35  2  0
 35 36  1  0
 36 37  2  0
 37 32  1  0
M  END
>  <Classification>  (953) 
1

>  <pchembl>  (953) 
6.41

>  <InChI_steorem>  (953) 
InChI=1S/C31H33NO5/c1-34-29-18-23-13-15-32(21-25(23)19-30(29)35-2)14-7-4-8-16-36-26-12-11-24-17-27(22-9-5-3-6-10-22)31(33)37-28(24)20-26/h3,5-6,9-12,17-20H,4,7-8,13-16,21H2,1-2H3

>  <source>  (953) 
ChEMBL28

>  <source_id>  (953) 
28

>  <optional_reference>  (953) 
10.1016/j.ejmech.2018.10.043

>  <optional_origin>  (953) 
None

>  <target>  (953) 
MDR1

$$$$

     RDKit          2D

 37 42  0  0  0  0  0  0  0  0999 V2000
   16.3655  -15.0436    0.0000 C   0  0  0  0  0  0  0  0  0  0  0  0
   15.7912  -14.7102    0.0000 C   0  0  0  0  0  0  0  0  0  0  0  0
   15.7912  -13.8781    0.0000 C   0  0  0  0  0  0  0  0  0  0  0  0
   15.0733  -13.4640    0.0000 C   0  0  0  0  0  0  0  0  0  0  0  0
   15.0733  -12.6325    0.0000 C   0  0  0  0  0  0  0  0  0  0  0  0
   14.3573  -12.2168    0.0000 C   0  0  0  0  0  0  0  0  0  0  0  0
   14.3573  -11.3847    0.0000 N   0  0  0  0  0  0  0  0  0  0  0  0
   15.0724  -10.9714    0.0000 C   0  0  0  0  0  0  0  0  0  0  0  0
   15.0724  -10.1399    0.0000 C   0  0  0  0  0  0  0  0  0  0  0  0
   14.3536   -9.7257    0.0000 N   0  0  0  0  0  0  0  0  0  0  0  0
   14.3536   -8.8977    0.0000 C   0  0  0  0  0  0  0  0  0  0  0  0
   13.6310   -8.4806    0.0000 C   0  0  0  0  0  0  0  0  0  0  0  0
   13.6310   -7.6526    0.0000 O   0  0  0  0  0  0  0  0  0  0  0  0
   12.9024   -7.2396    0.0000 C   0  0  0  0  0  0  0  0  0  0  0  0
   12.1870   -7.6563    0.0000 C   0  0  0  0  0  0  0  0  0  0  0  0
   11.4680   -7.2457    0.0000 C   0  0  0  0  0  0  0  0  0  0  0  0
   11.4680   -6.4142    0.0000 C   0  0  0  0  0  0  0  0  0  0  0  0
   12.1793   -5.9975    0.0000 C   0  0  0  0  0  0  0  0  0  0  0  0
   12.1793   -5.1660    0.0000 C   0  0  0  0  0  0  0  0  0  0  0  0
   12.8906   -4.7493    0.0000 C   0  0  0  0  0  0  0  0  0  0  0  0
   13.6136   -5.1599    0.0000 C   0  0  0  0  0  0  0  0  0  0  0  0
   13.6136   -5.9914    0.0000 C   0  0  0  0  0  0  0  0  0  0  0  0
   12.9024   -6.4081    0.0000 C   0  0  0  0  0  0  0  0  0  0  0  0
   13.6344  -10.1431    0.0000 C   0  0  0  0  0  0  0  0  0  0  0  0
   13.6344  -10.9705    0.0000 C   0  0  0  0  0  0  0  0  0  0  0  0
   13.6372  -12.6325    0.0000 N   0  0  0  0  0  0  0  0  0  0  0  0
   12.8471  -12.3742    0.0000 N   0  0  0  0  0  0  0  0  0  0  0  0
   12.3575  -13.0483    0.0000 C   0  0  0  0  0  0  0  0  0  0  0  0
   11.5333  -13.1329    0.0000 N   0  0  0  0  0  0  0  0  0  0  0  0
   11.1977  -13.8921    0.0000 C   0  0  0  0  0  0  0  0  0  0  0  0
   10.5352  -13.9610    0.0000 C   0  0  0  0  0  0  0  0  0  0  0  0
   11.6832  -14.5620    0.0000 C   0  0  0  0  0  0  0  0  0  0  0  0
   12.5082  -14.4769    0.0000 C   0  0  0  0  0  0  0  0  0  0  0  0
   12.9017  -15.0152    0.0000 C   0  0  0  0  0  0  0  0  0  0  0  0
   12.8471  -13.7182    0.0000 C   0  0  0  0  0  0  0  0  0  0  0  0
   13.6372  -13.4640    0.0000 C   0  0  0  0  0  0  0  0  0  0  0  0
   14.3573  -13.8798    0.0000 N   0  0  0  0  0  0  0  0  0  0  0  0
  1  2  1  0
  2  3  1  0
  3  4  1  0
  4  5  1  0
  5  6  2  0
  6  7  1  0
  7  8  1  0
  8  9  1  0
  9 10  1  0
 10 11  1  0
 11 12  1  0
 12 13  1  0
 13 14  1  0
 14 15  2  0
 15 16  1  0
 16 17  2  0
 17 18  1  0
 18 19  2  0
 19 20  1  0
 20 21  2  0
 21 22  1  0
 22 23  2  0
 23 14  1  0
 23 18  1  0
 10 24  1  0
 24 25  1  0
 25  7  1  0
  6 26  1  0
 26 27  1  0
 27 28  2  0
 28 29  1  0
 29 30  2  0
 30 31  1  0
 30 32  1  0
 32 33  2  0
 33 34  1  0
 33 35  1  0
 35 28  1  0
 35 36  2  0
 36 26  1  0
 36 37  1  0
 37  4  2  0
M  END
>  <Classification>  (954) 
0

>  <pchembl>  (954) 
4.84

>  <InChI_steorem>  (954) 
InChI=1S/C30H34N6O/c1-4-8-24-20-27(36-30(32-24)28-21(2)19-22(3)31-29(28)33-36)35-15-13-34(14-16-35)17-18-37-26-12-7-10-23-9-5-6-11-25(23)26/h5-7,9-12,19-20H,4,8,13-18H2,1-3H3

>  <source>  (954) 
ChEMBL28

>  <source_id>  (954) 
28

>  <optional_reference>  (954) 
10.1021/acs.jmedchem.8b01821

>  <optional_origin>  (954) 
None

>  <target>  (954) 
MDR1

$$$$

     RDKit          2D

 34 38  0  0  0  0  0  0  0  0999 V2000
   13.5159   -6.1488    0.0000 C   0  0  0  0  0  0  0  0  0  0  0  0
   12.8035   -6.5574    0.0000 C   0  0  0  0  0  0  0  0  0  0  0  0
   11.3913   -6.5553    0.0000 C   0  0  0  0  0  0  0  0  0  0  0  0
   13.5243   -5.3316    0.0000 C   0  0  0  0  0  0  0  0  0  0  0  0
   14.3017   -5.0843    0.0000 C   0  0  0  0  0  0  0  0  0  0  0  0
   12.0974   -6.1467    0.0000 C   0  0  0  0  0  0  0  0  0  0  0  0
   11.3913   -7.3724    0.0000 C   0  0  0  0  0  0  0  0  0  0  0  0
   10.6851   -7.7810    0.0000 C   0  0  0  0  0  0  0  0  0  0  0  0
   14.2850   -6.4107    0.0000 C   0  0  0  0  0  0  0  0  0  0  0  0
   14.7752   -5.7548    0.0000 C   0  0  0  0  0  0  0  0  0  0  0  0
    9.2770   -7.7832    0.0000 N   0  0  0  0  0  0  0  0  0  0  0  0
    9.9831   -7.3724    0.0000 C   0  0  0  0  0  0  0  0  0  0  0  0
   12.8035   -7.3724    0.0000 C   0  0  0  0  0  0  0  0  0  0  0  0
   12.8119   -4.9209    0.0000 C   0  0  0  0  0  0  0  0  0  0  0  0
   10.6851   -6.1467    0.0000 C   0  0  0  0  0  0  0  0  0  0  0  0
   12.0974   -5.3211    0.0000 C   0  0  0  0  0  0  0  0  0  0  0  0
   12.0974   -7.7810    0.0000 C   0  0  0  0  0  0  0  0  0  0  0  0
    9.9831   -6.5553    0.0000 C   0  0  0  0  0  0  0  0  0  0  0  0
   13.5097   -6.9660    0.0000 C   0  0  0  0  0  0  0  0  0  0  0  0
   12.7930   -5.7381    0.0000 C   0  0  0  0  0  0  0  0  0  0  0  0
   11.3808   -5.7381    0.0000 C   0  0  0  0  0  0  0  0  0  0  0  0
   10.6851   -8.6758    0.0000 C   0  0  0  0  0  0  0  0  0  0  0  0
   10.0042   -8.2315    0.0000 C   0  0  0  0  0  0  0  0  0  0  0  0
   12.8174   -4.1058    0.0000 O   0  0  0  0  0  0  0  0  0  0  0  0
   14.5582   -4.3133    0.0000 C   0  0  0  0  0  0  0  0  0  0  0  0
   15.3314   -4.0689    0.0000 C   0  0  0  0  0  0  0  0  0  0  0  0
   15.3401   -3.2580    0.0000 C   0  0  0  0  0  0  0  0  0  0  0  0
   14.5730   -3.0015    0.0000 C   0  0  0  0  0  0  0  0  0  0  0  0
   14.0890   -3.6511    0.0000 O   0  0  0  0  0  0  0  0  0  0  0  0
   14.3326   -2.2226    0.0000 C   0  0  0  0  0  0  0  0  0  0  0  0
   14.8794   -1.6246    0.0000 O   0  0  0  0  0  0  0  0  0  0  0  0
   13.5328   -2.0477    0.0000 C   0  0  0  0  0  0  0  0  0  0  0  0
   14.1131   -1.4321    0.0000 C   0  0  0  0  0  0  0  0  0  0  0  0
   15.1357   -4.8874    0.0000 C   0  0  0  0  0  0  0  0  0  0  0  0
  2  1  1  0
  3  6  1  0
  4  1  1  0
  5  4  1  0
  6  2  1  0
  7 17  1  0
  8  7  1  0
  9  1  1  0
 10  9  1  0
 12 11  1  0
 12  8  1  0
 13  2  1  0
 14  4  1  0
 15  3  1  0
 16 14  1  0
 17 13  1  0
 18 15  1  0
  1 19  1  0
  2 20  1  0
  3 21  1  0
 22  8  1  0
 23  8  1  0
  5 10  1  0
 16  6  1  0
  7  3  1  0
 12 18  1  0
 14 24  1  0
  5 25  1  0
 25 26  1  0
 26 27  1  0
 27 28  1  0
 28 29  1  0
 29 25  1  0
 28 30  1  0
 30 31  1  0
 30 32  1  0
 30 33  1  0
 25 34  1  0
M  END
>  <Classification>  (955) 
1

>  <pchembl>  (955) 
6.87

>  <InChI_steorem>  (955) 
InChI=1S/C30H53NO3/c1-25(2)20-10-15-28(6)21(27(20,5)13-11-22(25)31)17-19(32)24-18(9-14-29(24,28)7)30(8)16-12-23(34-30)26(3,4)33/h18-24,32-33H,9-17,31H2,1-8H3

>  <source>  (955) 
ChEMBL28

>  <source_id>  (955) 
28

>  <optional_reference>  (955) 
10.1016/j.ejmech.2018.10.038

>  <optional_origin>  (955) 
None

>  <target>  (955) 
MDR1

$$$$

     RDKit          2D

 38 42  0  0  0  0  0  0  0  0999 V2000
   20.7886  -15.7439    0.0000 C   0  0  0  0  0  0  0  0  0  0  0  0
   21.4982  -15.3345    0.0000 C   0  0  0  0  0  0  0  0  0  0  0  0
   21.4954  -14.5118    0.0000 C   0  0  0  0  0  0  0  0  0  0  0  0
   20.7868  -14.1066    0.0000 C   0  0  0  0  0  0  0  0  0  0  0  0
   22.2066  -15.7420    0.0000 N   0  0  0  0  0  0  0  0  0  0  0  0
   22.9137  -15.3323    0.0000 C   0  0  0  0  0  0  0  0  0  0  0  0
   23.6220  -15.7398    0.0000 C   0  0  0  0  0  0  0  0  0  0  0  0
   24.3291  -15.3300    0.0000 S   0  0  0  0  0  0  0  0  0  0  0  0
   22.9124  -14.5151    0.0000 O   0  0  0  0  0  0  0  0  0  0  0  0
   25.0374  -15.7375    0.0000 C   0  0  0  0  0  0  0  0  0  0  0  0
   25.7445  -15.3278    0.0000 C   0  0  0  0  0  0  0  0  0  0  0  0
   26.4528  -15.7353    0.0000 N   0  0  0  0  0  0  0  0  0  0  0  0
   25.7432  -14.5106    0.0000 O   0  0  0  0  0  0  0  0  0  0  0  0
   27.1599  -15.3256    0.0000 C   0  0  0  0  0  0  0  0  0  0  0  0
   27.9047  -15.6544    0.0000 N   0  0  0  0  0  0  0  0  0  0  0  0
   28.4506  -15.0462    0.0000 N   0  0  0  0  0  0  0  0  0  0  0  0
   28.0408  -14.3391    0.0000 C   0  0  0  0  0  0  0  0  0  0  0  0
   27.2418  -14.5104    0.0000 C   0  0  0  0  0  0  0  0  0  0  0  0
   28.3712  -13.5949    0.0000 C   0  0  0  0  0  0  0  0  0  0  0  0
   29.1850  -13.5094    0.0000 C   0  0  0  0  0  0  0  0  0  0  0  0
   29.5162  -12.7631    0.0000 C   0  0  0  0  0  0  0  0  0  0  0  0
   29.0346  -12.1018    0.0000 C   0  0  0  0  0  0  0  0  0  0  0  0
   28.2181  -12.1917    0.0000 C   0  0  0  0  0  0  0  0  0  0  0  0
   27.8907  -12.9381    0.0000 C   0  0  0  0  0  0  0  0  0  0  0  0
   27.0783  -13.0271    0.0000 C   0  0  0  0  0  0  0  0  0  0  0  0
   29.3647  -11.3543    0.0000 C   0  0  0  0  0  0  0  0  0  0  0  0
   30.3288  -12.6768    0.0000 C   0  0  0  0  0  0  0  0  0  0  0  0
   28.0779  -16.4515    0.0000 C   0  0  0  0  0  0  0  0  0  0  0  0
   27.4702  -16.9995    0.0000 C   0  0  0  0  0  0  0  0  0  0  0  0
   27.6415  -17.7978    0.0000 C   0  0  0  0  0  0  0  0  0  0  0  0
   28.4200  -18.0492    0.0000 C   0  0  0  0  0  0  0  0  0  0  0  0
   29.0273  -17.4961    0.0000 C   0  0  0  0  0  0  0  0  0  0  0  0
   28.8529  -16.6999    0.0000 C   0  0  0  0  0  0  0  0  0  0  0  0
   20.0805  -15.3350    0.0000 C   0  0  0  0  0  0  0  0  0  0  0  0
   20.0772  -14.5185    0.0000 C   0  0  0  0  0  0  0  0  0  0  0  0
   19.2997  -14.2692    0.0000 N   0  0  0  0  0  0  0  0  0  0  0  0
   18.8223  -14.9318    0.0000 C   0  0  0  0  0  0  0  0  0  0  0  0
   19.3050  -15.5903    0.0000 S   0  0  0  0  0  0  0  0  0  0  0  0
 34  1  2  0
  1  2  1  0
  2  3  2  0
  3  4  1  0
  4 35  2  0
  2  5  1  0
  5  6  1  0
  6  7  1  0
  7  8  1  0
  6  9  2  0
  8 10  1  0
 10 11  1  0
 11 12  1  0
 11 13  2  0
 12 14  1  0
 14 15  1  0
 15 16  1  0
 16 17  2  0
 17 18  1  0
 18 14  2  0
 19 20  2  0
 20 21  1  0
 21 22  2  0
 22 23  1  0
 23 24  2  0
 24 19  1  0
 17 19  1  0
 24 25  1  0
 22 26  1  0
 21 27  1  0
 28 29  2  0
 29 30  1  0
 30 31  2  0
 31 32  1  0
 32 33  2  0
 33 28  1  0
 15 28  1  0
 34 35  1  0
 35 36  1  0
 36 37  2  0
 37 38  1  0
 38 34  1  0
M  END
>  <Classification>  (956) 
1

>  <pchembl>  (956) 
6.76

>  <InChI_steorem>  (956) 
InChI=1S/C29H27N5O2S2/c1-18-11-20(3)23(12-19(18)2)25-14-27(34(33-25)22-7-5-4-6-8-22)32-29(36)16-37-15-28(35)31-21-9-10-24-26(13-21)38-17-30-24/h4-14,17H,15-16H2,1-3H3,(H,31,35)(H,32,36)

>  <source>  (956) 
ChEMBL28

>  <source_id>  (956) 
28

>  <optional_reference>  (956) 
10.1021/acs.jmedchem.9b00966

>  <optional_origin>  (956) 
None

>  <target>  (956) 
MDR1

$$$$

     RDKit          2D

 38 42  0  0  0  0  0  0  0  0999 V2000
    3.0485  -18.7543    0.0000 C   0  0  0  0  0  0  0  0  0  0  0  0
    3.0474  -19.5739    0.0000 C   0  0  0  0  0  0  0  0  0  0  0  0
    3.7554  -19.9828    0.0000 C   0  0  0  0  0  0  0  0  0  0  0  0
    3.7536  -18.3455    0.0000 C   0  0  0  0  0  0  0  0  0  0  0  0
    4.4622  -18.7507    0.0000 C   0  0  0  0  0  0  0  0  0  0  0  0
    4.4611  -19.5714    0.0000 C   0  0  0  0  0  0  0  0  0  0  0  0
    5.1673  -19.9804    0.0000 C   0  0  0  0  0  0  0  0  0  0  0  0
    5.8792  -19.5734    0.0000 C   0  0  0  0  0  0  0  0  0  0  0  0
    5.8803  -18.7527    0.0000 N   0  0  0  0  0  0  0  0  0  0  0  0
    5.1696  -18.3392    0.0000 C   0  0  0  0  0  0  0  0  0  0  0  0
    6.5890  -18.3459    0.0000 C   0  0  0  0  0  0  0  0  0  0  0  0
    7.2957  -18.7562    0.0000 C   0  0  0  0  0  0  0  0  0  0  0  0
    8.0044  -18.3493    0.0000 C   0  0  0  0  0  0  0  0  0  0  0  0
    2.3407  -18.3459    0.0000 O   0  0  0  0  0  0  0  0  0  0  0  0
    1.6331  -18.7547    0.0000 C   0  0  0  0  0  0  0  0  0  0  0  0
    2.3393  -19.9819    0.0000 O   0  0  0  0  0  0  0  0  0  0  0  0
    1.6319  -19.5728    0.0000 C   0  0  0  0  0  0  0  0  0  0  0  0
    8.7111  -18.7596    0.0000 C   0  0  0  0  0  0  0  0  0  0  0  0
    9.4198  -18.3527    0.0000 C   0  0  0  0  0  0  0  0  0  0  0  0
   10.1266  -18.7630    0.0000 O   0  0  0  0  0  0  0  0  0  0  0  0
   10.8362  -18.3579    0.0000 C   0  0  0  0  0  0  0  0  0  0  0  0
   11.5412  -18.7712    0.0000 C   0  0  0  0  0  0  0  0  0  0  0  0
   11.5442  -17.1367    0.0000 C   0  0  0  0  0  0  0  0  0  0  0  0
   10.8379  -17.5436    0.0000 C   0  0  0  0  0  0  0  0  0  0  0  0
   12.2549  -17.5487    0.0000 C   0  0  0  0  0  0  0  0  0  0  0  0
   12.2465  -18.3637    0.0000 C   0  0  0  0  0  0  0  0  0  0  0  0
   12.9443  -18.7763    0.0000 O   0  0  0  0  0  0  0  0  0  0  0  0
   13.6549  -18.3782    0.0000 C   0  0  0  0  0  0  0  0  0  0  0  0
   13.6633  -17.5632    0.0000 C   0  0  0  0  0  0  0  0  0  0  0  0
   12.9611  -17.1461    0.0000 C   0  0  0  0  0  0  0  0  0  0  0  0
   14.3578  -18.7951    0.0000 O   0  0  0  0  0  0  0  0  0  0  0  0
   14.3756  -17.1626    0.0000 C   0  0  0  0  0  0  0  0  0  0  0  0
   15.0766  -17.5817    0.0000 C   0  0  0  0  0  0  0  0  0  0  0  0
   15.7884  -17.1818    0.0000 C   0  0  0  0  0  0  0  0  0  0  0  0
   15.7981  -16.3638    0.0000 C   0  0  0  0  0  0  0  0  0  0  0  0
   15.0900  -15.9473    0.0000 C   0  0  0  0  0  0  0  0  0  0  0  0
   14.3811  -16.3496    0.0000 C   0  0  0  0  0  0  0  0  0  0  0  0
   12.9684  -16.3289    0.0000 C   0  0  0  0  0  0  0  0  0  0  0  0
  1  2  2  0
  2  3  1  0
  3  6  2  0
  5  4  2  0
  4  1  1  0
  5  6  1  0
  5 10  1  0
  6  7  1  0
  7  8  1  0
  8  9  1  0
  9 10  1  0
  9 11  1  0
 11 12  1  0
 12 13  1  0
  1 14  1  0
 14 15  1  0
  2 16  1  0
 16 17  1  0
 13 18  1  0
 18 19  1  0
 19 20  1  0
 20 21  1  0
 21 22  2  0
 22 26  1  0
 25 23  1  0
 23 24  2  0
 24 21  1  0
 25 26  2  0
 25 30  1  0
 26 27  1  0
 27 28  1  0
 28 29  1  0
 29 30  2  0
 28 31  2  0
 29 32  1  0
 32 33  2  0
 33 34  1  0
 34 35  2  0
 35 36  1  0
 36 37  2  0
 37 32  1  0
 30 38  1  0
M  END
>  <Classification>  (957) 
1

>  <pchembl>  (957) 
6.66

>  <InChI_steorem>  (957) 
InChI=1S/C32H35NO5/c1-22-27-13-12-26(20-28(27)38-32(34)31(22)23-10-6-4-7-11-23)37-17-9-5-8-15-33-16-14-24-18-29(35-2)30(36-3)19-25(24)21-33/h4,6-7,10-13,18-20H,5,8-9,14-17,21H2,1-3H3

>  <source>  (957) 
ChEMBL28

>  <source_id>  (957) 
28

>  <optional_reference>  (957) 
10.1016/j.ejmech.2018.10.043

>  <optional_origin>  (957) 
None

>  <target>  (957) 
MDR1

$$$$

     RDKit          2D

 38 43  0  0  0  0  0  0  0  0999 V2000
    6.6774   -5.7488    0.0000 S   0  0  0  0  0  0  0  0  0  0  0  0
    7.3832   -6.1680    0.0000 C   0  0  0  0  0  0  0  0  0  0  0  0
    8.0984   -5.7643    0.0000 C   0  0  0  0  0  0  0  0  0  0  0  0
    8.8043   -6.1834    0.0000 N   0  0  0  0  0  0  0  0  0  0  0  0
    8.1078   -4.9414    0.0000 O   0  0  0  0  0  0  0  0  0  0  0  0
    9.5195   -5.7797    0.0000 C   0  0  0  0  0  0  0  0  0  0  0  0
   10.2660   -6.1178    0.0000 N   0  0  0  0  0  0  0  0  0  0  0  0
   10.8200   -5.5104    0.0000 N   0  0  0  0  0  0  0  0  0  0  0  0
   10.4162   -4.7951    0.0000 C   0  0  0  0  0  0  0  0  0  0  0  0
    9.6119   -4.9594    0.0000 C   0  0  0  0  0  0  0  0  0  0  0  0
   10.7562   -4.0533    0.0000 C   0  0  0  0  0  0  0  0  0  0  0  0
   11.5743   -3.9749    0.0000 C   0  0  0  0  0  0  0  0  0  0  0  0
   11.9176   -3.2303    0.0000 C   0  0  0  0  0  0  0  0  0  0  0  0
   11.4415   -2.5600    0.0000 C   0  0  0  0  0  0  0  0  0  0  0  0
   10.6182   -2.6392    0.0000 C   0  0  0  0  0  0  0  0  0  0  0  0
   10.2811   -3.3875    0.0000 C   0  0  0  0  0  0  0  0  0  0  0  0
   10.4255   -6.9165    0.0000 C   0  0  0  0  0  0  0  0  0  0  0  0
    9.8105   -7.4632    0.0000 C   0  0  0  0  0  0  0  0  0  0  0  0
    9.9725   -8.2634    0.0000 C   0  0  0  0  0  0  0  0  0  0  0  0
   10.7538   -8.5248    0.0000 C   0  0  0  0  0  0  0  0  0  0  0  0
   11.3709   -7.9764    0.0000 C   0  0  0  0  0  0  0  0  0  0  0  0
   11.2033   -7.1749    0.0000 C   0  0  0  0  0  0  0  0  0  0  0  0
    9.4620   -3.4659    0.0000 C   0  0  0  0  0  0  0  0  0  0  0  0
   11.7780   -1.8130    0.0000 C   0  0  0  0  0  0  0  0  0  0  0  0
   12.7312   -3.1534    0.0000 C   0  0  0  0  0  0  0  0  0  0  0  0
    5.9647   -6.1487    0.0000 C   0  0  0  0  0  0  0  0  0  0  0  0
    5.2657   -5.7286    0.0000 N   0  0  0  0  0  0  0  0  0  0  0  0
    4.5535   -6.1278    0.0000 N   0  0  0  0  0  0  0  0  0  0  0  0
    5.9600   -6.9614    0.0000 N   0  0  0  0  0  0  0  0  0  0  0  0
    5.2507   -7.3630    0.0000 C   0  0  0  0  0  0  0  0  0  0  0  0
    4.5400   -6.9489    0.0000 C   0  0  0  0  0  0  0  0  0  0  0  0
    5.0765   -8.1668    0.0000 N   0  0  0  0  0  0  0  0  0  0  0  0
    4.2582   -8.2496    0.0000 C   0  0  0  0  0  0  0  0  0  0  0  0
    3.9281   -7.5001    0.0000 C   0  0  0  0  0  0  0  0  0  0  0  0
    3.1158   -7.4124    0.0000 C   0  0  0  0  0  0  0  0  0  0  0  0
    2.6326   -8.0733    0.0000 C   0  0  0  0  0  0  0  0  0  0  0  0
    2.9675   -8.8241    0.0000 C   0  0  0  0  0  0  0  0  0  0  0  0
    3.7789   -8.9082    0.0000 C   0  0  0  0  0  0  0  0  0  0  0  0
  1  2  1  0
  2  3  1  0
  3  4  1  0
  3  5  2  0
  4  6  1  0
  6  7  1  0
  7  8  1  0
  8  9  2  0
  9 10  1  0
 10  6  2  0
 11 12  2  0
 12 13  1  0
 13 14  2  0
 14 15  1  0
 15 16  2  0
 16 11  1  0
  9 11  1  0
 17 18  2  0
 18 19  1  0
 19 20  2  0
 20 21  1  0
 21 22  2  0
 22 17  1  0
  7 17  1  0
 16 23  1  0
 14 24  1  0
 13 25  1  0
  1 26  1  0
 26 27  2  0
 27 28  1  0
 28 31  2  0
 30 29  2  0
 29 26  1  0
 30 31  1  0
 31 34  1  0
 33 32  1  0
 32 30  1  0
 33 34  2  0
 34 35  1  0
 35 36  2  0
 36 37  1  0
 37 38  2  0
 38 33  1  0
M  END
>  <Classification>  (958) 
1

>  <pchembl>  (958) 
6.37

>  <InChI_steorem>  (958) 
InChI=1S/C29H25N7OS/c1-17-13-19(3)22(14-18(17)2)24-15-25(36(35-24)20-9-5-4-6-10-20)31-26(37)16-38-29-32-28-27(33-34-29)21-11-7-8-12-23(21)30-28/h4-15H,16H2,1-3H3,(H,31,37)(H,30,32,34)

>  <source>  (958) 
ChEMBL28

>  <source_id>  (958) 
28

>  <optional_reference>  (958) 
10.1021/acs.jmedchem.9b00966

>  <optional_origin>  (958) 
None

>  <target>  (958) 
MDR1

$$$$

     RDKit          2D

 34 40  0  0  0  0  0  0  0  0999 V2000
    5.5455  -23.5563    0.0000 C   0  0  0  0  0  0  0  0  0  0  0  0
    4.8364  -23.9730    0.0000 C   0  0  0  0  0  0  0  0  0  0  0  0
    4.2261  -24.5282    0.0000 C   0  0  0  0  0  0  0  0  0  0  0  0
    4.2311  -25.3566    0.0000 C   0  0  0  0  0  0  0  0  0  0  0  0
    3.5220  -25.7733    0.0000 C   0  0  0  0  0  0  0  0  0  0  0  0
    3.5249  -26.5981    0.0000 O   0  0  0  0  0  0  0  0  0  0  0  0
    2.8008  -25.3658    0.0000 C   0  0  0  0  0  0  0  0  0  0  0  0
    2.7957  -24.5374    0.0000 C   0  0  0  0  0  0  0  0  0  0  0  0
    3.5048  -24.1208    0.0000 C   0  0  0  0  0  0  0  0  0  0  0  0
    2.7264  -24.3817    0.0000 C   0  0  0  0  0  0  0  0  0  0  0  0
    2.1049  -23.8353    0.0000 O   0  0  0  0  0  0  0  0  0  0  0  0
    2.2712  -23.0272    0.0000 C   0  0  0  0  0  0  0  0  0  0  0  0
    1.6534  -22.4787    0.0000 O   0  0  0  0  0  0  0  0  0  0  0  0
    3.0532  -22.7641    0.0000 C   0  0  0  0  0  0  0  0  0  0  0  0
    3.6711  -23.3127    0.0000 C   0  0  0  0  0  0  0  0  0  0  0  0
    4.4926  -23.2194    0.0000 O   0  0  0  0  0  0  0  0  0  0  0  0
    2.0766  -24.1337    0.0000 C   0  0  0  0  0  0  0  0  0  0  0  0
    1.3675  -24.5503    0.0000 C   0  0  0  0  0  0  0  0  0  0  0  0
    1.3704  -25.3751    0.0000 C   0  0  0  0  0  0  0  0  0  0  0  0
    2.0917  -25.7826    0.0000 C   0  0  0  0  0  0  0  0  0  0  0  0
    2.0967  -26.6110    0.0000 C   0  0  0  0  0  0  0  0  0  0  0  0
    2.8093  -26.1921    0.0000 O   0  0  0  0  0  0  0  0  0  0  0  0
    1.3876  -27.0277    0.0000 C   0  0  0  0  0  0  0  0  0  0  0  0
    1.3905  -27.8525    0.0000 O   0  0  0  0  0  0  0  0  0  0  0  0
    0.6664  -26.6203    0.0000 O   0  0  0  0  0  0  0  0  0  0  0  0
    0.6613  -25.7918    0.0000 C   0  0  0  0  0  0  0  0  0  0  0  0
   -0.0578  -25.3880    0.0000 C   0  0  0  0  0  0  0  0  0  0  0  0
   -0.8079  -25.7297    0.0000 C   0  0  0  0  0  0  0  0  0  0  0  0
   -1.3631  -25.1193    0.0000 O   0  0  0  0  0  0  0  0  0  0  0  0
   -0.9592  -24.4002    0.0000 C   0  0  0  0  0  0  0  0  0  0  0  0
   -0.1512  -24.5664    0.0000 C   0  0  0  0  0  0  0  0  0  0  0  0
    5.3255  -24.6364    0.0000 C   0  0  0  0  0  0  0  0  0  0  0  0
    3.3863  -24.7739    0.0000 C   0  0  0  0  0  0  0  0  0  0  0  0
    1.3638  -26.2047    0.0000 C   0  0  0  0  0  0  0  0  0  0  0  0
  5  7  1  0
  7  8  1  0
  8  9  1  0
  3  9  1  0
  9 10  1  0
 10 11  1  0
 11 12  1  0
 12 13  2  0
 12 14  1  0
 14 15  1  0
  9 15  1  0
 15 16  1  0
  2 16  1  0
  8 17  1  0
 17 18  1  0
 18 19  1  0
 19 20  1  0
  7 20  1  0
 20 21  1  0
 21 22  1  0
 20 22  1  0
 21 23  1  0
 23 24  2  0
 23 25  1  0
 25 26  1  0
 19 26  1  0
 26 27  1  0
 27 28  2  0
 28 29  1  0
 29 30  1  0
 30 31  2  0
 27 31  1  0
  2 32  1  0
  7 33  1  0
  1  2  1  0
 19 34  1  0
  2  3  1  0
  3  4  1  0
  4  5  1  0
  5  6  2  0
M  END
>  <Classification>  (959) 
0

>  <pchembl>  (959) 
4.72

>  <InChI_steorem>  (959) 
InChI=1S/C26H30O8/c1-22(2)15-9-16(27)24(4)14(25(15)12-31-18(28)10-17(25)33-22)5-7-23(3)19(13-6-8-30-11-13)32-21(29)20-26(23,24)34-20/h6,8,11,14-15,17,19-20H,5,7,9-10,12H2,1-4H3

>  <source>  (959) 
ChEMBL28

>  <source_id>  (959) 
28

>  <optional_reference>  (959) 
10.1016/j.ejmech.2019.05.027

>  <optional_origin>  (959) 
None

>  <target>  (959) 
MDR1

$$$$

     RDKit          2D

 39 41  0  0  0  0  0  0  0  0999 V2000
   19.4832   -3.5040    0.0000 C   0  0  0  0  0  0  0  0  0  0  0  0
   19.4821   -4.3235    0.0000 C   0  0  0  0  0  0  0  0  0  0  0  0
   20.1901   -4.7325    0.0000 C   0  0  0  0  0  0  0  0  0  0  0  0
   20.8998   -4.3230    0.0000 C   0  0  0  0  0  0  0  0  0  0  0  0
   20.8970   -3.5004    0.0000 C   0  0  0  0  0  0  0  0  0  0  0  0
   20.1883   -3.0951    0.0000 C   0  0  0  0  0  0  0  0  0  0  0  0
   21.6031   -3.0891    0.0000 C   0  0  0  0  0  0  0  0  0  0  0  0
   22.3124   -3.4950    0.0000 C   0  0  0  0  0  0  0  0  0  0  0  0
   23.0185   -3.0838    0.0000 C   0  0  0  0  0  0  0  0  0  0  0  0
   23.7278   -3.4897    0.0000 C   0  0  0  0  0  0  0  0  0  0  0  0
   23.7278   -4.3058    0.0000 C   0  0  0  0  0  0  0  0  0  0  0  0
   24.4362   -4.7116    0.0000 C   0  0  0  0  0  0  0  0  0  0  0  0
   25.1433   -4.3003    0.0000 C   0  0  0  0  0  0  0  0  0  0  0  0
   25.1376   -3.4789    0.0000 C   0  0  0  0  0  0  0  0  0  0  0  0
   24.4286   -3.0768    0.0000 C   0  0  0  0  0  0  0  0  0  0  0  0
   21.6081   -4.7305    0.0000 O   0  0  0  0  0  0  0  0  0  0  0  0
   18.7741   -4.7316    0.0000 O   0  0  0  0  0  0  0  0  0  0  0  0
   18.7754   -3.0956    0.0000 C   0  0  0  0  0  0  0  0  0  0  0  0
   20.1859   -2.2779    0.0000 O   0  0  0  0  0  0  0  0  0  0  0  0
   21.6094   -5.5477    0.0000 C   0  0  0  0  0  0  0  0  0  0  0  0
   21.6000   -2.2719    0.0000 O   0  0  0  0  0  0  0  0  0  0  0  0
   18.7734   -5.5487    0.0000 C   0  0  0  0  0  0  0  0  0  0  0  0
   18.0678   -3.5043    0.0000 C   0  0  0  0  0  0  0  0  0  0  0  0
   17.3600   -3.0959    0.0000 C   0  0  0  0  0  0  0  0  0  0  0  0
   16.6524   -3.5047    0.0000 C   0  0  0  0  0  0  0  0  0  0  0  0
   17.3598   -2.2787    0.0000 C   0  0  0  0  0  0  0  0  0  0  0  0
   25.8427   -3.0675    0.0000 N   0  0  0  0  0  0  0  0  0  0  0  0
   26.5532   -3.4731    0.0000 C   0  0  0  0  0  0  0  0  0  0  0  0
   27.2558   -3.0629    0.0000 C   0  0  0  0  0  0  0  0  0  0  0  0
   27.2541   -2.2453    0.0000 N   0  0  0  0  0  0  0  0  0  0  0  0
   26.5435   -1.8397    0.0000 C   0  0  0  0  0  0  0  0  0  0  0  0
   25.8348   -2.2517    0.0000 C   0  0  0  0  0  0  0  0  0  0  0  0
   27.9603   -1.8343    0.0000 C   0  0  0  0  0  0  0  0  0  0  0  0
   28.6695   -2.2404    0.0000 O   0  0  0  0  0  0  0  0  0  0  0  0
   27.9575   -1.0171    0.0000 O   0  0  0  0  0  0  0  0  0  0  0  0
   29.3757   -1.8293    0.0000 C   0  0  0  0  0  0  0  0  0  0  0  0
   30.0849   -2.2354    0.0000 C   0  0  0  0  0  0  0  0  0  0  0  0
   29.3729   -1.0121    0.0000 C   0  0  0  0  0  0  0  0  0  0  0  0
   30.0792   -1.4156    0.0000 C   0  0  0  0  0  0  0  0  0  0  0  0
  1  2  2  0
  2  3  1  0
  3  4  2  0
  4  5  1  0
  5  6  2  0
  6  1  1  0
  5  7  1  0
  7  8  1  0
  8  9  2  3
  9 10  1  0
 10 11  2  0
 11 12  1  0
 12 13  2  0
 13 14  1  0
 14 15  2  0
 15 10  1  0
  4 16  1  0
  2 17  1  0
  1 18  1  0
  6 19  1  0
 16 20  1  0
  7 21  2  0
 17 22  1  0
 18 23  1  0
 23 24  2  3
 24 25  1  0
 24 26  1  0
 27 28  1  0
 27 32  1  0
 28 29  1  0
 29 30  1  0
 30 31  1  0
 31 32  1  0
 14 27  1  0
 30 33  1  0
 33 34  1  0
 33 35  2  0
 34 36  1  0
 36 37  1  0
 36 38  1  0
 36 39  1  0
M  END
>  <Classification>  (960) 
0

>  <pchembl>  (960) 
4.7

>  <InChI_steorem>  (960) 
InChI=1S/C31H40N2O6/c1-21(2)11-13-24-26(37-6)20-27(38-7)28(29(24)35)25(34)14-12-22-9-8-10-23(19-22)32-15-17-33(18-16-32)30(36)39-31(3,4)5/h8-12,14,19-20,35H,13,15-18H2,1-7H3

>  <source>  (960) 
ChEMBL28

>  <source_id>  (960) 
28

>  <optional_reference>  (960) 
10.1016/j.ejmech.2019.05.053

>  <optional_origin>  (960) 
None

>  <target>  (960) 
MDR1

$$$$

     RDKit          2D

 39 41  0  0  0  0  0  0  0  0999 V2000
    3.9772  -10.4666    0.0000 C   0  0  0  0  0  0  0  0  0  0  0  0
    3.9761  -11.2862    0.0000 C   0  0  0  0  0  0  0  0  0  0  0  0
    4.6841  -11.6951    0.0000 C   0  0  0  0  0  0  0  0  0  0  0  0
    5.3938  -11.2857    0.0000 C   0  0  0  0  0  0  0  0  0  0  0  0
    5.3910  -10.4630    0.0000 C   0  0  0  0  0  0  0  0  0  0  0  0
    4.6823  -10.0578    0.0000 C   0  0  0  0  0  0  0  0  0  0  0  0
    6.0971  -10.0518    0.0000 C   0  0  0  0  0  0  0  0  0  0  0  0
    6.8064  -10.4577    0.0000 C   0  0  0  0  0  0  0  0  0  0  0  0
    7.5125  -10.0464    0.0000 C   0  0  0  0  0  0  0  0  0  0  0  0
    8.2218  -10.4523    0.0000 C   0  0  0  0  0  0  0  0  0  0  0  0
    8.2218  -11.2684    0.0000 C   0  0  0  0  0  0  0  0  0  0  0  0
    8.9302  -11.6743    0.0000 C   0  0  0  0  0  0  0  0  0  0  0  0
    9.6373  -11.2629    0.0000 C   0  0  0  0  0  0  0  0  0  0  0  0
    9.6316  -10.4415    0.0000 C   0  0  0  0  0  0  0  0  0  0  0  0
    8.9226  -10.0394    0.0000 C   0  0  0  0  0  0  0  0  0  0  0  0
    6.1021  -11.6932    0.0000 O   0  0  0  0  0  0  0  0  0  0  0  0
    3.2681  -11.6942    0.0000 O   0  0  0  0  0  0  0  0  0  0  0  0
    3.2694  -10.0582    0.0000 C   0  0  0  0  0  0  0  0  0  0  0  0
    4.6799   -9.2406    0.0000 O   0  0  0  0  0  0  0  0  0  0  0  0
    6.1034  -12.5104    0.0000 C   0  0  0  0  0  0  0  0  0  0  0  0
    6.0940   -9.2346    0.0000 O   0  0  0  0  0  0  0  0  0  0  0  0
    3.2674  -12.5114    0.0000 C   0  0  0  0  0  0  0  0  0  0  0  0
    2.5618  -10.4670    0.0000 C   0  0  0  0  0  0  0  0  0  0  0  0
    1.8540  -10.0585    0.0000 C   0  0  0  0  0  0  0  0  0  0  0  0
    1.1464  -10.4673    0.0000 C   0  0  0  0  0  0  0  0  0  0  0  0
    1.8538   -9.2413    0.0000 C   0  0  0  0  0  0  0  0  0  0  0  0
   10.3470  -11.6722    0.0000 N   0  0  0  0  0  0  0  0  0  0  0  0
   10.3492  -12.4903    0.0000 C   0  0  0  0  0  0  0  0  0  0  0  0
   11.0549  -12.8952    0.0000 C   0  0  0  0  0  0  0  0  0  0  0  0
   11.7629  -12.4865    0.0000 N   0  0  0  0  0  0  0  0  0  0  0  0
   11.7607  -11.6684    0.0000 C   0  0  0  0  0  0  0  0  0  0  0  0
   11.0505  -11.2589    0.0000 C   0  0  0  0  0  0  0  0  0  0  0  0
   12.4712  -12.8942    0.0000 C   0  0  0  0  0  0  0  0  0  0  0  0
   12.4722  -13.7114    0.0000 O   0  0  0  0  0  0  0  0  0  0  0  0
   13.1783  -12.4846    0.0000 O   0  0  0  0  0  0  0  0  0  0  0  0
   13.8866  -12.8923    0.0000 C   0  0  0  0  0  0  0  0  0  0  0  0
   14.5938  -12.4828    0.0000 C   0  0  0  0  0  0  0  0  0  0  0  0
   13.8877  -13.7095    0.0000 C   0  0  0  0  0  0  0  0  0  0  0  0
   14.5898  -13.2979    0.0000 C   0  0  0  0  0  0  0  0  0  0  0  0
  1  2  2  0
  2  3  1  0
  3  4  2  0
  4  5  1  0
  5  6  2  0
  6  1  1  0
  5  7  1  0
  7  8  1  0
  8  9  2  3
  9 10  1  0
 10 11  2  0
 11 12  1  0
 12 13  2  0
 13 14  1  0
 14 15  2  0
 15 10  1  0
  4 16  1  0
  2 17  1  0
  1 18  1  0
  6 19  1  0
 16 20  1  0
  7 21  2  0
 17 22  1  0
 18 23  1  0
 23 24  2  3
 24 25  1  0
 24 26  1  0
 27 28  1  0
 27 32  1  0
 28 29  1  0
 29 30  1  0
 30 31  1  0
 31 32  1  0
 13 27  1  0
 30 33  1  0
 33 34  2  0
 33 35  1  0
 35 36  1  0
 36 37  1  0
 36 38  1  0
 36 39  1  0
M  END
>  <Classification>  (961) 
0

>  <pchembl>  (961) 
4.28

>  <InChI_steorem>  (961) 
InChI=1S/C31H40N2O6/c1-21(2)8-14-24-26(37-6)20-27(38-7)28(29(24)35)25(34)15-11-22-9-12-23(13-10-22)32-16-18-33(19-17-32)30(36)39-31(3,4)5/h8-13,15,20,35H,14,16-19H2,1-7H3

>  <source>  (961) 
ChEMBL28

>  <source_id>  (961) 
28

>  <optional_reference>  (961) 
10.1016/j.ejmech.2019.05.053

>  <optional_origin>  (961) 
None

>  <target>  (961) 
MDR1

$$$$

     RDKit          2D

 39 42  0  0  0  0  0  0  0  0999 V2000
    6.3109   -2.1690    0.0000 C   0  0  0  0  0  0  0  0  0  0  0  0
    6.3109   -2.9892    0.0000 C   0  0  0  0  0  0  0  0  0  0  0  0
    7.0234   -3.3950    0.0000 C   0  0  0  0  0  0  0  0  0  0  0  0
    7.7347   -2.9837    0.0000 C   0  0  0  0  0  0  0  0  0  0  0  0
    7.7289   -2.1582    0.0000 C   0  0  0  0  0  0  0  0  0  0  0  0
    7.0158   -1.7519    0.0000 C   0  0  0  0  0  0  0  0  0  0  0  0
    8.4484   -3.3930    0.0000 N   0  0  0  0  0  0  0  0  0  0  0  0
    8.4506   -4.2152    0.0000 C   0  0  0  0  0  0  0  0  0  0  0  0
    9.1564   -4.6243    0.0000 C   0  0  0  0  0  0  0  0  0  0  0  0
    9.8685   -4.2114    0.0000 N   0  0  0  0  0  0  0  0  0  0  0  0
    9.8663   -3.3891    0.0000 C   0  0  0  0  0  0  0  0  0  0  0  0
    9.1519   -2.9797    0.0000 C   0  0  0  0  0  0  0  0  0  0  0  0
   10.5809   -4.6232    0.0000 C   0  0  0  0  0  0  0  0  0  0  0  0
   10.5820   -5.4445    0.0000 O   0  0  0  0  0  0  0  0  0  0  0  0
   11.2922   -4.2095    0.0000 C   0  0  0  0  0  0  0  0  0  0  0  0
   12.0007   -4.6224    0.0000 C   0  0  0  0  0  0  0  0  0  0  0  0
   12.7115   -4.2094    0.0000 C   0  0  0  0  0  0  0  0  0  0  0  0
   12.7109   -3.3872    0.0000 C   0  0  0  0  0  0  0  0  0  0  0  0
   11.9935   -2.9797    0.0000 C   0  0  0  0  0  0  0  0  0  0  0  0
   11.2856   -3.3909    0.0000 C   0  0  0  0  0  0  0  0  0  0  0  0
    5.5997   -3.3990    0.0000 C   0  0  0  0  0  0  0  0  0  0  0  0
    4.8872   -2.9915    0.0000 C   0  0  0  0  0  0  0  0  0  0  0  0
    4.1760   -3.4013    0.0000 C   0  0  0  0  0  0  0  0  0  0  0  0
    3.4635   -2.9939    0.0000 C   0  0  0  0  0  0  0  0  0  0  0  0
    4.1774   -4.2226    0.0000 O   0  0  0  0  0  0  0  0  0  0  0  0
    3.4657   -2.1732    0.0000 C   0  0  0  0  0  0  0  0  0  0  0  0
    2.7581   -1.7617    0.0000 C   0  0  0  0  0  0  0  0  0  0  0  0
    2.0460   -2.1756    0.0000 C   0  0  0  0  0  0  0  0  0  0  0  0
    2.0500   -3.0012    0.0000 C   0  0  0  0  0  0  0  0  0  0  0  0
    2.7622   -3.4048    0.0000 C   0  0  0  0  0  0  0  0  0  0  0  0
   13.4216   -2.9768    0.0000 O   0  0  0  0  0  0  0  0  0  0  0  0
   14.1345   -3.3835    0.0000 C   0  0  0  0  0  0  0  0  0  0  0  0
   13.4237   -4.6216    0.0000 O   0  0  0  0  0  0  0  0  0  0  0  0
   13.4244   -5.4429    0.0000 C   0  0  0  0  0  0  0  0  0  0  0  0
    2.7671   -4.2261    0.0000 O   0  0  0  0  0  0  0  0  0  0  0  0
    2.0578   -4.6431    0.0000 C   0  0  0  0  0  0  0  0  0  0  0  0
    1.3329   -1.7650    0.0000 O   0  0  0  0  0  0  0  0  0  0  0  0
    1.3305   -0.9437    0.0000 C   0  0  0  0  0  0  0  0  0  0  0  0
    4.1778   -1.7609    0.0000 O   0  0  0  0  0  0  0  0  0  0  0  0
  1  2  2  0
  2  3  1  0
  3  4  2  0
  4  5  1  0
  5  6  2  0
  6  1  1  0
  7  8  1  0
  7 12  1  0
  8  9  1  0
  9 10  1  0
 10 11  1  0
 11 12  1  0
  4  7  1  0
 10 13  1  0
 13 14  2  0
 13 15  1  0
 15 16  2  0
 16 17  1  0
 17 18  2  0
 18 19  1  0
 19 20  2  0
 20 15  1  0
  2 21  1  0
 21 22  2  3
 22 23  1  0
 23 24  1  0
 23 25  2  0
 24 26  2  0
 26 27  1  0
 27 28  2  0
 28 29  1  0
 29 30  2  0
 30 24  1  0
 18 31  1  0
 31 32  1  0
 17 33  1  0
 33 34  1  0
 30 35  1  0
 35 36  1  0
 28 37  1  0
 37 38  1  0
 26 39  1  0
M  END
>  <Classification>  (962) 
0

>  <pchembl>  (962) 
4.37

>  <InChI_steorem>  (962) 
InChI=1S/C30H32N2O7/c1-36-23-18-25(34)29(28(19-23)39-4)24(33)10-8-20-6-5-7-22(16-20)31-12-14-32(15-13-31)30(35)21-9-11-26(37-2)27(17-21)38-3/h5-11,16-19,34H,12-15H2,1-4H3

>  <source>  (962) 
ChEMBL28

>  <source_id>  (962) 
28

>  <optional_reference>  (962) 
10.1016/j.ejmech.2019.05.053

>  <optional_origin>  (962) 
None

>  <target>  (962) 
MDR1

$$$$

     RDKit          2D

 39 43  0  0  0  0  0  0  0  0999 V2000
   20.1686  -16.4003    0.0000 C   0  0  0  0  0  0  0  0  0  0  0  0
   20.5096  -17.1489    0.0000 C   0  0  0  0  0  0  0  0  0  0  0  0
   20.6490  -15.7322    0.0000 O   0  0  0  0  0  0  0  0  0  0  0  0
   21.3270  -17.2294    0.0000 S   0  0  0  0  0  0  0  0  0  0  0  0
   21.6639  -17.9781    0.0000 C   0  0  0  0  0  0  0  0  0  0  0  0
   22.4812  -18.0585    0.0000 C   0  0  0  0  0  0  0  0  0  0  0  0
   22.8182  -18.8072    0.0000 N   0  0  0  0  0  0  0  0  0  0  0  0
   22.9617  -17.3904    0.0000 O   0  0  0  0  0  0  0  0  0  0  0  0
   23.6355  -18.8876    0.0000 C   0  0  0  0  0  0  0  0  0  0  0  0
   24.0522  -19.5933    0.0000 N   0  0  0  0  0  0  0  0  0  0  0  0
   24.8546  -19.4144    0.0000 N   0  0  0  0  0  0  0  0  0  0  0  0
   24.9351  -18.5970    0.0000 C   0  0  0  0  0  0  0  0  0  0  0  0
   24.1824  -18.2693    0.0000 C   0  0  0  0  0  0  0  0  0  0  0  0
   25.6396  -18.1852    0.0000 C   0  0  0  0  0  0  0  0  0  0  0  0
   26.3542  -18.5911    0.0000 C   0  0  0  0  0  0  0  0  0  0  0  0
   27.0630  -18.1788    0.0000 C   0  0  0  0  0  0  0  0  0  0  0  0
   27.0585  -17.3567    0.0000 C   0  0  0  0  0  0  0  0  0  0  0  0
   26.3391  -16.9485    0.0000 C   0  0  0  0  0  0  0  0  0  0  0  0
   25.6332  -17.3672    0.0000 C   0  0  0  0  0  0  0  0  0  0  0  0
   23.7238  -20.3386    0.0000 C   0  0  0  0  0  0  0  0  0  0  0  0
   22.9063  -20.4327    0.0000 C   0  0  0  0  0  0  0  0  0  0  0  0
   22.5792  -21.1807    0.0000 C   0  0  0  0  0  0  0  0  0  0  0  0
   23.0685  -21.8435    0.0000 C   0  0  0  0  0  0  0  0  0  0  0  0
   23.8886  -21.7493    0.0000 C   0  0  0  0  0  0  0  0  0  0  0  0
   24.2120  -20.9970    0.0000 C   0  0  0  0  0  0  0  0  0  0  0  0
   24.9178  -16.9608    0.0000 C   0  0  0  0  0  0  0  0  0  0  0  0
   27.7631  -16.9387    0.0000 C   0  0  0  0  0  0  0  0  0  0  0  0
   27.7731  -18.5834    0.0000 C   0  0  0  0  0  0  0  0  0  0  0  0
   19.3513  -16.3157    0.0000 N   0  0  0  0  0  0  0  0  0  0  0  0
   19.0143  -15.5712    0.0000 C   0  0  0  0  0  0  0  0  0  0  0  0
   19.4917  -14.9066    0.0000 C   0  0  0  0  0  0  0  0  0  0  0  0
   19.1555  -14.1585    0.0000 C   0  0  0  0  0  0  0  0  0  0  0  0
   18.1996  -15.4919    0.0000 C   0  0  0  0  0  0  0  0  0  0  0  0
   17.8565  -14.7506    0.0000 C   0  0  0  0  0  0  0  0  0  0  0  0
   18.3386  -14.0801    0.0000 C   0  0  0  0  0  0  0  0  0  0  0  0
   17.9962  -13.3309    0.0000 C   0  0  0  0  0  0  0  0  0  0  0  0
   17.1761  -13.2511    0.0000 C   0  0  0  0  0  0  0  0  0  0  0  0
   16.6996  -13.9265    0.0000 C   0  0  0  0  0  0  0  0  0  0  0  0
   17.0405  -14.6689    0.0000 C   0  0  0  0  0  0  0  0  0  0  0  0
  1  2  1  0
  1  3  2  0
  2  4  1  0
  4  5  1  0
  5  6  1  0
  6  7  1  0
  6  8  2  0
  7  9  1  0
  9 10  1  0
 10 11  1  0
 11 12  2  0
 12 13  1  0
 13  9  2  0
 14 15  2  0
 15 16  1  0
 16 17  2  0
 17 18  1  0
 18 19  2  0
 19 14  1  0
 12 14  1  0
 20 21  2  0
 21 22  1  0
 22 23  2  0
 23 24  1  0
 24 25  2  0
 25 20  1  0
 10 20  1  0
 19 26  1  0
 17 27  1  0
 16 28  1  0
  1 29  1  0
 29 30  1  0
 30 31  2  0
 31 32  1  0
 32 35  2  0
 34 33  2  0
 33 30  1  0
 34 35  1  0
 35 36  1  0
 36 37  2  0
 37 38  1  0
 38 39  2  0
 39 34  1  0
M  END
>  <Classification>  (963) 
1

>  <pchembl>  (963) 
6.82

>  <InChI_steorem>  (963) 
InChI=1S/C32H30N4O2S/c1-21-15-23(3)28(16-22(21)2)29-18-30(36(35-29)27-11-5-4-6-12-27)34-32(38)20-39-19-31(37)33-26-14-13-24-9-7-8-10-25(24)17-26/h4-18H,19-20H2,1-3H3,(H,33,37)(H,34,38)

>  <source>  (963) 
ChEMBL28

>  <source_id>  (963) 
28

>  <optional_reference>  (963) 
10.1021/acs.jmedchem.9b00966

>  <optional_origin>  (963) 
None

>  <target>  (963) 
MDR1

$$$$

     RDKit          2D

 39 44  0  0  0  0  0  0  0  0999 V2000
    3.1006  -27.3222    0.0000 C   0  0  0  0  0  0  0  0  0  0  0  0
    3.7399  -26.6409    0.0000 C   0  0  0  0  0  0  0  0  0  0  0  0
    3.8974  -27.0993    0.0000 C   0  0  0  0  0  0  0  0  0  0  0  0
    4.4404  -26.9052    0.0000 C   0  0  0  0  0  0  0  0  0  0  0  0
    4.6471  -27.3992    0.0000 C   0  0  0  0  0  0  0  0  0  0  0  0
    5.1853  -26.7173    0.0000 C   0  0  0  0  0  0  0  0  0  0  0  0
    3.8948  -26.2507    0.0000 C   0  0  0  0  0  0  0  0  0  0  0  0
    4.4461  -25.5949    0.0000 C   0  0  0  0  0  0  0  0  0  0  0  0
    3.7313  -25.8489    0.0000 C   0  0  0  0  0  0  0  0  0  0  0  0
    5.1911  -25.9020    0.0000 C   0  0  0  0  0  0  0  0  0  0  0  0
    4.4430  -24.7765    0.0000 N   0  0  0  0  0  0  0  0  0  0  0  0
    5.1542  -24.3668    0.0000 C   0  0  0  0  0  0  0  0  0  0  0  0
    5.8667  -24.7743    0.0000 C   0  0  0  0  0  0  0  0  0  0  0  0
    6.5779  -24.3645    0.0000 S   0  0  0  0  0  0  0  0  0  0  0  0
    5.1529  -23.5455    0.0000 O   0  0  0  0  0  0  0  0  0  0  0  0
    7.2903  -24.7720    0.0000 C   0  0  0  0  0  0  0  0  0  0  0  0
    8.0015  -24.3623    0.0000 C   0  0  0  0  0  0  0  0  0  0  0  0
    8.7140  -24.7698    0.0000 N   0  0  0  0  0  0  0  0  0  0  0  0
    8.0002  -23.5410    0.0000 O   0  0  0  0  0  0  0  0  0  0  0  0
    9.4252  -24.3601    0.0000 C   0  0  0  0  0  0  0  0  0  0  0  0
   10.1741  -24.6889    0.0000 N   0  0  0  0  0  0  0  0  0  0  0  0
   10.7200  -24.0766    0.0000 N   0  0  0  0  0  0  0  0  0  0  0  0
   10.3103  -23.3653    0.0000 C   0  0  0  0  0  0  0  0  0  0  0  0
    9.5071  -23.5408    0.0000 C   0  0  0  0  0  0  0  0  0  0  0  0
   10.6406  -22.6170    0.0000 C   0  0  0  0  0  0  0  0  0  0  0  0
   11.4586  -22.5315    0.0000 C   0  0  0  0  0  0  0  0  0  0  0  0
   11.7897  -21.7811    0.0000 C   0  0  0  0  0  0  0  0  0  0  0  0
   11.3081  -21.1198    0.0000 C   0  0  0  0  0  0  0  0  0  0  0  0
   10.4875  -21.2096    0.0000 C   0  0  0  0  0  0  0  0  0  0  0  0
   10.1560  -21.9602    0.0000 C   0  0  0  0  0  0  0  0  0  0  0  0
    9.3395  -22.0492    0.0000 C   0  0  0  0  0  0  0  0  0  0  0  0
   11.6383  -20.3682    0.0000 C   0  0  0  0  0  0  0  0  0  0  0  0
   12.6065  -21.6948    0.0000 C   0  0  0  0  0  0  0  0  0  0  0  0
   10.3473  -25.4902    0.0000 C   0  0  0  0  0  0  0  0  0  0  0  0
    9.7355  -26.0423    0.0000 C   0  0  0  0  0  0  0  0  0  0  0  0
    9.9068  -26.8447    0.0000 C   0  0  0  0  0  0  0  0  0  0  0  0
   10.6894  -27.0960    0.0000 C   0  0  0  0  0  0  0  0  0  0  0  0
   11.3009  -26.5389    0.0000 C   0  0  0  0  0  0  0  0  0  0  0  0
   11.1264  -25.7385    0.0000 C   0  0  0  0  0  0  0  0  0  0  0  0
  1  2  1  0
  1  3  1  0
  2  4  1  0
  3  5  1  0
  4  6  1  0
  5  6  1  0
  7  8  1  0
  3  7  1  0
  2  9  1  0
  6 10  1  0
 10  8  1  0
  8  9  1  0
 11 12  1  0
 12 13  1  0
 13 14  1  0
 12 15  2  0
 14 16  1  0
 16 17  1  0
 17 18  1  0
 17 19  2  0
 18 20  1  0
 20 21  1  0
 21 22  1  0
 22 23  2  0
 23 24  1  0
 24 20  2  0
 25 26  2  0
 26 27  1  0
 27 28  2  0
 28 29  1  0
 29 30  2  0
 30 25  1  0
 23 25  1  0
 30 31  1  0
 28 32  1  0
 27 33  1  0
 34 35  2  0
 35 36  1  0
 36 37  2  0
 37 38  1  0
 38 39  2  0
 39 34  1  0
 21 34  1  0
 11  8  1  0
M  END
>  <Classification>  (964) 
1

>  <pchembl>  (964) 
6.64

>  <InChI_steorem>  (964) 
InChI=1S/C32H38N4O2S/c1-20-9-22(3)27(10-21(20)2)28-14-29(36(35-28)26-7-5-4-6-8-26)33-30(37)18-39-19-31(38)34-32-15-23-11-24(16-32)13-25(12-23)17-32/h4-10,14,23-25H,11-13,15-19H2,1-3H3,(H,33,37)(H,34,38)

>  <source>  (964) 
ChEMBL28

>  <source_id>  (964) 
28

>  <optional_reference>  (964) 
10.1021/acs.jmedchem.9b00966

>  <optional_origin>  (964) 
None

>  <target>  (964) 
MDR1

$$$$

     RDKit          2D

 38 41  0  0  0  0  0  0  0  0999 V2000
   -1.6742   -3.0435    0.0000 C   0  0  0  0  0  0  0  0  0  0  0  0
   -2.8217   -3.0207    0.0000 O   0  0  0  0  0  0  0  0  0  0  0  0
   -2.2574   -3.4487    0.0000 C   0  0  0  0  0  0  0  0  0  0  0  0
   -2.5888   -2.3516    0.0000 C   0  0  0  0  0  0  0  0  0  0  0  0
   -1.8792   -2.3628    0.0000 C   0  0  0  0  0  0  0  0  0  0  0  0
   -1.6493   -1.6914    0.0000 C   0  0  0  0  0  0  0  0  0  0  0  0
   -2.2169   -1.2652    0.0000 C   0  0  0  0  0  0  0  0  0  0  0  0
   -2.7974   -1.6734    0.0000 O   0  0  0  0  0  0  0  0  0  0  0  0
    0.7792   -3.0292    0.0000 C   0  0  0  0  0  0  0  0  0  0  0  0
    0.1678   -3.3869    0.0000 N   0  0  0  0  0  0  0  0  0  0  0  0
    1.3947   -3.3797    0.0000 C   0  0  0  0  0  0  0  0  0  0  0  0
    2.0060   -3.0219    0.0000 C   0  0  0  0  0  0  0  0  0  0  0  0
    2.6215   -3.3725    0.0000 N   0  0  0  0  0  0  0  0  0  0  0  0
    3.2329   -3.0147    0.0000 S   0  0  0  0  0  0  0  0  0  0  0  0
    3.8484   -3.3653    0.0000 C   0  0  0  0  0  0  0  0  0  0  0  0
    2.6247   -4.0809    0.0000 C   0  0  0  0  0  0  0  0  0  0  0  0
    2.9667   -4.7012    0.0000 C   0  0  0  0  0  0  0  0  0  0  0  0
    2.6005   -5.3076    0.0000 C   0  0  0  0  0  0  0  0  0  0  0  0
    3.6749   -4.7152    0.0000 C   0  0  0  0  0  0  0  0  0  0  0  0
    3.8480   -4.0722    0.0000 C   0  0  0  0  0  0  0  0  0  0  0  0
    4.4628   -4.4227    0.0000 C   0  0  0  0  0  0  0  0  0  0  0  0
    5.0749   -4.0648    0.0000 C   0  0  0  0  0  0  0  0  0  0  0  0
    5.0685   -3.3529    0.0000 C   0  0  0  0  0  0  0  0  0  0  0  0
    4.4532   -3.0056    0.0000 C   0  0  0  0  0  0  0  0  0  0  0  0
    2.8708   -2.3958    0.0000 O   0  0  0  0  0  0  0  0  0  0  0  0
    3.5792   -2.3958    0.0000 O   0  0  0  0  0  0  0  0  0  0  0  0
   -0.4477   -3.0364    0.0000 C   0  0  0  0  0  0  0  0  0  0  0  0
   -1.0590   -3.3942    0.0000 O   0  0  0  0  0  0  0  0  0  0  0  0
   -0.4518   -2.3281    0.0000 O   0  0  0  0  0  0  0  0  0  0  0  0
    5.6909   -4.4146    0.0000 N   0  0  0  0  0  0  0  0  0  0  0  0
    0.7750   -2.3208    0.0000 C   0  0  0  0  0  0  0  0  0  0  0  0
    1.3863   -1.9631    0.0000 C   0  0  0  0  0  0  0  0  0  0  0  0
    2.0015   -2.3150    0.0000 C   0  0  0  0  0  0  0  0  0  0  0  0
    2.6125   -1.9579    0.0000 C   0  0  0  0  0  0  0  0  0  0  0  0
    2.6087   -1.2488    0.0000 C   0  0  0  0  0  0  0  0  0  0  0  0
    1.9889   -0.8984    0.0000 C   0  0  0  0  0  0  0  0  0  0  0  0
    1.3805   -1.2576    0.0000 C   0  0  0  0  0  0  0  0  0  0  0  0
    1.3988   -4.0880    0.0000 O   0  0  0  0  0  0  0  0  0  0  0  0
 20 21  2  0
  9 10  1  0
 21 22  1  0
  1  5  1  0
 22 23  2  0
  9 11  1  0
 23 24  1  0
 24 15  2  0
 14 25  2  0
 11 12  1  0
 14 26  2  0
 10 27  1  0
 12 13  1  0
 27 28  1  0
  4  2  1  0
 27 29  2  0
 13 14  1  0
 22 30  1  0
  1 28  1  0
  2  3  1  0
 14 15  1  0
  5  6  1  0
  9 31  1  0
 13 16  1  0
 31 32  1  0
  6  7  1  0
 32 33  2  0
 16 17  1  0
 33 34  1  0
  7  8  1  0
 34 35  2  0
 17 18  1  0
 35 36  1  0
  8  4  1  0
 36 37  2  0
 37 32  1  0
 17 19  1  0
 11 38  1  0
  3  1  1  0
 15 20  1  0
  4  5  1  0
M  END
>  <Classification>  (965) 
0

>  <pchembl>  (965) 
4.48

>  <InChI_steorem>  (965) 
InChI=1S/C27H37N3O7S/c1-18(2)15-30(38(33,34)21-10-8-20(28)9-11-21)16-24(31)23(14-19-6-4-3-5-7-19)29-27(32)37-25-17-36-26-22(25)12-13-35-26/h3-11,18,22-26,31H,12-17,28H2,1-2H3,(H,29,32)

>  <source>  (965) 
ChEMBL28

>  <source_id>  (965) 
28

>  <optional_reference>  (965) 
10.1021/acs.jmedchem.9b00779

>  <optional_origin>  (965) 
None

>  <target>  (965) 
MDR1

$$$$

     RDKit          2D

 41 44  0  0  0  0  0  0  0  0999 V2000
    4.4271  -14.6846    0.0000 C   0  0  0  0  0  0  0  0  0  0  0  0
    4.4260  -15.5042    0.0000 C   0  0  0  0  0  0  0  0  0  0  0  0
    5.1340  -15.9131    0.0000 C   0  0  0  0  0  0  0  0  0  0  0  0
    5.8437  -15.5037    0.0000 C   0  0  0  0  0  0  0  0  0  0  0  0
    5.8408  -14.6810    0.0000 C   0  0  0  0  0  0  0  0  0  0  0  0
    5.1322  -14.2758    0.0000 C   0  0  0  0  0  0  0  0  0  0  0  0
    5.1298  -13.4586    0.0000 O   0  0  0  0  0  0  0  0  0  0  0  0
    5.8363  -13.0479    0.0000 C   0  0  0  0  0  0  0  0  0  0  0  0
    3.7193  -14.2762    0.0000 O   0  0  0  0  0  0  0  0  0  0  0  0
    3.7191  -13.4590    0.0000 C   0  0  0  0  0  0  0  0  0  0  0  0
    3.7179  -15.9122    0.0000 O   0  0  0  0  0  0  0  0  0  0  0  0
    3.0105  -15.5031    0.0000 C   0  0  0  0  0  0  0  0  0  0  0  0
    6.5520  -15.9112    0.0000 N   0  0  0  0  0  0  0  0  0  0  0  0
    7.2591  -15.5015    0.0000 C   0  0  0  0  0  0  0  0  0  0  0  0
    7.9674  -15.9090    0.0000 C   0  0  0  0  0  0  0  0  0  0  0  0
    8.6745  -15.4993    0.0000 S   0  0  0  0  0  0  0  0  0  0  0  0
    7.2578  -14.6843    0.0000 O   0  0  0  0  0  0  0  0  0  0  0  0
    9.3828  -15.9067    0.0000 C   0  0  0  0  0  0  0  0  0  0  0  0
   10.0899  -15.4970    0.0000 C   0  0  0  0  0  0  0  0  0  0  0  0
   10.7983  -15.9045    0.0000 N   0  0  0  0  0  0  0  0  0  0  0  0
   10.0886  -14.6799    0.0000 O   0  0  0  0  0  0  0  0  0  0  0  0
   11.5053  -15.4948    0.0000 C   0  0  0  0  0  0  0  0  0  0  0  0
   12.2501  -15.8236    0.0000 N   0  0  0  0  0  0  0  0  0  0  0  0
   12.7960  -15.2154    0.0000 N   0  0  0  0  0  0  0  0  0  0  0  0
   12.3862  -14.5083    0.0000 C   0  0  0  0  0  0  0  0  0  0  0  0
   11.5872  -14.6796    0.0000 C   0  0  0  0  0  0  0  0  0  0  0  0
   12.7166  -13.7641    0.0000 C   0  0  0  0  0  0  0  0  0  0  0  0
   13.5304  -13.6786    0.0000 C   0  0  0  0  0  0  0  0  0  0  0  0
   13.8616  -12.9323    0.0000 C   0  0  0  0  0  0  0  0  0  0  0  0
   13.3800  -12.2710    0.0000 C   0  0  0  0  0  0  0  0  0  0  0  0
   12.5635  -12.3609    0.0000 C   0  0  0  0  0  0  0  0  0  0  0  0
   12.2361  -13.1073    0.0000 C   0  0  0  0  0  0  0  0  0  0  0  0
   11.4238  -13.1963    0.0000 C   0  0  0  0  0  0  0  0  0  0  0  0
   13.7102  -11.5235    0.0000 C   0  0  0  0  0  0  0  0  0  0  0  0
   14.6742  -12.8460    0.0000 C   0  0  0  0  0  0  0  0  0  0  0  0
   12.4233  -16.6207    0.0000 C   0  0  0  0  0  0  0  0  0  0  0  0
   11.8156  -17.1687    0.0000 C   0  0  0  0  0  0  0  0  0  0  0  0
   11.9869  -17.9670    0.0000 C   0  0  0  0  0  0  0  0  0  0  0  0
   12.7654  -18.2184    0.0000 C   0  0  0  0  0  0  0  0  0  0  0  0
   13.3727  -17.6653    0.0000 C   0  0  0  0  0  0  0  0  0  0  0  0
   13.1983  -16.8691    0.0000 C   0  0  0  0  0  0  0  0  0  0  0  0
  1  2  2  0
  2  3  1  0
  3  4  2  0
  4  5  1  0
  5  6  2  0
  6  1  1  0
  6  7  1  0
  7  8  1  0
  1  9  1  0
  9 10  1  0
  2 11  1  0
 11 12  1  0
  4 13  1  0
 13 14  1  0
 14 15  1  0
 15 16  1  0
 14 17  2  0
 16 18  1  0
 18 19  1  0
 19 20  1  0
 19 21  2  0
 20 22  1  0
 22 23  1  0
 23 24  1  0
 24 25  2  0
 25 26  1  0
 26 22  2  0
 27 28  2  0
 28 29  1  0
 29 30  2  0
 30 31  1  0
 31 32  2  0
 32 27  1  0
 25 27  1  0
 32 33  1  0
 30 34  1  0
 29 35  1  0
 36 37  2  0
 37 38  1  0
 38 39  2  0
 39 40  1  0
 40 41  2  0
 41 36  1  0
 23 36  1  0
M  END
>  <Classification>  (966) 
1

>  <pchembl>  (966) 
6.73

>  <InChI_steorem>  (966) 
InChI=1S/C31H34N4O5S/c1-19-12-21(3)24(13-20(19)2)25-16-28(35(34-25)23-10-8-7-9-11-23)33-30(37)18-41-17-29(36)32-22-14-26(38-4)31(40-6)27(15-22)39-5/h7-16H,17-18H2,1-6H3,(H,32,36)(H,33,37)

>  <source>  (966) 
ChEMBL28

>  <source_id>  (966) 
28

>  <optional_reference>  (966) 
10.1021/acs.jmedchem.9b00966

>  <optional_origin>  (966) 
None

>  <target>  (966) 
MDR1

$$$$

     RDKit          2D

 41 45  0  0  0  0  0  0  0  0999 V2000
   22.1710   -5.8727    0.0000 S   0  0  0  0  0  0  0  0  0  0  0  0
   22.8769   -6.2918    0.0000 C   0  0  0  0  0  0  0  0  0  0  0  0
   23.5921   -5.8881    0.0000 C   0  0  0  0  0  0  0  0  0  0  0  0
   24.2979   -6.3072    0.0000 N   0  0  0  0  0  0  0  0  0  0  0  0
   23.6014   -5.0652    0.0000 O   0  0  0  0  0  0  0  0  0  0  0  0
   25.0132   -5.9035    0.0000 C   0  0  0  0  0  0  0  0  0  0  0  0
   25.7596   -6.2416    0.0000 N   0  0  0  0  0  0  0  0  0  0  0  0
   26.3136   -5.6342    0.0000 N   0  0  0  0  0  0  0  0  0  0  0  0
   25.9099   -4.9189    0.0000 C   0  0  0  0  0  0  0  0  0  0  0  0
   25.1055   -5.0832    0.0000 C   0  0  0  0  0  0  0  0  0  0  0  0
   26.2498   -4.1771    0.0000 C   0  0  0  0  0  0  0  0  0  0  0  0
   27.0680   -4.0988    0.0000 C   0  0  0  0  0  0  0  0  0  0  0  0
   27.4112   -3.3541    0.0000 C   0  0  0  0  0  0  0  0  0  0  0  0
   26.9351   -2.6838    0.0000 C   0  0  0  0  0  0  0  0  0  0  0  0
   26.1119   -2.7630    0.0000 C   0  0  0  0  0  0  0  0  0  0  0  0
   25.7747   -3.5113    0.0000 C   0  0  0  0  0  0  0  0  0  0  0  0
   25.9191   -7.0403    0.0000 C   0  0  0  0  0  0  0  0  0  0  0  0
   25.3041   -7.5870    0.0000 C   0  0  0  0  0  0  0  0  0  0  0  0
   25.4661   -8.3872    0.0000 C   0  0  0  0  0  0  0  0  0  0  0  0
   26.2474   -8.6486    0.0000 C   0  0  0  0  0  0  0  0  0  0  0  0
   26.8645   -8.1002    0.0000 C   0  0  0  0  0  0  0  0  0  0  0  0
   26.6969   -7.2987    0.0000 C   0  0  0  0  0  0  0  0  0  0  0  0
   24.9556   -3.5897    0.0000 C   0  0  0  0  0  0  0  0  0  0  0  0
   27.2716   -1.9368    0.0000 C   0  0  0  0  0  0  0  0  0  0  0  0
   28.2248   -3.2773    0.0000 C   0  0  0  0  0  0  0  0  0  0  0  0
   21.4583   -6.2726    0.0000 C   0  0  0  0  0  0  0  0  0  0  0  0
   20.7594   -5.8534    0.0000 C   0  0  0  0  0  0  0  0  0  0  0  0
   20.0472   -6.2526    0.0000 C   0  0  0  0  0  0  0  0  0  0  0  0
   20.0368   -7.0706    0.0000 C   0  0  0  0  0  0  0  0  0  0  0  0
   20.7444   -7.4877    0.0000 C   0  0  0  0  0  0  0  0  0  0  0  0
   21.4537   -7.0861    0.0000 C   0  0  0  0  0  0  0  0  0  0  0  0
   19.3448   -5.8350    0.0000 N   0  0  0  0  0  0  0  0  0  0  0  0
   18.6319   -6.2345    0.0000 C   0  0  0  0  0  0  0  0  0  0  0  0
   17.9295   -5.8170    0.0000 C   0  0  0  0  0  0  0  0  0  0  0  0
   18.6215   -7.0517    0.0000 O   0  0  0  0  0  0  0  0  0  0  0  0
   17.9435   -5.0005    0.0000 C   0  0  0  0  0  0  0  0  0  0  0  0
   17.2418   -4.5830    0.0000 N   0  0  0  0  0  0  0  0  0  0  0  0
   16.5280   -4.9826    0.0000 C   0  0  0  0  0  0  0  0  0  0  0  0
   16.5202   -5.8040    0.0000 C   0  0  0  0  0  0  0  0  0  0  0  0
   17.2224   -6.2178    0.0000 C   0  0  0  0  0  0  0  0  0  0  0  0
   15.8087   -6.2061    0.0000 Br  0  0  0  0  0  0  0  0  0  0  0  0
  1  2  1  0
  2  3  1  0
  3  4  1  0
  3  5  2  0
  4  6  1  0
  6  7  1  0
  7  8  1  0
  8  9  2  0
  9 10  1  0
 10  6  2  0
 11 12  2  0
 12 13  1  0
 13 14  2  0
 14 15  1  0
 15 16  2  0
 16 11  1  0
  9 11  1  0
 17 18  2  0
 18 19  1  0
 19 20  2  0
 20 21  1  0
 21 22  2  0
 22 17  1  0
  7 17  1  0
 16 23  1  0
 14 24  1  0
 13 25  1  0
  1 26  1  0
 26 27  2  0
 27 28  1  0
 28 29  2  0
 29 30  1  0
 30 31  2  0
 31 26  1  0
 28 32  1  0
 32 33  1  0
 33 34  1  0
 33 35  2  0
 34 36  2  0
 36 37  1  0
 37 38  2  0
 38 39  1  0
 39 40  2  0
 40 34  1  0
 39 41  1  0
M  END
>  <Classification>  (967) 
1

>  <pchembl>  (967) 
7.25

>  <InChI_steorem>  (967) 
InChI=1S/C32H28BrN5O2S/c1-20-12-22(3)28(13-21(20)2)29-16-30(38(37-29)26-9-5-4-6-10-26)36-31(39)19-41-27-11-7-8-25(15-27)35-32(40)23-14-24(33)18-34-17-23/h4-18H,19H2,1-3H3,(H,35,40)(H,36,39)

>  <source>  (967) 
ChEMBL28

>  <source_id>  (967) 
28

>  <optional_reference>  (967) 
10.1021/acs.jmedchem.9b00966

>  <optional_origin>  (967) 
None

>  <target>  (967) 
MDR1

$$$$

     RDKit          2D

 37 42  0  0  0  0  0  0  0  0999 V2000
    2.0440    1.7885    0.0000 C   0  0  0  0  0  0  0  0  0  0  0  0
   -1.6790   -0.3832    0.0000 C   0  0  0  0  0  0  0  0  0  0  0  0
   -1.6790   -1.8250    0.0000 C   0  0  0  0  0  0  0  0  0  0  0  0
    2.0440    0.3467    0.0000 C   0  0  0  0  0  0  0  0  0  0  0  0
   -0.4380    0.3285    0.0000 C   0  0  0  0  0  0  0  0  0  0  0  0
    0.8030   -0.3650    0.0000 C   0  0  0  0  0  0  0  0  0  0  0  0
    3.3032    2.5367    0.0000 C   0  0  0  0  0  0  0  0  0  0  0  0
   -2.9382   -2.5732    0.0000 C   0  0  0  0  0  0  0  0  0  0  0  0
    0.8030    2.5185    0.0000 C   0  0  0  0  0  0  0  0  0  0  0  0
   -0.4562    1.7885    0.0000 C   0  0  0  0  0  0  0  0  0  0  0  0
    4.5625    0.3285    0.0000 C   0  0  0  0  0  0  0  0  0  0  0  0
   -2.9565    0.3102    0.0000 C   0  0  0  0  0  0  0  0  0  0  0  0
    4.5625    1.8067    0.0000 C   0  0  0  0  0  0  0  0  0  0  0  0
    0.8212   -1.8067    0.0000 C   0  0  0  0  0  0  0  0  0  0  0  0
    4.5993    3.2532    0.0000 C   0  0  0  0  0  0  0  0  0  0  0  0
   -0.4197   -2.5550    0.0000 C   0  0  0  0  0  0  0  0  0  0  0  0
   -4.1792   -1.8432    0.0000 C   0  0  0  0  0  0  0  0  0  0  0  0
    5.6420    2.6592    0.0000 O   0  0  0  0  0  0  0  0  0  0  0  0
   -5.2209   -2.4390    0.0000 O   0  0  0  0  0  0  0  0  0  0  0  0
   -4.1792   -0.4015    0.0000 C   0  0  0  0  0  0  0  0  0  0  0  0
    2.0413    2.9885    0.0000 C   0  0  0  0  0  0  0  0  0  0  0  0
   -1.6930    0.8167    0.0000 C   0  0  0  0  0  0  0  0  0  0  0  0
    4.5927    4.4532    0.0000 C   0  0  0  0  0  0  0  0  0  0  0  0
   -1.7625    2.5282    0.0000 O   0  0  0  0  0  0  0  0  0  0  0  0
    2.3183    3.6431    0.0000 O   0  0  0  0  0  0  0  0  0  0  0  0
   -1.7760    4.0289    0.0000 C   0  0  0  0  0  0  0  0  0  0  0  0
   -3.0802    4.7700    0.0000 O   0  0  0  0  0  0  0  0  0  0  0  0
   -3.0906    6.2699    0.0000 C   0  0  0  0  0  0  0  0  0  0  0  0
   -1.7968    7.0289    0.0000 C   0  0  0  0  0  0  0  0  0  0  0  0
   -0.4926    6.2880    0.0000 C   0  0  0  0  0  0  0  0  0  0  0  0
   -0.4822    4.7880    0.0000 C   0  0  0  0  0  0  0  0  0  0  0  0
    2.8229    5.0565    0.0000 C   0  0  0  0  0  0  0  0  0  0  0  0
    1.8347    6.1866    0.0000 C   0  0  0  0  0  0  0  0  0  0  0  0
    2.3184    7.6064    0.0000 C   0  0  0  0  0  0  0  0  0  0  0  0
    3.7899    7.8974    0.0000 C   0  0  0  0  0  0  0  0  0  0  0  0
    4.7777    6.7686    0.0000 C   0  0  0  0  0  0  0  0  0  0  0  0
    4.2939    5.3487    0.0000 O   0  0  0  0  0  0  0  0  0  0  0  0
  2  5  1  0
  3  2  1  0
  4  1  1  0
  5 10  1  0
  6  4  1  0
  7  1  1  0
  8  3  1  0
  9  1  1  0
 10  9  1  0
 11  4  1  0
 12  2  1  0
 13  7  1  0
 14  6  1  0
  7 15  1  0
 16 14  1  0
 17 20  1  0
 18 15  2  0
 19 17  2  0
 20 12  1  0
  1 21  1  0
  2 22  1  0
 23 15  1  0
 13 11  1  0
  5  6  1  0
 16  3  1  0
 17  8  1  0
 10 24  1  0
  7 25  1  0
 26 24  1  0
 26 27  1  0
 26 31  1  0
 27 28  1  0
 28 29  1  0
 29 30  1  0
 30 31  1  0
 32 25  1  0
 32 33  1  0
 32 37  1  0
 33 34  1  0
 34 35  1  0
 35 36  1  0
 36 37  1  0
M  END
>  <Classification>  (968) 
1

>  <pchembl>  (968) 
8.0

>  <InChI_steorem>  (968) 
InChI=1S/C31H48O6/c1-20(32)31(37-27-9-5-7-17-35-27)15-13-24-23-11-10-21-18-22(33)12-14-29(21,2)28(23)25(19-30(24,31)3)36-26-8-4-6-16-34-26/h21,23-28H,4-19H2,1-3H3

>  <source>  (968) 
ChEMBL28

>  <source_id>  (968) 
28

>  <optional_reference>  (968) 
None

>  <optional_origin>  (968) 
None

>  <target>  (968) 
MDR1

$$$$

     RDKit          2D

 41 46  0  0  0  0  0  0  0  0999 V2000
   25.9258   -2.4846    0.0000 C   0  0  0  0  0  0  0  0  0  0  0  0
   25.9247   -3.3082    0.0000 C   0  0  0  0  0  0  0  0  0  0  0  0
   26.6369   -3.7213    0.0000 C   0  0  0  0  0  0  0  0  0  0  0  0
   26.6351   -2.0757    0.0000 C   0  0  0  0  0  0  0  0  0  0  0  0
   27.3478   -2.4810    0.0000 C   0  0  0  0  0  0  0  0  0  0  0  0
   27.3526   -3.3037    0.0000 C   0  0  0  0  0  0  0  0  0  0  0  0
   28.1290   -2.2235    0.0000 C   0  0  0  0  0  0  0  0  0  0  0  0
   28.6141   -2.8870    0.0000 C   0  0  0  0  0  0  0  0  0  0  0  0
   28.1338   -3.5495    0.0000 C   0  0  0  0  0  0  0  0  0  0  0  0
   28.4674   -4.2987    0.0000 C   0  0  0  0  0  0  0  0  0  0  0  0
   29.2853   -4.3826    0.0000 C   0  0  0  0  0  0  0  0  0  0  0  0
   29.7684   -3.7153    0.0000 C   0  0  0  0  0  0  0  0  0  0  0  0
   29.4280   -2.9687    0.0000 C   0  0  0  0  0  0  0  0  0  0  0  0
   30.5857   -3.7958    0.0000 C   0  0  0  0  0  0  0  0  0  0  0  0
   30.9226   -4.5444    0.0000 C   0  0  0  0  0  0  0  0  0  0  0  0
   31.0620   -3.1276    0.0000 O   0  0  0  0  0  0  0  0  0  0  0  0
   31.7400   -4.6249    0.0000 S   0  0  0  0  0  0  0  0  0  0  0  0
   32.0810   -5.3735    0.0000 C   0  0  0  0  0  0  0  0  0  0  0  0
   32.8984   -5.4540    0.0000 C   0  0  0  0  0  0  0  0  0  0  0  0
   33.2353   -6.2026    0.0000 N   0  0  0  0  0  0  0  0  0  0  0  0
   33.3747   -4.7858    0.0000 O   0  0  0  0  0  0  0  0  0  0  0  0
   34.0526   -6.2831    0.0000 C   0  0  0  0  0  0  0  0  0  0  0  0
   34.4693   -6.9887    0.0000 N   0  0  0  0  0  0  0  0  0  0  0  0
   35.2718   -6.8099    0.0000 N   0  0  0  0  0  0  0  0  0  0  0  0
   35.3522   -5.9924    0.0000 C   0  0  0  0  0  0  0  0  0  0  0  0
   34.5995   -5.6647    0.0000 C   0  0  0  0  0  0  0  0  0  0  0  0
   36.0567   -5.5806    0.0000 C   0  0  0  0  0  0  0  0  0  0  0  0
   36.7672   -5.9865    0.0000 C   0  0  0  0  0  0  0  0  0  0  0  0
   37.4760   -5.5743    0.0000 C   0  0  0  0  0  0  0  0  0  0  0  0
   37.4714   -4.7521    0.0000 C   0  0  0  0  0  0  0  0  0  0  0  0
   36.7521   -4.3439    0.0000 C   0  0  0  0  0  0  0  0  0  0  0  0
   36.0504   -4.7627    0.0000 C   0  0  0  0  0  0  0  0  0  0  0  0
   34.1409   -7.7382    0.0000 C   0  0  0  0  0  0  0  0  0  0  0  0
   33.3235   -7.8281    0.0000 C   0  0  0  0  0  0  0  0  0  0  0  0
   32.9964   -8.5803    0.0000 C   0  0  0  0  0  0  0  0  0  0  0  0
   33.4815   -9.2390    0.0000 C   0  0  0  0  0  0  0  0  0  0  0  0
   34.3016   -9.1447    0.0000 C   0  0  0  0  0  0  0  0  0  0  0  0
   34.6291   -8.3924    0.0000 C   0  0  0  0  0  0  0  0  0  0  0  0
   35.3349   -4.3563    0.0000 C   0  0  0  0  0  0  0  0  0  0  0  0
   38.1802   -4.3341    0.0000 C   0  0  0  0  0  0  0  0  0  0  0  0
   38.1902   -5.9789    0.0000 C   0  0  0  0  0  0  0  0  0  0  0  0
  1  2  2  0
  2  3  1  0
  3  6  2  0
  5  4  2  0
  4  1  1  0
  5  6  1  0
  6  9  1  0
  8  7  1  0
  7  5  1  0
  8  9  2  0
  9 10  1  0
 10 11  2  0
 11 12  1  0
 12 13  2  0
 13  8  1  0
 12 14  1  0
 14 15  1  0
 14 16  2  0
 15 17  1  0
 17 18  1  0
 18 19  1  0
 19 20  1  0
 19 21  2  0
 20 22  1  0
 22 23  1  0
 23 24  1  0
 24 25  2  0
 25 26  1  0
 26 22  2  0
 27 28  2  0
 28 29  1  0
 29 30  2  0
 30 31  1  0
 31 32  2  0
 32 27  1  0
 25 27  1  0
 33 34  2  0
 34 35  1  0
 35 36  2  0
 36 37  1  0
 37 38  2  0
 38 33  1  0
 23 33  1  0
 32 39  1  0
 30 40  1  0
 29 41  1  0
M  END
>  <Classification>  (969) 
1

>  <pchembl>  (969) 
6.58

>  <InChI_steorem>  (969) 
InChI=1S/C35H31N3O2S/c1-22-15-24(3)31(16-23(22)2)32-19-34(38(37-32)28-10-5-4-6-11-28)36-35(40)21-41-20-33(39)26-13-14-30-27(18-26)17-25-9-7-8-12-29(25)30/h4-16,18-19H,17,20-21H2,1-3H3,(H,36,40)

>  <source>  (969) 
ChEMBL28

>  <source_id>  (969) 
28

>  <optional_reference>  (969) 
10.1021/acs.jmedchem.9b00966

>  <optional_origin>  (969) 
None

>  <target>  (969) 
MDR1

$$$$

     RDKit          2D

 41 43  0  0  0  0  0  0  0  0999 V2000
   39.2376  -20.6279    0.0000 C   0  0  0  0  0  0  0  0  0  0  0  0
   38.8331  -21.3378    0.0000 C   0  0  0  0  0  0  0  0  0  0  0  0
   39.6501  -21.3331    0.0000 C   0  0  0  0  0  0  0  0  0  0  0  0
   36.8596  -22.1583    0.0000 C   0  0  0  0  0  0  0  0  0  0  0  0
   37.4348  -20.7594    0.0000 C   0  0  0  0  0  0  0  0  0  0  0  0
   37.4349  -22.7334    0.0000 C   0  0  0  0  0  0  0  0  0  0  0  0
   38.2545  -22.7334    0.0000 C   0  0  0  0  0  0  0  0  0  0  0  0
   38.8338  -22.1583    0.0000 C   0  0  0  0  0  0  0  0  0  0  0  0
   38.2545  -20.7593    0.0000 C   0  0  0  0  0  0  0  0  0  0  0  0
   34.1941  -21.1686    0.0000 C   0  0  0  0  0  0  0  0  0  0  0  0
   34.6810  -20.5099    0.0000 C   0  0  0  0  0  0  0  0  0  0  0  0
   34.6742  -21.8394    0.0000 C   0  0  0  0  0  0  0  0  0  0  0  0
   34.2700  -22.5501    0.0000 O   0  0  0  0  0  0  0  0  0  0  0  0
   35.0430  -20.0552    0.0000 O   0  0  0  0  0  0  0  0  0  0  0  0
   35.4605  -21.5846    0.0000 C   0  0  0  0  0  0  0  0  0  0  0  0
   35.4606  -20.7649    0.0000 C   0  0  0  0  0  0  0  0  0  0  0  0
   36.0372  -20.1883    0.0000 C   0  0  0  0  0  0  0  0  0  0  0  0
   36.0373  -22.1613    0.0000 C   0  0  0  0  0  0  0  0  0  0  0  0
   37.4335  -21.5846    0.0000 C   0  0  0  0  0  0  0  0  0  0  0  0
   36.8568  -20.1882    0.0000 C   0  0  0  0  0  0  0  0  0  0  0  0
   35.7244  -19.4334    0.0000 O   0  0  0  0  0  0  0  0  0  0  0  0
   37.1695  -19.4332    0.0000 C   0  0  0  0  0  0  0  0  0  0  0  0
   39.5883  -22.4720    0.0000 O   0  0  0  0  0  0  0  0  0  0  0  0
   37.1222  -23.4884    0.0000 O   0  0  0  0  0  0  0  0  0  0  0  0
   37.5340  -24.1945    0.0000 C   0  0  0  0  0  0  0  0  0  0  0  0
   37.1287  -24.9041    0.0000 C   0  0  0  0  0  0  0  0  0  0  0  0
   38.3512  -24.1906    0.0000 O   0  0  0  0  0  0  0  0  0  0  0  0
   38.6733  -23.4347    0.0000 O   0  0  0  0  0  0  0  0  0  0  0  0
   33.4528  -22.5556    0.0000 C   0  0  0  0  0  0  0  0  0  0  0  0
   33.0490  -23.2661    0.0000 C   0  0  0  0  0  0  0  0  0  0  0  0
   33.0394  -21.8507    0.0000 O   0  0  0  0  0  0  0  0  0  0  0  0
   35.7260  -22.9168    0.0000 O   0  0  0  0  0  0  0  0  0  0  0  0
   35.7212  -23.7316    0.0000 C   0  0  0  0  0  0  0  0  0  0  0  0
   36.4264  -24.1443    0.0000 O   0  0  0  0  0  0  0  0  0  0  0  0
   35.0111  -24.1360    0.0000 C   0  0  0  0  0  0  0  0  0  0  0  0
   32.2316  -23.2666    0.0000 C   0  0  0  0  0  0  0  0  0  0  0  0
   31.8279  -23.9762    0.0000 C   0  0  0  0  0  0  0  0  0  0  0  0
   32.2414  -24.6821    0.0000 C   0  0  0  0  0  0  0  0  0  0  0  0
   33.0628  -24.6739    0.0000 C   0  0  0  0  0  0  0  0  0  0  0  0
   33.4628  -23.9638    0.0000 C   0  0  0  0  0  0  0  0  0  0  0  0
   33.3769  -21.1623    0.0000 C   0  0  0  0  0  0  0  0  0  0  0  0
  2  1  1  0
  3  2  1  0
  4  6  1  0
  6  7  1  0
  7  8  1  0
  8  2  1  0
  2  9  1  0
  9  5  2  0
 16 11  1  0
 11 10  1  0
 10 12  1  0
 12 15  1  0
 12 13  1  0
 16 14  1  0
 15 16  1  0
 16 17  1  0
 15 18  1  0
 18  4  1  0
  4 19  2  0
  5 20  1  0
 20 17  1  0
 17 21  2  0
 20 22  1  0
  8 23  2  0
  6 24  1  0
 24 25  1  0
 25 26  1  0
 25 27  2  0
  7 28  1  0
 13 29  1  0
 29 30  1  0
 29 31  2  0
 18 32  1  0
 32 33  1  0
 33 34  2  0
 33 35  1  0
 30 36  2  0
 36 37  1  0
 37 38  2  0
 38 39  1  0
 39 40  2  0
 40 30  1  0
 10 41  1  0
M  END
>  <Classification>  (970) 
0

>  <pchembl>  (970) 
4.6

>  <InChI_steorem>  (970) 
InChI=1S/C31H38O10/c1-16-13-14-30(6,7)28(36)23(34)26(40-20(5)33)18(3)25(39-19(4)32)22-24(17(2)15-31(22,38)27(16)35)41-29(37)21-11-9-8-10-12-21/h8-14,16-17,22-26,34,38H,3,15H2,1-2,4-7H3

>  <source>  (970) 
ChEMBL28

>  <source_id>  (970) 
28

>  <optional_reference>  (970) 
10.1021/acs.jnatprod.8b00507

>  <optional_origin>  (970) 
None

>  <target>  (970) 
MDR1

$$$$

     RDKit          2D

 42 46  0  0  0  0  0  0  0  0999 V2000
   18.5127  -24.4958    0.0000 N   0  0  0  0  0  0  0  0  0  0  0  0
   19.2239  -24.0861    0.0000 C   0  0  0  0  0  0  0  0  0  0  0  0
   19.9364  -24.4936    0.0000 C   0  0  0  0  0  0  0  0  0  0  0  0
   20.6476  -24.0839    0.0000 S   0  0  0  0  0  0  0  0  0  0  0  0
   19.2226  -23.2648    0.0000 O   0  0  0  0  0  0  0  0  0  0  0  0
   21.3601  -24.4914    0.0000 C   0  0  0  0  0  0  0  0  0  0  0  0
   22.0712  -24.0817    0.0000 C   0  0  0  0  0  0  0  0  0  0  0  0
   22.7837  -24.4892    0.0000 N   0  0  0  0  0  0  0  0  0  0  0  0
   22.0700  -23.2604    0.0000 O   0  0  0  0  0  0  0  0  0  0  0  0
   23.4949  -24.0795    0.0000 C   0  0  0  0  0  0  0  0  0  0  0  0
   24.2439  -24.4082    0.0000 N   0  0  0  0  0  0  0  0  0  0  0  0
   24.7897  -23.7959    0.0000 N   0  0  0  0  0  0  0  0  0  0  0  0
   24.3800  -23.0847    0.0000 C   0  0  0  0  0  0  0  0  0  0  0  0
   23.5768  -23.2601    0.0000 C   0  0  0  0  0  0  0  0  0  0  0  0
   24.7103  -22.3364    0.0000 C   0  0  0  0  0  0  0  0  0  0  0  0
   25.5283  -22.2508    0.0000 C   0  0  0  0  0  0  0  0  0  0  0  0
   25.8594  -21.5005    0.0000 C   0  0  0  0  0  0  0  0  0  0  0  0
   25.3779  -20.8392    0.0000 C   0  0  0  0  0  0  0  0  0  0  0  0
   24.5572  -20.9290    0.0000 C   0  0  0  0  0  0  0  0  0  0  0  0
   24.2257  -21.6796    0.0000 C   0  0  0  0  0  0  0  0  0  0  0  0
   23.4092  -21.7685    0.0000 C   0  0  0  0  0  0  0  0  0  0  0  0
   25.7080  -20.0875    0.0000 C   0  0  0  0  0  0  0  0  0  0  0  0
   26.6762  -21.4141    0.0000 C   0  0  0  0  0  0  0  0  0  0  0  0
   24.4170  -25.2095    0.0000 C   0  0  0  0  0  0  0  0  0  0  0  0
   23.8052  -25.7616    0.0000 C   0  0  0  0  0  0  0  0  0  0  0  0
   23.9765  -26.5640    0.0000 C   0  0  0  0  0  0  0  0  0  0  0  0
   24.7591  -26.8154    0.0000 C   0  0  0  0  0  0  0  0  0  0  0  0
   25.3706  -26.2582    0.0000 C   0  0  0  0  0  0  0  0  0  0  0  0
   25.1962  -25.4579    0.0000 C   0  0  0  0  0  0  0  0  0  0  0  0
   18.5119  -25.3130    0.0000 C   0  0  0  0  0  0  0  0  0  0  0  0
   17.8038  -25.7209    0.0000 C   0  0  0  0  0  0  0  0  0  0  0  0
   19.2193  -25.7223    0.0000 C   0  0  0  0  0  0  0  0  0  0  0  0
   17.0965  -25.3097    0.0000 C   0  0  0  0  0  0  0  0  0  0  0  0
   16.3889  -25.7169    0.0000 C   0  0  0  0  0  0  0  0  0  0  0  0
   16.3877  -26.5350    0.0000 C   0  0  0  0  0  0  0  0  0  0  0  0
   17.1000  -26.9441    0.0000 C   0  0  0  0  0  0  0  0  0  0  0  0
   17.8047  -26.5345    0.0000 C   0  0  0  0  0  0  0  0  0  0  0  0
   19.2170  -26.5391    0.0000 C   0  0  0  0  0  0  0  0  0  0  0  0
   19.9235  -26.9483    0.0000 C   0  0  0  0  0  0  0  0  0  0  0  0
   20.6325  -26.5404    0.0000 C   0  0  0  0  0  0  0  0  0  0  0  0
   20.6307  -25.7189    0.0000 C   0  0  0  0  0  0  0  0  0  0  0  0
   19.9236  -25.3134    0.0000 C   0  0  0  0  0  0  0  0  0  0  0  0
  1  2  1  0
  2  3  1  0
  3  4  1  0
  2  5  2  0
  4  6  1  0
  6  7  1  0
  7  8  1  0
  7  9  2  0
  8 10  1  0
 10 11  1  0
 11 12  1  0
 12 13  2  0
 13 14  1  0
 14 10  2  0
 15 16  2  0
 16 17  1  0
 17 18  2  0
 18 19  1  0
 19 20  2  0
 20 15  1  0
 13 15  1  0
 20 21  1  0
 18 22  1  0
 17 23  1  0
 24 25  2  0
 25 26  1  0
 26 27  2  0
 27 28  1  0
 28 29  2  0
 29 24  1  0
 11 24  1  0
  1 30  1  0
 30 31  1  0
 30 32  1  0
 31 33  2  0
 33 34  1  0
 34 35  2  0
 35 36  1  0
 36 37  2  0
 37 31  1  0
 32 38  2  0
 38 39  1  0
 39 40  2  0
 40 41  1  0
 41 42  2  0
 42 32  1  0
M  END
>  <Classification>  (971) 
1

>  <pchembl>  (971) 
6.8

>  <InChI_steorem>  (971) 
InChI=1S/C35H34N4O2S/c1-24-19-26(3)30(20-25(24)2)31-21-32(39(38-31)29-17-11-6-12-18-29)36-33(40)22-42-23-34(41)37-35(27-13-7-4-8-14-27)28-15-9-5-10-16-28/h4-21,35H,22-23H2,1-3H3,(H,36,40)(H,37,41)

>  <source>  (971) 
ChEMBL28

>  <source_id>  (971) 
28

>  <optional_reference>  (971) 
10.1021/acs.jmedchem.9b00966

>  <optional_origin>  (971) 
None

>  <target>  (971) 
MDR1

$$$$

     RDKit          2D

 39 44  0  0  0  0  0  0  0  0999 V2000
    2.0440    1.7885    0.0000 C   0  0  0  0  0  0  0  0  0  0  0  0
   -1.6790   -0.3832    0.0000 C   0  0  0  0  0  0  0  0  0  0  0  0
   -1.6790   -1.8250    0.0000 C   0  0  0  0  0  0  0  0  0  0  0  0
    2.0440    0.3467    0.0000 C   0  0  0  0  0  0  0  0  0  0  0  0
   -0.4380    0.3285    0.0000 C   0  0  0  0  0  0  0  0  0  0  0  0
    0.8030   -0.3650    0.0000 C   0  0  0  0  0  0  0  0  0  0  0  0
    3.3032    2.5367    0.0000 C   0  0  0  0  0  0  0  0  0  0  0  0
   -2.9382   -2.5732    0.0000 C   0  0  0  0  0  0  0  0  0  0  0  0
    0.8030    2.5185    0.0000 C   0  0  0  0  0  0  0  0  0  0  0  0
   -0.4562    1.7885    0.0000 C   0  0  0  0  0  0  0  0  0  0  0  0
    4.5625    0.3285    0.0000 C   0  0  0  0  0  0  0  0  0  0  0  0
   -2.9565    0.3102    0.0000 C   0  0  0  0  0  0  0  0  0  0  0  0
    4.5625    1.8067    0.0000 C   0  0  0  0  0  0  0  0  0  0  0  0
    0.8212   -1.8067    0.0000 C   0  0  0  0  0  0  0  0  0  0  0  0
    3.2946    4.0378    0.0000 C   0  0  0  0  0  0  0  0  0  0  0  0
   -0.4197   -2.5550    0.0000 C   0  0  0  0  0  0  0  0  0  0  0  0
   -4.1792   -1.8432    0.0000 C   0  0  0  0  0  0  0  0  0  0  0  0
    2.2523    4.6325    0.0000 O   0  0  0  0  0  0  0  0  0  0  0  0
   -5.2209   -2.4390    0.0000 O   0  0  0  0  0  0  0  0  0  0  0  0
   -4.1792   -0.4015    0.0000 C   0  0  0  0  0  0  0  0  0  0  0  0
    2.0413    2.9885    0.0000 C   0  0  0  0  0  0  0  0  0  0  0  0
   -1.6930    0.8167    0.0000 C   0  0  0  0  0  0  0  0  0  0  0  0
    4.3305    4.6434    0.0000 C   0  0  0  0  0  0  0  0  0  0  0  0
   -1.7625    2.5282    0.0000 O   0  0  0  0  0  0  0  0  0  0  0  0
    2.1357   -2.5323    0.0000 O   0  0  0  0  0  0  0  0  0  0  0  0
    3.4213   -1.7578    0.0000 C   0  0  0  0  0  0  0  0  0  0  0  0
    3.3985   -0.5580    0.0000 O   0  0  0  0  0  0  0  0  0  0  0  0
    4.7353   -2.4830    0.0000 C   0  0  0  0  0  0  0  0  0  0  0  0
    6.0212   -1.7108    0.0000 C   0  0  0  0  0  0  0  0  0  0  0  0
    7.3330   -2.4383    0.0000 C   0  0  0  0  0  0  0  0  0  0  0  0
    7.3589   -3.9381    0.0000 C   0  0  0  0  0  0  0  0  0  0  0  0
    6.0730   -4.7104    0.0000 C   0  0  0  0  0  0  0  0  0  0  0  0
    4.7612   -3.9829    0.0000 C   0  0  0  0  0  0  0  0  0  0  0  0
   -1.7760    4.0289    0.0000 C   0  0  0  0  0  0  0  0  0  0  0  0
   -3.0802    4.7700    0.0000 O   0  0  0  0  0  0  0  0  0  0  0  0
   -3.0906    6.2699    0.0000 C   0  0  0  0  0  0  0  0  0  0  0  0
   -1.7968    7.0289    0.0000 C   0  0  0  0  0  0  0  0  0  0  0  0
   -0.4926    6.2880    0.0000 C   0  0  0  0  0  0  0  0  0  0  0  0
   -0.4822    4.7880    0.0000 C   0  0  0  0  0  0  0  0  0  0  0  0
  2  5  1  0
  3  2  1  0
  4  1  1  0
  5 10  1  0
  6  4  1  0
  7  1  1  0
  8  3  1  0
  9  1  1  0
 10  9  1  0
 11  4  1  0
 12  2  1  0
 13  7  1  0
 14  6  1  0
  7 15  1  0
 16 14  1  0
 17 20  1  0
 18 15  2  0
 19 17  2  0
 20 12  1  0
  1 21  1  0
  2 22  1  0
 23 15  1  0
 13 11  1  0
  5  6  1  0
 16  3  1  0
 17  8  1  0
 10 24  1  0
 14 25  1  0
 25 26  1  0
 26 27  2  0
 26 28  1  0
 28 29  2  0
 29 30  1  0
 30 31  2  0
 31 32  1  0
 32 33  2  0
 33 28  1  0
 34 24  1  0
 34 35  1  0
 34 39  1  0
 35 36  1  0
 36 37  1  0
 37 38  1  0
 38 39  1  0
M  END
>  <Classification>  (972) 
1

>  <pchembl>  (972) 
8.0

>  <InChI_steorem>  (972) 
InChI=1S/C33H44O6/c1-20(34)24-12-13-25-29-26(39-31(36)21-9-5-4-6-10-21)18-22-17-23(35)14-15-32(22,2)30(29)27(19-33(24,25)3)38-28-11-7-8-16-37-28/h4-6,9-10,22,24-30H,7-8,11-19H2,1-3H3

>  <source>  (972) 
ChEMBL28

>  <source_id>  (972) 
28

>  <optional_reference>  (972) 
None

>  <optional_origin>  (972) 
None

>  <target>  (972) 
MDR1

$$$$

     RDKit          2D

 43 48  0  0  0  0  0  0  0  0999 V2000
    5.5252  -15.6203    0.0000 C   0  0  0  0  0  0  0  0  0  0  0  0
    5.8621  -16.3648    0.0000 C   0  0  0  0  0  0  0  0  0  0  0  0
    6.0015  -14.9562    0.0000 O   0  0  0  0  0  0  0  0  0  0  0  0
    6.6753  -16.4453    0.0000 S   0  0  0  0  0  0  0  0  0  0  0  0
    7.0122  -17.1898    0.0000 C   0  0  0  0  0  0  0  0  0  0  0  0
    7.8255  -17.2702    0.0000 C   0  0  0  0  0  0  0  0  0  0  0  0
    8.1624  -18.0147    0.0000 N   0  0  0  0  0  0  0  0  0  0  0  0
    8.3018  -16.6062    0.0000 O   0  0  0  0  0  0  0  0  0  0  0  0
    8.9756  -18.0952    0.0000 C   0  0  0  0  0  0  0  0  0  0  0  0
    9.3882  -18.7967    0.0000 N   0  0  0  0  0  0  0  0  0  0  0  0
   10.1865  -18.6220    0.0000 N   0  0  0  0  0  0  0  0  0  0  0  0
   10.2669  -17.8087    0.0000 C   0  0  0  0  0  0  0  0  0  0  0  0
    9.5184  -17.4810    0.0000 C   0  0  0  0  0  0  0  0  0  0  0  0
   10.9673  -17.3969    0.0000 C   0  0  0  0  0  0  0  0  0  0  0  0
   11.6778  -17.8028    0.0000 C   0  0  0  0  0  0  0  0  0  0  0  0
   12.3825  -17.3905    0.0000 C   0  0  0  0  0  0  0  0  0  0  0  0
   12.3779  -16.5725    0.0000 C   0  0  0  0  0  0  0  0  0  0  0  0
   11.6627  -16.1685    0.0000 C   0  0  0  0  0  0  0  0  0  0  0  0
   10.9609  -16.5830    0.0000 C   0  0  0  0  0  0  0  0  0  0  0  0
    9.0639  -19.5421    0.0000 C   0  0  0  0  0  0  0  0  0  0  0  0
    8.2506  -19.6320    0.0000 C   0  0  0  0  0  0  0  0  0  0  0  0
    7.9234  -20.3800    0.0000 C   0  0  0  0  0  0  0  0  0  0  0  0
    8.4086  -21.0387    0.0000 C   0  0  0  0  0  0  0  0  0  0  0  0
    9.2246  -20.9445    0.0000 C   0  0  0  0  0  0  0  0  0  0  0  0
    9.5480  -20.1963    0.0000 C   0  0  0  0  0  0  0  0  0  0  0  0
   10.2496  -16.1808    0.0000 C   0  0  0  0  0  0  0  0  0  0  0  0
   13.0825  -16.1586    0.0000 C   0  0  0  0  0  0  0  0  0  0  0  0
   13.0925  -17.7951    0.0000 C   0  0  0  0  0  0  0  0  0  0  0  0
    4.7120  -15.5398    0.0000 N   0  0  0  0  0  0  0  0  0  0  0  0
    2.8888  -15.7745    0.0000 C   0  0  0  0  0  0  0  0  0  0  0  0
    2.9619  -14.9625    0.0000 C   0  0  0  0  0  0  0  0  0  0  0  0
    3.6548  -14.5144    0.0000 C   0  0  0  0  0  0  0  0  0  0  0  0
    4.4283  -14.7730    0.0000 C   0  0  0  0  0  0  0  0  0  0  0  0
    5.0370  -14.2328    0.0000 C   0  0  0  0  0  0  0  0  0  0  0  0
    4.8733  -13.4340    0.0000 C   0  0  0  0  0  0  0  0  0  0  0  0
    4.0955  -13.1782    0.0000 C   0  0  0  0  0  0  0  0  0  0  0  0
    3.4902  -13.7201    0.0000 C   0  0  0  0  0  0  0  0  0  0  0  0
    4.2921  -16.2327    0.0000 C   0  0  0  0  0  0  0  0  0  0  0  0
    3.4769  -16.3401    0.0000 C   0  0  0  0  0  0  0  0  0  0  0  0
    3.1639  -17.0984    0.0000 C   0  0  0  0  0  0  0  0  0  0  0  0
    3.6651  -17.7500    0.0000 C   0  0  0  0  0  0  0  0  0  0  0  0
    4.4830  -17.6382    0.0000 C   0  0  0  0  0  0  0  0  0  0  0  0
    4.7922  -16.8798    0.0000 C   0  0  0  0  0  0  0  0  0  0  0  0
  1  2  1  0
  1  3  2  0
  2  4  1  0
  4  5  1  0
  5  6  1  0
  6  7  1  0
  6  8  2  0
  7  9  1  0
  9 10  1  0
 10 11  1  0
 11 12  2  0
 12 13  1  0
 13  9  2  0
 14 15  2  0
 15 16  1  0
 16 17  2  0
 17 18  1  0
 18 19  2  0
 19 14  1  0
 12 14  1  0
 20 21  2  0
 21 22  1  0
 22 23  2  0
 23 24  1  0
 24 25  2  0
 25 20  1  0
 10 20  1  0
 19 26  1  0
 17 27  1  0
 16 28  1  0
  1 29  1  0
 29 38  1  0
 29 33  1  0
 39 30  1  0
 30 31  1  0
 32 31  1  0
 32 33  2  0
 33 34  1  0
 34 35  2  0
 35 36  1  0
 36 37  2  0
 37 32  1  0
 38 39  2  0
 39 40  1  0
 40 41  2  0
 41 42  1  0
 42 43  2  0
 43 38  1  0
M  END
>  <Classification>  (973) 
1

>  <pchembl>  (973) 
6.79

>  <InChI_steorem>  (973) 
InChI=1S/C36H34N4O2S/c1-24-19-26(3)30(20-25(24)2)31-21-34(40(38-31)29-13-5-4-6-14-29)37-35(41)22-43-23-36(42)39-32-15-9-7-11-27(32)17-18-28-12-8-10-16-33(28)39/h4-16,19-21H,17-18,22-23H2,1-3H3,(H,37,41)

>  <source>  (973) 
ChEMBL28

>  <source_id>  (973) 
28

>  <optional_reference>  (973) 
10.1021/acs.jmedchem.9b00966

>  <optional_origin>  (973) 
None

>  <target>  (973) 
MDR1

$$$$

     RDKit          2D

 43 45  0  0  0  0  0  0  0  0999 V2000
   18.6881  -11.3870    0.0000 C   0  0  0  0  0  0  0  0  0  0  0  0
   18.2836  -12.0969    0.0000 C   0  0  0  0  0  0  0  0  0  0  0  0
   19.1006  -12.0922    0.0000 C   0  0  0  0  0  0  0  0  0  0  0  0
   16.3101  -12.9174    0.0000 C   0  0  0  0  0  0  0  0  0  0  0  0
   16.8853  -11.5185    0.0000 C   0  0  0  0  0  0  0  0  0  0  0  0
   16.8854  -13.4926    0.0000 C   0  0  0  0  0  0  0  0  0  0  0  0
   17.7050  -13.4926    0.0000 C   0  0  0  0  0  0  0  0  0  0  0  0
   18.2843  -12.9174    0.0000 C   0  0  0  0  0  0  0  0  0  0  0  0
   17.7050  -11.5184    0.0000 C   0  0  0  0  0  0  0  0  0  0  0  0
   13.6446  -11.9277    0.0000 C   0  0  0  0  0  0  0  0  0  0  0  0
   14.1315  -11.2690    0.0000 C   0  0  0  0  0  0  0  0  0  0  0  0
   14.1247  -12.5985    0.0000 C   0  0  0  0  0  0  0  0  0  0  0  0
   13.7205  -13.3092    0.0000 O   0  0  0  0  0  0  0  0  0  0  0  0
   12.8275  -11.9214    0.0000 C   0  0  0  0  0  0  0  0  0  0  0  0
   14.4935  -10.8143    0.0000 O   0  0  0  0  0  0  0  0  0  0  0  0
   14.9110  -12.3437    0.0000 C   0  0  0  0  0  0  0  0  0  0  0  0
   14.9111  -11.5240    0.0000 C   0  0  0  0  0  0  0  0  0  0  0  0
   15.4877  -10.9475    0.0000 C   0  0  0  0  0  0  0  0  0  0  0  0
   15.4878  -12.9204    0.0000 C   0  0  0  0  0  0  0  0  0  0  0  0
   16.8841  -12.3437    0.0000 C   0  0  0  0  0  0  0  0  0  0  0  0
   16.3074  -10.9473    0.0000 C   0  0  0  0  0  0  0  0  0  0  0  0
   13.6763  -10.8216    0.0000 C   0  0  0  0  0  0  0  0  0  0  0  0
   13.2614  -10.1176    0.0000 O   0  0  0  0  0  0  0  0  0  0  0  0
   13.2741  -11.5329    0.0000 C   0  0  0  0  0  0  0  0  0  0  0  0
   15.1749  -10.1925    0.0000 O   0  0  0  0  0  0  0  0  0  0  0  0
   16.6201  -10.1923    0.0000 C   0  0  0  0  0  0  0  0  0  0  0  0
   19.0388  -13.2312    0.0000 O   0  0  0  0  0  0  0  0  0  0  0  0
   16.5727  -14.2476    0.0000 O   0  0  0  0  0  0  0  0  0  0  0  0
   16.9846  -14.9536    0.0000 C   0  0  0  0  0  0  0  0  0  0  0  0
   16.5793  -15.6632    0.0000 C   0  0  0  0  0  0  0  0  0  0  0  0
   17.8017  -14.9498    0.0000 O   0  0  0  0  0  0  0  0  0  0  0  0
   12.9033  -13.3148    0.0000 C   0  0  0  0  0  0  0  0  0  0  0  0
   12.4995  -14.0252    0.0000 C   0  0  0  0  0  0  0  0  0  0  0  0
   12.4899  -12.6099    0.0000 O   0  0  0  0  0  0  0  0  0  0  0  0
   15.1765  -13.6760    0.0000 O   0  0  0  0  0  0  0  0  0  0  0  0
   15.1717  -14.4907    0.0000 C   0  0  0  0  0  0  0  0  0  0  0  0
   15.8770  -14.9035    0.0000 O   0  0  0  0  0  0  0  0  0  0  0  0
   14.4616  -14.8951    0.0000 C   0  0  0  0  0  0  0  0  0  0  0  0
   13.7602  -14.4817    0.0000 C   0  0  0  0  0  0  0  0  0  0  0  0
   13.0505  -14.8854    0.0000 C   0  0  0  0  0  0  0  0  0  0  0  0
   13.0452  -15.7034    0.0000 C   0  0  0  0  0  0  0  0  0  0  0  0
   13.7555  -16.1161    0.0000 C   0  0  0  0  0  0  0  0  0  0  0  0
   14.4622  -15.7100    0.0000 C   0  0  0  0  0  0  0  0  0  0  0  0
  2  1  1  0
  3  2  1  0
  4  6  1  0
  6  7  1  0
  7  8  1  0
  8  2  1  0
  2  9  1  0
  9  5  2  0
 17 11  1  0
 11 10  1  0
 10 12  1  0
 12 16  1  0
 12 13  1  0
 10 14  1  0
 17 15  1  0
 16 17  1  0
 17 18  1  0
 16 19  1  0
 19  4  1  0
  4 20  2  0
  5 21  1  0
 21 18  1  0
 15 22  1  0
 22 23  2  0
 22 24  1  0
 18 25  2  0
 21 26  1  0
  8 27  2  0
  6 28  1  0
 28 29  1  0
 29 30  1  0
 29 31  2  0
 13 32  1  0
 32 33  1  0
 32 34  2  0
 19 35  1  0
 35 36  1  0
 36 37  2  0
 36 38  1  0
 38 39  2  0
 39 40  1  0
 40 41  2  0
 41 42  1  0
 42 43  2  0
 43 38  1  0
M  END
>  <Classification>  (974) 
0

>  <pchembl>  (974) 
4.85

>  <InChI_steorem>  (974) 
InChI=1S/C33H40O10/c1-18-14-15-32(7,8)26(37)16-25(40-21(4)34)20(3)29(42-31(39)24-12-10-9-11-13-24)27-28(41-22(5)35)19(2)17-33(27,30(18)38)43-23(6)36/h9-15,18-19,25,27-29H,3,16-17H2,1-2,4-8H3

>  <source>  (974) 
ChEMBL28

>  <source_id>  (974) 
28

>  <optional_reference>  (974) 
10.1021/acs.jnatprod.8b00507

>  <optional_origin>  (974) 
None

>  <target>  (974) 
MDR1

$$$$

     RDKit          2D

 43 45  0  0  0  0  0  0  0  0999 V2000
   27.5864  -11.5108    0.0000 C   0  0  0  0  0  0  0  0  0  0  0  0
   27.1819  -12.2207    0.0000 C   0  0  0  0  0  0  0  0  0  0  0  0
   27.9989  -12.2161    0.0000 C   0  0  0  0  0  0  0  0  0  0  0  0
   25.2085  -13.0412    0.0000 C   0  0  0  0  0  0  0  0  0  0  0  0
   25.7836  -11.6424    0.0000 C   0  0  0  0  0  0  0  0  0  0  0  0
   25.7837  -13.6164    0.0000 C   0  0  0  0  0  0  0  0  0  0  0  0
   26.6033  -13.6164    0.0000 C   0  0  0  0  0  0  0  0  0  0  0  0
   27.1826  -13.0412    0.0000 C   0  0  0  0  0  0  0  0  0  0  0  0
   26.6033  -11.6423    0.0000 C   0  0  0  0  0  0  0  0  0  0  0  0
   22.5429  -12.0515    0.0000 C   0  0  0  0  0  0  0  0  0  0  0  0
   23.0298  -11.3928    0.0000 C   0  0  0  0  0  0  0  0  0  0  0  0
   23.0231  -12.7224    0.0000 C   0  0  0  0  0  0  0  0  0  0  0  0
   22.6188  -13.4330    0.0000 O   0  0  0  0  0  0  0  0  0  0  0  0
   21.7258  -12.0452    0.0000 C   0  0  0  0  0  0  0  0  0  0  0  0
   23.3918  -10.9381    0.0000 O   0  0  0  0  0  0  0  0  0  0  0  0
   23.8093  -12.4675    0.0000 C   0  0  0  0  0  0  0  0  0  0  0  0
   23.8094  -11.6479    0.0000 C   0  0  0  0  0  0  0  0  0  0  0  0
   24.3860  -11.0713    0.0000 C   0  0  0  0  0  0  0  0  0  0  0  0
   24.3861  -13.0442    0.0000 C   0  0  0  0  0  0  0  0  0  0  0  0
   25.7824  -12.4675    0.0000 C   0  0  0  0  0  0  0  0  0  0  0  0
   25.2057  -11.0712    0.0000 C   0  0  0  0  0  0  0  0  0  0  0  0
   22.5747  -10.9454    0.0000 C   0  0  0  0  0  0  0  0  0  0  0  0
   22.1597  -10.2414    0.0000 O   0  0  0  0  0  0  0  0  0  0  0  0
   22.1724  -11.6567    0.0000 C   0  0  0  0  0  0  0  0  0  0  0  0
   24.0732  -10.3163    0.0000 O   0  0  0  0  0  0  0  0  0  0  0  0
   25.5184  -10.3162    0.0000 C   0  0  0  0  0  0  0  0  0  0  0  0
   27.9371  -13.3550    0.0000 O   0  0  0  0  0  0  0  0  0  0  0  0
   25.4710  -14.3714    0.0000 O   0  0  0  0  0  0  0  0  0  0  0  0
   25.8829  -15.0774    0.0000 C   0  0  0  0  0  0  0  0  0  0  0  0
   25.4776  -15.7870    0.0000 C   0  0  0  0  0  0  0  0  0  0  0  0
   26.7000  -15.0736    0.0000 O   0  0  0  0  0  0  0  0  0  0  0  0
   21.8016  -13.4386    0.0000 C   0  0  0  0  0  0  0  0  0  0  0  0
   21.3978  -14.1491    0.0000 C   0  0  0  0  0  0  0  0  0  0  0  0
   21.3882  -12.7337    0.0000 O   0  0  0  0  0  0  0  0  0  0  0  0
   24.0748  -13.7998    0.0000 O   0  0  0  0  0  0  0  0  0  0  0  0
   24.0700  -14.6145    0.0000 C   0  0  0  0  0  0  0  0  0  0  0  0
   24.7753  -15.0273    0.0000 O   0  0  0  0  0  0  0  0  0  0  0  0
   23.3599  -15.0189    0.0000 C   0  0  0  0  0  0  0  0  0  0  0  0
   20.5805  -14.1496    0.0000 C   0  0  0  0  0  0  0  0  0  0  0  0
   20.1768  -14.8592    0.0000 C   0  0  0  0  0  0  0  0  0  0  0  0
   20.5902  -15.5651    0.0000 C   0  0  0  0  0  0  0  0  0  0  0  0
   21.4116  -15.5569    0.0000 C   0  0  0  0  0  0  0  0  0  0  0  0
   21.8116  -14.8467    0.0000 C   0  0  0  0  0  0  0  0  0  0  0  0
  2  1  1  0
  3  2  1  0
  4  6  1  0
  6  7  1  0
  7  8  1  0
  8  2  1  0
  2  9  1  0
  9  5  2  0
 17 11  1  0
 11 10  1  0
 10 12  1  0
 12 16  1  0
 12 13  1  0
 10 14  1  0
 17 15  1  0
 16 17  1  0
 17 18  1  0
 16 19  1  0
 19  4  1  0
  4 20  2  0
  5 21  1  0
 21 18  1  0
 15 22  1  0
 22 23  2  0
 22 24  1  0
 18 25  2  0
 21 26  1  0
  8 27  2  0
  6 28  1  0
 28 29  1  0
 29 30  1  0
 29 31  2  0
 13 32  1  0
 32 33  1  0
 32 34  2  0
 19 35  1  0
 35 36  1  0
 36 37  2  0
 36 38  1  0
 33 39  2  0
 39 40  1  0
 40 41  2  0
 41 42  1  0
 42 43  2  0
 43 33  1  0
M  END
>  <Classification>  (975) 
0

>  <pchembl>  (975) 
4.88

>  <InChI_steorem>  (975) 
InChI=1S/C33H40O10/c1-18-14-15-32(7,8)26(37)16-25(40-21(4)34)20(3)29(41-22(5)35)27-28(42-31(39)24-12-10-9-11-13-24)19(2)17-33(27,30(18)38)43-23(6)36/h9-15,18-19,25,27-29H,3,16-17H2,1-2,4-8H3

>  <source>  (975) 
ChEMBL28

>  <source_id>  (975) 
28

>  <optional_reference>  (975) 
10.1021/acs.jnatprod.8b00507

>  <optional_origin>  (975) 
None

>  <target>  (975) 
MDR1

$$$$

     RDKit          2D

 44 46  0  0  0  0  0  0  0  0999 V2000
   16.9134   -2.4598    0.0000 C   0  0  0  0  0  0  0  0  0  0  0  0
   16.5089   -3.1697    0.0000 C   0  0  0  0  0  0  0  0  0  0  0  0
   17.3259   -3.1650    0.0000 C   0  0  0  0  0  0  0  0  0  0  0  0
   14.5354   -3.9902    0.0000 C   0  0  0  0  0  0  0  0  0  0  0  0
   15.1106   -2.5913    0.0000 C   0  0  0  0  0  0  0  0  0  0  0  0
   15.1107   -4.5654    0.0000 C   0  0  0  0  0  0  0  0  0  0  0  0
   15.9303   -4.5654    0.0000 C   0  0  0  0  0  0  0  0  0  0  0  0
   16.5096   -3.9902    0.0000 C   0  0  0  0  0  0  0  0  0  0  0  0
   15.9303   -2.5912    0.0000 C   0  0  0  0  0  0  0  0  0  0  0  0
   11.8699   -3.0005    0.0000 C   0  0  0  0  0  0  0  0  0  0  0  0
   12.3568   -2.3418    0.0000 C   0  0  0  0  0  0  0  0  0  0  0  0
   12.3500   -3.6713    0.0000 C   0  0  0  0  0  0  0  0  0  0  0  0
   12.0931   -4.4474    0.0000 O   0  0  0  0  0  0  0  0  0  0  0  0
   11.0527   -2.9942    0.0000 C   0  0  0  0  0  0  0  0  0  0  0  0
   12.7188   -1.8871    0.0000 O   0  0  0  0  0  0  0  0  0  0  0  0
   13.1363   -3.4165    0.0000 C   0  0  0  0  0  0  0  0  0  0  0  0
   13.1364   -2.5969    0.0000 C   0  0  0  0  0  0  0  0  0  0  0  0
   13.7130   -2.0203    0.0000 C   0  0  0  0  0  0  0  0  0  0  0  0
   13.7131   -3.9932    0.0000 C   0  0  0  0  0  0  0  0  0  0  0  0
   15.1094   -3.4165    0.0000 C   0  0  0  0  0  0  0  0  0  0  0  0
   14.5326   -2.0201    0.0000 C   0  0  0  0  0  0  0  0  0  0  0  0
   11.9016   -1.8944    0.0000 C   0  0  0  0  0  0  0  0  0  0  0  0
   11.4867   -1.1904    0.0000 O   0  0  0  0  0  0  0  0  0  0  0  0
   11.4994   -2.6057    0.0000 C   0  0  0  0  0  0  0  0  0  0  0  0
   13.4002   -1.2653    0.0000 O   0  0  0  0  0  0  0  0  0  0  0  0
   14.8453   -1.2651    0.0000 C   0  0  0  0  0  0  0  0  0  0  0  0
   17.2641   -4.3040    0.0000 O   0  0  0  0  0  0  0  0  0  0  0  0
   14.7980   -5.3206    0.0000 O   0  0  0  0  0  0  0  0  0  0  0  0
   15.2114   -6.0255    0.0000 C   0  0  0  0  0  0  0  0  0  0  0  0
   14.8078   -6.7360    0.0000 C   0  0  0  0  0  0  0  0  0  0  0  0
   16.0286   -6.0198    0.0000 O   0  0  0  0  0  0  0  0  0  0  0  0
   16.2417   -5.3209    0.0000 O   0  0  0  0  0  0  0  0  0  0  0  0
   11.2760   -4.4561    0.0000 C   0  0  0  0  0  0  0  0  0  0  0  0
   10.8750   -5.1682    0.0000 C   0  0  0  0  0  0  0  0  0  0  0  0
   10.8598   -3.7529    0.0000 O   0  0  0  0  0  0  0  0  0  0  0  0
   13.4018   -4.7488    0.0000 O   0  0  0  0  0  0  0  0  0  0  0  0
   13.3970   -5.5635    0.0000 C   0  0  0  0  0  0  0  0  0  0  0  0
   14.1023   -5.9763    0.0000 O   0  0  0  0  0  0  0  0  0  0  0  0
   12.6869   -5.9679    0.0000 C   0  0  0  0  0  0  0  0  0  0  0  0
   11.9854   -5.5545    0.0000 C   0  0  0  0  0  0  0  0  0  0  0  0
   11.2758   -5.9582    0.0000 C   0  0  0  0  0  0  0  0  0  0  0  0
   11.2705   -6.7762    0.0000 C   0  0  0  0  0  0  0  0  0  0  0  0
   11.9808   -7.1889    0.0000 C   0  0  0  0  0  0  0  0  0  0  0  0
   12.6875   -6.7828    0.0000 C   0  0  0  0  0  0  0  0  0  0  0  0
  2  1  1  0
  3  2  1  0
  4  6  1  0
  6  7  1  0
  7  8  1  0
  8  2  1  0
  2  9  1  0
  9  5  2  0
 17 11  1  0
 11 10  1  0
 10 12  1  0
 12 16  1  0
 12 13  1  0
 10 14  1  0
 17 15  1  0
 16 17  1  0
 17 18  1  0
 16 19  1  0
 19  4  1  0
  4 20  2  0
  5 21  1  0
 21 18  1  0
 15 22  1  0
 22 23  2  0
 22 24  1  0
 18 25  2  0
 21 26  1  0
  8 27  2  0
  6 28  1  0
 28 29  1  0
 29 30  1  0
 29 31  2  0
  7 32  1  0
 13 33  1  0
 33 34  1  0
 33 35  2  0
 19 36  1  0
 36 37  1  0
 37 38  2  0
 37 39  1  0
 39 40  2  0
 40 41  1  0
 41 42  2  0
 42 43  1  0
 43 44  2  0
 44 39  1  0
M  END
>  <Classification>  (976) 
0

>  <pchembl>  (976) 
4.67

>  <InChI_steorem>  (976) 
InChI=1S/C33H40O11/c1-17-14-15-32(7,8)30(39)25(37)28(42-21(5)35)19(3)27(43-31(40)23-12-10-9-11-13-23)24-26(41-20(4)34)18(2)16-33(24,29(17)38)44-22(6)36/h9-15,17-18,24-28,37H,3,16H2,1-2,4-8H3

>  <source>  (976) 
ChEMBL28

>  <source_id>  (976) 
28

>  <optional_reference>  (976) 
10.1021/acs.jnatprod.8b00507

>  <optional_origin>  (976) 
None

>  <target>  (976) 
MDR1

$$$$

     RDKit          2D

 44 46  0  0  0  0  0  0  0  0999 V2000
   26.0841   -2.5217    0.0000 C   0  0  0  0  0  0  0  0  0  0  0  0
   25.6796   -3.2316    0.0000 C   0  0  0  0  0  0  0  0  0  0  0  0
   26.4966   -3.2270    0.0000 C   0  0  0  0  0  0  0  0  0  0  0  0
   23.7061   -4.0521    0.0000 C   0  0  0  0  0  0  0  0  0  0  0  0
   24.2813   -2.6532    0.0000 C   0  0  0  0  0  0  0  0  0  0  0  0
   24.2814   -4.6273    0.0000 C   0  0  0  0  0  0  0  0  0  0  0  0
   25.1010   -4.6273    0.0000 C   0  0  0  0  0  0  0  0  0  0  0  0
   25.6803   -4.0521    0.0000 C   0  0  0  0  0  0  0  0  0  0  0  0
   25.1010   -2.6531    0.0000 C   0  0  0  0  0  0  0  0  0  0  0  0
   21.0406   -3.0624    0.0000 C   0  0  0  0  0  0  0  0  0  0  0  0
   21.5275   -2.4037    0.0000 C   0  0  0  0  0  0  0  0  0  0  0  0
   21.5207   -3.7333    0.0000 C   0  0  0  0  0  0  0  0  0  0  0  0
   21.1165   -4.4439    0.0000 O   0  0  0  0  0  0  0  0  0  0  0  0
   20.2234   -3.0561    0.0000 C   0  0  0  0  0  0  0  0  0  0  0  0
   21.8895   -1.9490    0.0000 O   0  0  0  0  0  0  0  0  0  0  0  0
   22.3070   -3.4784    0.0000 C   0  0  0  0  0  0  0  0  0  0  0  0
   22.3071   -2.6588    0.0000 C   0  0  0  0  0  0  0  0  0  0  0  0
   22.8837   -2.0822    0.0000 C   0  0  0  0  0  0  0  0  0  0  0  0
   22.8838   -4.0551    0.0000 C   0  0  0  0  0  0  0  0  0  0  0  0
   24.2801   -3.4784    0.0000 C   0  0  0  0  0  0  0  0  0  0  0  0
   23.7033   -2.0821    0.0000 C   0  0  0  0  0  0  0  0  0  0  0  0
   21.0723   -1.9563    0.0000 C   0  0  0  0  0  0  0  0  0  0  0  0
   20.6574   -1.2523    0.0000 O   0  0  0  0  0  0  0  0  0  0  0  0
   20.6701   -2.6676    0.0000 C   0  0  0  0  0  0  0  0  0  0  0  0
   22.5709   -1.3272    0.0000 O   0  0  0  0  0  0  0  0  0  0  0  0
   24.0160   -1.3271    0.0000 C   0  0  0  0  0  0  0  0  0  0  0  0
   26.4348   -4.3659    0.0000 O   0  0  0  0  0  0  0  0  0  0  0  0
   23.9687   -5.3823    0.0000 O   0  0  0  0  0  0  0  0  0  0  0  0
   24.3806   -6.0883    0.0000 C   0  0  0  0  0  0  0  0  0  0  0  0
   23.9753   -6.7979    0.0000 C   0  0  0  0  0  0  0  0  0  0  0  0
   25.1977   -6.0845    0.0000 O   0  0  0  0  0  0  0  0  0  0  0  0
   25.5198   -5.3285    0.0000 O   0  0  0  0  0  0  0  0  0  0  0  0
   20.2993   -4.4495    0.0000 C   0  0  0  0  0  0  0  0  0  0  0  0
   19.8955   -5.1600    0.0000 C   0  0  0  0  0  0  0  0  0  0  0  0
   19.8859   -3.7446    0.0000 O   0  0  0  0  0  0  0  0  0  0  0  0
   19.0802   -5.1620    0.0000 C   0  0  0  0  0  0  0  0  0  0  0  0
   18.6765   -5.8717    0.0000 C   0  0  0  0  0  0  0  0  0  0  0  0
   19.0900   -6.5776    0.0000 C   0  0  0  0  0  0  0  0  0  0  0  0
   19.9113   -6.5694    0.0000 C   0  0  0  0  0  0  0  0  0  0  0  0
   20.3113   -5.8592    0.0000 C   0  0  0  0  0  0  0  0  0  0  0  0
   22.5725   -4.8107    0.0000 O   0  0  0  0  0  0  0  0  0  0  0  0
   22.5677   -5.6254    0.0000 C   0  0  0  0  0  0  0  0  0  0  0  0
   23.2730   -6.0382    0.0000 O   0  0  0  0  0  0  0  0  0  0  0  0
   21.8576   -6.0298    0.0000 C   0  0  0  0  0  0  0  0  0  0  0  0
  2  1  1  0
  3  2  1  0
  4  6  1  0
  6  7  1  0
  7  8  1  0
  8  2  1  0
  2  9  1  0
  9  5  2  0
 17 11  1  0
 11 10  1  0
 10 12  1  0
 12 16  1  0
 12 13  1  0
 10 14  1  0
 17 15  1  0
 16 17  1  0
 17 18  1  0
 16 19  1  0
 19  4  1  0
  4 20  2  0
  5 21  1  0
 21 18  1  0
 15 22  1  0
 22 23  2  0
 22 24  1  0
 18 25  2  0
 21 26  1  0
  8 27  2  0
  6 28  1  0
 28 29  1  0
 29 30  1  0
 29 31  2  0
  7 32  1  0
 13 33  1  0
 33 34  1  0
 33 35  2  0
 34 36  2  0
 36 37  1  0
 37 38  2  0
 38 39  1  0
 39 40  2  0
 40 34  1  0
 19 41  1  0
 41 42  1  0
 42 43  2  0
 42 44  1  0
M  END
>  <Classification>  (977) 
0

>  <pchembl>  (977) 
4.88

>  <InChI_steorem>  (977) 
InChI=1S/C33H40O11/c1-17-14-15-32(7,8)30(39)25(37)28(42-21(5)35)19(3)27(41-20(4)34)24-26(43-31(40)23-12-10-9-11-13-23)18(2)16-33(24,29(17)38)44-22(6)36/h9-15,17-18,24-28,37H,3,16H2,1-2,4-8H3

>  <source>  (977) 
ChEMBL28

>  <source_id>  (977) 
28

>  <optional_reference>  (977) 
10.1021/acs.jnatprod.8b00507

>  <optional_origin>  (977) 
None

>  <target>  (977) 
MDR1

$$$$

     RDKit          2D

 45 48  0  0  0  0  0  0  0  0999 V2000
    5.6694  -19.0471    0.0000 C   0  0  0  0  0  0  0  0  0  0  0  0
    5.6682  -19.8667    0.0000 C   0  0  0  0  0  0  0  0  0  0  0  0
    6.3763  -20.2756    0.0000 C   0  0  0  0  0  0  0  0  0  0  0  0
    6.3745  -18.6383    0.0000 C   0  0  0  0  0  0  0  0  0  0  0  0
    7.0831  -19.0435    0.0000 C   0  0  0  0  0  0  0  0  0  0  0  0
    7.0820  -19.8642    0.0000 C   0  0  0  0  0  0  0  0  0  0  0  0
    7.7882  -20.2732    0.0000 C   0  0  0  0  0  0  0  0  0  0  0  0
    8.5000  -19.8662    0.0000 C   0  0  0  0  0  0  0  0  0  0  0  0
    8.5012  -19.0455    0.0000 C   0  0  0  0  0  0  0  0  0  0  0  0
    7.7905  -18.6319    0.0000 O   0  0  0  0  0  0  0  0  0  0  0  0
    4.9616  -18.6387    0.0000 O   0  0  0  0  0  0  0  0  0  0  0  0
    6.3780  -21.0928    0.0000 O   0  0  0  0  0  0  0  0  0  0  0  0
    5.6711  -21.5029    0.0000 C   0  0  0  0  0  0  0  0  0  0  0  0
    5.6728  -22.3200    0.0000 C   0  0  0  0  0  0  0  0  0  0  0  0
    9.2066  -20.2767    0.0000 O   0  0  0  0  0  0  0  0  0  0  0  0
    9.2043  -21.0939    0.0000 C   0  0  0  0  0  0  0  0  0  0  0  0
    9.9109  -21.5045    0.0000 C   0  0  0  0  0  0  0  0  0  0  0  0
    8.4955  -21.5005    0.0000 O   0  0  0  0  0  0  0  0  0  0  0  0
    9.2081  -18.6416    0.0000 C   0  0  0  0  0  0  0  0  0  0  0  0
    9.9151  -19.0536    0.0000 C   0  0  0  0  0  0  0  0  0  0  0  0
   10.6233  -18.6474    0.0000 C   0  0  0  0  0  0  0  0  0  0  0  0
   10.6257  -17.8293    0.0000 C   0  0  0  0  0  0  0  0  0  0  0  0
    9.9140  -17.4192    0.0000 C   0  0  0  0  0  0  0  0  0  0  0  0
    9.2087  -17.8277    0.0000 C   0  0  0  0  0  0  0  0  0  0  0  0
    9.9131  -16.6020    0.0000 O   0  0  0  0  0  0  0  0  0  0  0  0
   10.6203  -16.1926    0.0000 C   0  0  0  0  0  0  0  0  0  0  0  0
   10.6194  -15.3754    0.0000 C   0  0  0  0  0  0  0  0  0  0  0  0
   11.3338  -17.4215    0.0000 O   0  0  0  0  0  0  0  0  0  0  0  0
   12.0411  -17.8309    0.0000 C   0  0  0  0  0  0  0  0  0  0  0  0
   12.7493  -17.4231    0.0000 C   0  0  0  0  0  0  0  0  0  0  0  0
   11.3298  -19.0580    0.0000 O   0  0  0  0  0  0  0  0  0  0  0  0
    9.9044  -22.3211    0.0000 C   0  0  0  0  0  0  0  0  0  0  0  0
   10.6102  -22.7316    0.0000 C   0  0  0  0  0  0  0  0  0  0  0  0
   11.3200  -22.3249    0.0000 C   0  0  0  0  0  0  0  0  0  0  0  0
   11.3197  -21.5035    0.0000 C   0  0  0  0  0  0  0  0  0  0  0  0
   10.6133  -21.0967    0.0000 C   0  0  0  0  0  0  0  0  0  0  0  0
   12.0271  -22.7346    0.0000 O   0  0  0  0  0  0  0  0  0  0  0  0
   12.0259  -23.5517    0.0000 C   0  0  0  0  0  0  0  0  0  0  0  0
   12.7330  -23.9614    0.0000 C   0  0  0  0  0  0  0  0  0  0  0  0
   12.0271  -21.0944    0.0000 O   0  0  0  0  0  0  0  0  0  0  0  0
   12.7351  -21.5025    0.0000 C   0  0  0  0  0  0  0  0  0  0  0  0
   13.4425  -21.0933    0.0000 C   0  0  0  0  0  0  0  0  0  0  0  0
   10.6075  -23.5488    0.0000 O   0  0  0  0  0  0  0  0  0  0  0  0
    9.8985  -23.9551    0.0000 C   0  0  0  0  0  0  0  0  0  0  0  0
    9.8958  -24.7722    0.0000 C   0  0  0  0  0  0  0  0  0  0  0  0
  1  2  2  0
  2  3  1  0
  3  6  2  0
  5  4  2  0
  4  1  1  0
  5  6  1  0
  5 10  1  0
  6  7  1  0
  7  8  1  0
  8  9  1  0
  9 10  1  0
  1 11  1  0
  3 12  1  0
 12 13  1  0
 13 14  1  0
  8 15  1  0
 15 16  1  0
 16 17  1  0
 16 18  2  0
 19 20  2  0
 20 21  1  0
 21 22  2  0
 22 23  1  0
 23 24  2  0
 24 19  1  0
  9 19  1  0
 23 25  1  0
 25 26  1  0
 26 27  1  0
 22 28  1  0
 28 29  1  0
 29 30  1  0
 21 31  1  0
 17 32  2  0
 32 33  1  0
 33 34  2  0
 34 35  1  0
 35 36  2  0
 36 17  1  0
 34 37  1  0
 37 38  1  0
 38 39  1  0
 35 40  1  0
 40 41  1  0
 41 42  1  0
 33 43  1  0
 43 44  1  0
 44 45  1  0
M  END
>  <Classification>  (978) 
1

>  <pchembl>  (978) 
6.21

>  <InChI_steorem>  (978) 
InChI=1S/C34H42O11/c1-7-38-25-17-22(35)18-26-23(25)19-30(31(44-26)20-13-24(36)32(42-11-5)27(14-20)39-8-2)45-34(37)21-15-28(40-9-3)33(43-12-6)29(16-21)41-10-4/h13-18,30-31,35-36H,7-12,19H2,1-6H3

>  <source>  (978) 
ChEMBL28

>  <source_id>  (978) 
28

>  <optional_reference>  (978) 
10.1016/j.ejmech.2019.05.027

>  <optional_origin>  (978) 
None

>  <target>  (978) 
MDR1

$$$$

     RDKit          2D

 43 48  0  0  0  0  0  0  0  0999 V2000
   18.2712   -4.9197    0.0000 C   0  0  0  0  0  0  0  0  0  0  0  0
   18.2836   -4.1025    0.0000 C   0  0  0  0  0  0  0  0  0  0  0  0
   17.5655   -5.3241    0.0000 C   0  0  0  0  0  0  0  0  0  0  0  0
   19.7034   -4.1148    0.0000 C   0  0  0  0  0  0  0  0  0  0  0  0
   16.1540   -5.3241    0.0000 C   0  0  0  0  0  0  0  0  0  0  0  0
   18.9894   -3.6939    0.0000 C   0  0  0  0  0  0  0  0  0  0  0  0
   16.8597   -4.9073    0.0000 C   0  0  0  0  0  0  0  0  0  0  0  0
   16.1540   -6.1413    0.0000 C   0  0  0  0  0  0  0  0  0  0  0  0
   15.4482   -6.5417    0.0000 C   0  0  0  0  0  0  0  0  0  0  0  0
   20.4009   -4.5234    0.0000 C   0  0  0  0  0  0  0  0  0  0  0  0
   21.1149   -4.1148    0.0000 O   0  0  0  0  0  0  0  0  0  0  0  0
   17.5737   -3.6815    0.0000 C   0  0  0  0  0  0  0  0  0  0  0  0
   18.9770   -5.3406    0.0000 C   0  0  0  0  0  0  0  0  0  0  0  0
   17.5655   -6.1331    0.0000 C   0  0  0  0  0  0  0  0  0  0  0  0
   16.8597   -4.0901    0.0000 C   0  0  0  0  0  0  0  0  0  0  0  0
   19.6910   -4.9403    0.0000 C   0  0  0  0  0  0  0  0  0  0  0  0
   15.4482   -4.9073    0.0000 C   0  0  0  0  0  0  0  0  0  0  0  0
   16.8597   -6.5417    0.0000 C   0  0  0  0  0  0  0  0  0  0  0  0
   20.4215   -3.7186    0.0000 C   0  0  0  0  0  0  0  0  0  0  0  0
   19.0018   -2.8726    0.0000 C   0  0  0  0  0  0  0  0  0  0  0  0
   20.4091   -5.3406    0.0000 O   0  0  0  0  0  0  0  0  0  0  0  0
   19.7199   -2.4681    0.0000 C   0  0  0  0  0  0  0  0  0  0  0  0
   20.4380   -2.8891    0.0000 C   0  0  0  0  0  0  0  0  0  0  0  0
   15.0355   -7.2474    0.0000 C   0  0  0  0  0  0  0  0  0  0  0  0
   18.2589   -5.7368    0.0000 C   0  0  0  0  0  0  0  0  0  0  0  0
   17.5531   -4.5069    0.0000 C   0  0  0  0  0  0  0  0  0  0  0  0
   16.1416   -4.5069    0.0000 C   0  0  0  0  0  0  0  0  0  0  0  0
   15.8444   -7.2474    0.0000 C   0  0  0  0  0  0  0  0  0  0  0  0
   19.3113   -1.7665    0.0000 C   0  0  0  0  0  0  0  0  0  0  0  0
   20.1285   -1.7665    0.0000 C   0  0  0  0  0  0  0  0  0  0  0  0
   15.4401   -7.9574    0.0000 O   0  0  0  0  0  0  0  0  0  0  0  0
   14.7425   -6.1413    0.0000 C   0  0  0  0  0  0  0  0  0  0  0  0
   14.7450   -5.3259    0.0000 C   0  0  0  0  0  0  0  0  0  0  0  0
   14.0413   -4.9178    0.0000 N   0  0  0  0  0  0  0  0  0  0  0  0
   13.3345   -5.3240    0.0000 C   0  0  0  0  0  0  0  0  0  0  0  0
   13.3359   -6.1425    0.0000 C   0  0  0  0  0  0  0  0  0  0  0  0
   14.0402   -6.5469    0.0000 N   0  0  0  0  0  0  0  0  0  0  0  0
   21.8210   -4.5262    0.0000 C   0  0  0  0  0  0  0  0  0  0  0  0
   21.8179   -5.3433    0.0000 C   0  0  0  0  0  0  0  0  0  0  0  0
   22.5240   -5.7546    0.0000 C   0  0  0  0  0  0  0  0  0  0  0  0
   22.5209   -6.5718    0.0000 N   0  0  0  0  0  0  0  0  0  0  0  0
   23.2271   -6.9831    0.0000 C   0  0  0  0  0  0  0  0  0  0  0  0
   21.8116   -6.9777    0.0000 C   0  0  0  0  0  0  0  0  0  0  0  0
  2  1  1  0
  3  1  1  0
  4 16  1  0
  5  7  1  0
  6  2  1  0
  7  3  1  0
  8 18  1  0
  9  8  1  0
  4 10  1  0
 11 10  1  0
 12  2  2  0
 32  9  1  0
 13  1  1  0
 14  3  1  0
 15  7  1  0
 16 13  1  0
 17  5  1  0
 18 14  1  0
 19  4  1  0
 20  6  1  0
 21 10  2  0
 22 20  1  0
 33 17  1  0
 23 19  1  0
 24  9  1  0
  1 25  1  0
  3 26  1  0
  5 27  1  0
  9 28  1  0
 29 22  1  0
 30 22  1  0
  6  4  1  0
 12 15  1  0
  5  8  1  0
 23 22  1  0
 24 31  1  0
 32 33  2  0
 33 34  1  0
 34 35  2  0
 35 36  1  0
 36 37  2  0
 37 32  1  0
 11 38  1  0
 38 39  1  0
 39 40  1  0
 40 41  1  0
 41 42  1  0
 41 43  1  0
M  END
>  <Classification>  (979) 
1

>  <pchembl>  (979) 
5.8

>  <InChI_steorem>  (979) 
InChI=1S/C37H57N3O3/c1-32(2)14-16-37(31(42)43-21-9-20-40(7)8)17-15-35(5)25(26(37)22-32)10-11-29-33(3)23-27-30(39-19-18-38-27)34(4,24-41)28(33)12-13-36(29,35)6/h10,18-19,26,28-29,41H,9,11-17,20-24H2,1-8H3

>  <source>  (979) 
ChEMBL28

>  <source_id>  (979) 
28

>  <optional_reference>  (979) 
10.1016/j.ejmech.2018.10.033

>  <optional_origin>  (979) 
None

>  <target>  (979) 
MDR1

$$$$

     RDKit          2D

 44 48  0  0  0  0  0  0  0  0999 V2000
   30.5869  -13.9335    0.0000 C   0  0  0  0  0  0  0  0  0  0  0  0
   29.8729  -14.3339    0.0000 C   0  0  0  0  0  0  0  0  0  0  0  0
   28.4572  -14.3339    0.0000 C   0  0  0  0  0  0  0  0  0  0  0  0
   30.5910  -13.1163    0.0000 C   0  0  0  0  0  0  0  0  0  0  0  0
   31.3711  -12.8646    0.0000 C   0  0  0  0  0  0  0  0  0  0  0  0
   29.1630  -13.9211    0.0000 C   0  0  0  0  0  0  0  0  0  0  0  0
   28.4572  -15.1552    0.0000 C   0  0  0  0  0  0  0  0  0  0  0  0
   31.8457  -13.5332    0.0000 C   0  0  0  0  0  0  0  0  0  0  0  0
   31.7879  -12.1588    0.0000 C   0  0  0  0  0  0  0  0  0  0  0  0
   31.3587  -14.1894    0.0000 C   0  0  0  0  0  0  0  0  0  0  0  0
   29.1671  -13.0998    0.0000 C   0  0  0  0  0  0  0  0  0  0  0  0
   29.8894  -12.6954    0.0000 C   0  0  0  0  0  0  0  0  0  0  0  0
   29.8729  -15.1552    0.0000 C   0  0  0  0  0  0  0  0  0  0  0  0
   32.6092  -12.1629    0.0000 C   0  0  0  0  0  0  0  0  0  0  0  0
   27.7474  -15.5679    0.0000 C   0  0  0  0  0  0  0  0  0  0  0  0
   27.7474  -13.9253    0.0000 C   0  0  0  0  0  0  0  0  0  0  0  0
   29.1630  -15.5638    0.0000 C   0  0  0  0  0  0  0  0  0  0  0  0
   32.6670  -13.5373    0.0000 O   0  0  0  0  0  0  0  0  0  0  0  0
   33.0756  -14.2513    0.0000 C   0  0  0  0  0  0  0  0  0  0  0  0
   27.0333  -15.1552    0.0000 C   0  0  0  0  0  0  0  0  0  0  0  0
   33.0137  -12.8770    0.0000 O   0  0  0  0  0  0  0  0  0  0  0  0
   27.0333  -14.3339    0.0000 C   0  0  0  0  0  0  0  0  0  0  0  0
   32.6546  -14.9612    0.0000 O   0  0  0  0  0  0  0  0  0  0  0  0
   31.8086   -9.3152    0.0000 C   0  0  0  0  0  0  0  0  0  0  0  0
   31.3917  -10.0209    0.0000 C   0  0  0  0  0  0  0  0  0  0  0  0
   30.5786  -14.7548    0.0000 C   0  0  0  0  0  0  0  0  0  0  0  0
   29.8688  -13.5125    0.0000 C   0  0  0  0  0  0  0  0  0  0  0  0
   28.4531  -13.5125    0.0000 C   0  0  0  0  0  0  0  0  0  0  0  0
   28.4614  -12.6830    0.0000 O   0  0  0  0  0  0  0  0  0  0  0  0
   33.0220  -11.4572    0.0000 O   0  0  0  0  0  0  0  0  0  0  0  0
   31.3793  -11.4448    0.0000 C   0  0  0  0  0  0  0  0  0  0  0  0
   31.8003  -10.7390    0.0000 C   0  0  0  0  0  0  0  0  0  0  0  0
   26.3235  -15.5638    0.0000 O   0  0  0  0  0  0  0  0  0  0  0  0
   27.7474  -16.3892    0.0000 C   0  0  0  0  0  0  0  0  0  0  0  0
   33.8969  -14.2596    0.0000 C   0  0  0  0  0  0  0  0  0  0  0  0
   32.6299   -9.3193    0.0000 C   0  0  0  0  0  0  0  0  0  0  0  0
   31.4041   -8.5970    0.0000 C   0  0  0  0  0  0  0  0  0  0  0  0
   33.8391  -11.4617    0.0000 C   0  0  0  0  0  0  0  0  0  0  0  0
   34.2517  -10.7563    0.0000 C   0  0  0  0  0  0  0  0  0  0  0  0
   35.0691  -10.7634    0.0000 C   0  0  0  0  0  0  0  0  0  0  0  0
   35.4816  -10.0588    0.0000 C   0  0  0  0  0  0  0  0  0  0  0  0
   35.0769   -9.3479    0.0000 C   0  0  0  0  0  0  0  0  0  0  0  0
   34.2555   -9.3459    0.0000 C   0  0  0  0  0  0  0  0  0  0  0  0
   33.8467  -10.0511    0.0000 C   0  0  0  0  0  0  0  0  0  0  0  0
  2  1  1  0
  3  6  1  0
  4  1  1  0
  5  4  1  0
  6  2  1  0
  7  3  1  0
  8 10  1  0
  9  5  2  3
 10  1  1  0
 11 12  1  0
 12  4  1  0
 13  2  1  0
 14  9  1  0
 15  7  1  0
 16  3  1  0
 17 13  1  0
  8 18  1  0
 19 18  1  0
 20 22  1  0
 21 14  2  0
 22 16  1  0
 23 19  2  0
 24 25  2  3
 25 32  1  0
  1 26  1  0
  2 27  1  0
  3 28  1  0
 11 29  1  0
 30 14  1  0
 31  9  1  0
 32 31  1  0
 20 33  1  0
 15 34  1  0
 35 19  1  0
 36 24  1  0
 37 24  1  0
  5  8  1  0
 11  6  1  0
 17  7  1  0
 15 20  1  0
 30 38  1  0
 38 39  1  0
 39 40  2  0
 40 41  1  0
 41 42  2  0
 42 43  1  0
 43 44  2  0
 44 39  1  0
M  END
>  <Classification>  (980) 
1

>  <pchembl>  (980) 
7.77

>  <InChI_steorem>  (980) 
InChI=1S/C38H54O6/c1-23(2)12-11-15-27(35(42)43-22-26-13-9-8-10-14-26)33-29-20-31(41)34-36(5)18-17-30(40)24(3)28(36)16-19-37(34,6)38(29,7)21-32(33)44-25(4)39/h8-10,12-14,24,28-32,34,40-41H,11,15-22H2,1-7H3

>  <source>  (980) 
ChEMBL28

>  <source_id>  (980) 
28

>  <optional_reference>  (980) 
10.1016/j.ejmech.2019.111668

>  <optional_origin>  (980) 
None

>  <target>  (980) 
MDR1

$$$$

     RDKit          2D

 44 50  0  0  0  0  0  0  0  0999 V2000
    6.1867   -4.3253    0.0000 C   0  0  0  0  0  0  0  0  0  0  0  0
    6.1908   -3.5081    0.0000 C   0  0  0  0  0  0  0  0  0  0  0  0
    5.4810   -4.7257    0.0000 C   0  0  0  0  0  0  0  0  0  0  0  0
    4.0694   -4.7257    0.0000 C   0  0  0  0  0  0  0  0  0  0  0  0
    7.6024   -3.5123    0.0000 C   0  0  0  0  0  0  0  0  0  0  0  0
    6.8966   -3.0995    0.0000 C   0  0  0  0  0  0  0  0  0  0  0  0
    4.7752   -4.3171    0.0000 C   0  0  0  0  0  0  0  0  0  0  0  0
    4.0694   -5.5429    0.0000 C   0  0  0  0  0  0  0  0  0  0  0  0
    3.3637   -5.9473    0.0000 C   0  0  0  0  0  0  0  0  0  0  0  0
    5.4851   -3.0872    0.0000 C   0  0  0  0  0  0  0  0  0  0  0  0
    8.3081   -3.9167    0.0000 C   0  0  0  0  0  0  0  0  0  0  0  0
    6.8925   -4.7339    0.0000 C   0  0  0  0  0  0  0  0  0  0  0  0
    5.4727   -5.5429    0.0000 C   0  0  0  0  0  0  0  0  0  0  0  0
    4.7669   -3.4958    0.0000 C   0  0  0  0  0  0  0  0  0  0  0  0
    7.6024   -4.3295    0.0000 C   0  0  0  0  0  0  0  0  0  0  0  0
    3.3678   -4.3047    0.0000 C   0  0  0  0  0  0  0  0  0  0  0  0
    4.7752   -5.9515    0.0000 C   0  0  0  0  0  0  0  0  0  0  0  0
    8.3081   -3.1037    0.0000 C   0  0  0  0  0  0  0  0  0  0  0  0
    6.8966   -2.2865    0.0000 C   0  0  0  0  0  0  0  0  0  0  0  0
    7.6106   -1.8779    0.0000 C   0  0  0  0  0  0  0  0  0  0  0  0
    8.3040   -4.7381    0.0000 O   0  0  0  0  0  0  0  0  0  0  0  0
    8.3164   -2.2865    0.0000 C   0  0  0  0  0  0  0  0  0  0  0  0
    6.1785   -5.1425    0.0000 C   0  0  0  0  0  0  0  0  0  0  0  0
    9.0139   -3.5081    0.0000 O   0  0  0  0  0  0  0  0  0  0  0  0
    5.4727   -3.9044    0.0000 C   0  0  0  0  0  0  0  0  0  0  0  0
    4.0612   -3.9044    0.0000 C   0  0  0  0  0  0  0  0  0  0  0  0
    3.7599   -6.6572    0.0000 C   0  0  0  0  0  0  0  0  0  0  0  0
    2.9427   -6.6531    0.0000 C   0  0  0  0  0  0  0  0  0  0  0  0
    7.1938   -1.1680    0.0000 C   0  0  0  0  0  0  0  0  0  0  0  0
    8.0110   -1.1680    0.0000 C   0  0  0  0  0  0  0  0  0  0  0  0
    9.7221   -3.9159    0.0000 C   0  0  0  0  0  0  0  0  0  0  0  0
   10.4293   -3.5064    0.0000 C   0  0  0  0  0  0  0  0  0  0  0  0
   11.1350   -3.9157    0.0000 C   0  0  0  0  0  0  0  0  0  0  0  0
   11.8418   -3.5070    0.0000 C   0  0  0  0  0  0  0  0  0  0  0  0
   11.8412   -2.6889    0.0000 C   0  0  0  0  0  0  0  0  0  0  0  0
   11.1281   -2.2813    0.0000 C   0  0  0  0  0  0  0  0  0  0  0  0
   10.4242   -2.6924    0.0000 C   0  0  0  0  0  0  0  0  0  0  0  0
    3.3412   -7.3665    0.0000 O   0  0  0  0  0  0  0  0  0  0  0  0
    2.6593   -5.5388    0.0000 C   0  0  0  0  0  0  0  0  0  0  0  0
    2.6579   -4.7215    0.0000 C   0  0  0  0  0  0  0  0  0  0  0  0
    1.9506   -4.3159    0.0000 N   0  0  0  0  0  0  0  0  0  0  0  0
    1.2442   -4.7264    0.0000 C   0  0  0  0  0  0  0  0  0  0  0  0
    1.2496   -5.5468    0.0000 C   0  0  0  0  0  0  0  0  0  0  0  0
    1.9575   -5.9487    0.0000 N   0  0  0  0  0  0  0  0  0  0  0  0
  2  1  1  0
  3  1  1  0
  4  7  1  0
  5 15  1  0
  6  2  1  0
  7  3  1  0
  8 17  1  0
  9  8  1  0
 10  2  2  0
  5 11  1  0
 12  1  1  0
 13  3  1  0
 14  7  1  0
 15 12  1  0
 16  4  1  0
 17 13  1  0
 18  5  1  0
 19  6  1  0
 39  9  1  0
 20 19  1  0
 21 11  2  0
 40 16  1  0
 22 18  1  0
  1 23  1  0
 24 11  1  0
  3 25  1  0
  4 26  1  0
 27  9  1  0
  9 28  1  0
 29 20  1  0
 30 20  1  0
  5  6  1  0
 14 10  1  0
  8  4  1  0
 20 22  1  0
 24 31  1  0
 31 32  1  0
 32 33  2  0
 33 34  1  0
 34 35  2  0
 35 36  1  0
 36 37  2  0
 37 32  1  0
 28 38  1  0
 39 40  2  0
 40 41  1  0
 41 42  2  0
 42 43  1  0
 43 44  2  0
 44 39  1  0
M  END
>  <Classification>  (981) 
1

>  <pchembl>  (981) 
8.62

>  <InChI_steorem>  (981) 
InChI=1S/C39H52N2O3/c1-34(2)16-18-39(33(43)44-24-26-10-8-7-9-11-26)19-17-37(5)27(28(39)22-34)12-13-31-35(3)23-29-32(41-21-20-40-29)36(4,25-42)30(35)14-15-38(31,37)6/h7-12,20-21,28,30-31,42H,13-19,22-25H2,1-6H3

>  <source>  (981) 
ChEMBL28

>  <source_id>  (981) 
28

>  <optional_reference>  (981) 
10.1016/j.ejmech.2018.10.033

>  <optional_origin>  (981) 
None

>  <target>  (981) 
MDR1

$$$$

     RDKit          2D

 47 53  0  0  0  0  0  0  0  0999 V2000
    9.9906  -11.9772    0.0000 C   0  0  0  0  0  0  0  0  0  0  0  0
    9.9895  -12.7967    0.0000 C   0  0  0  0  0  0  0  0  0  0  0  0
   10.6975  -13.2057    0.0000 C   0  0  0  0  0  0  0  0  0  0  0  0
   11.4072  -12.7962    0.0000 C   0  0  0  0  0  0  0  0  0  0  0  0
   10.6957  -11.5683    0.0000 C   0  0  0  0  0  0  0  0  0  0  0  0
   11.4034  -11.9741    0.0000 C   0  0  0  0  0  0  0  0  0  0  0  0
   12.1048  -11.5663    0.0000 C   0  0  0  0  0  0  0  0  0  0  0  0
   12.1046  -10.7511    0.0000 C   0  0  0  0  0  0  0  0  0  0  0  0
   11.3969  -10.3454    0.0000 C   0  0  0  0  0  0  0  0  0  0  0  0
   10.6894  -10.7548    0.0000 O   0  0  0  0  0  0  0  0  0  0  0  0
   12.8132  -11.9737    0.0000 O   0  0  0  0  0  0  0  0  0  0  0  0
   12.8116  -10.3414    0.0000 C   0  0  0  0  0  0  0  0  0  0  0  0
   13.5200  -10.7488    0.0000 O   0  0  0  0  0  0  0  0  0  0  0  0
   12.8103   -9.5242    0.0000 N   0  0  0  0  0  0  0  0  0  0  0  0
   13.5173   -9.1144    0.0000 C   0  0  0  0  0  0  0  0  0  0  0  0
   14.2236   -9.5246    0.0000 C   0  0  0  0  0  0  0  0  0  0  0  0
   14.9302   -9.1155    0.0000 C   0  0  0  0  0  0  0  0  0  0  0  0
   14.9293   -8.2975    0.0000 C   0  0  0  0  0  0  0  0  0  0  0  0
   14.2159   -7.8902    0.0000 C   0  0  0  0  0  0  0  0  0  0  0  0
   13.5123   -8.3016    0.0000 C   0  0  0  0  0  0  0  0  0  0  0  0
   15.6384   -9.5233    0.0000 O   0  0  0  0  0  0  0  0  0  0  0  0
   15.6393  -10.3405    0.0000 C   0  0  0  0  0  0  0  0  0  0  0  0
   15.6358   -7.8868    0.0000 O   0  0  0  0  0  0  0  0  0  0  0  0
   16.3447   -8.2932    0.0000 C   0  0  0  0  0  0  0  0  0  0  0  0
   12.8008   -7.9014    0.0000 C   0  0  0  0  0  0  0  0  0  0  0  0
   12.7106   -7.0892    0.0000 N   0  0  0  0  0  0  0  0  0  0  0  0
   11.9102   -6.9240    0.0000 N   0  0  0  0  0  0  0  0  0  0  0  0
   11.5058   -7.6341    0.0000 N   0  0  0  0  0  0  0  0  0  0  0  0
   12.0562   -8.2381    0.0000 N   0  0  0  0  0  0  0  0  0  0  0  0
   10.6960   -7.7255    0.0000 C   0  0  0  0  0  0  0  0  0  0  0  0
   10.2122   -7.0655    0.0000 C   0  0  0  0  0  0  0  0  0  0  0  0
    9.4007   -7.1553    0.0000 C   0  0  0  0  0  0  0  0  0  0  0  0
    9.0720   -7.9044    0.0000 C   0  0  0  0  0  0  0  0  0  0  0  0
    9.5609   -8.5645    0.0000 C   0  0  0  0  0  0  0  0  0  0  0  0
   10.3706   -8.4714    0.0000 C   0  0  0  0  0  0  0  0  0  0  0  0
    8.2600   -7.9957    0.0000 C   0  0  0  0  0  0  0  0  0  0  0  0
    7.7748   -7.3381    0.0000 C   0  0  0  0  0  0  0  0  0  0  0  0
    6.9628   -7.4294    0.0000 N   0  0  0  0  0  0  0  0  0  0  0  0
    6.4791   -6.7702    0.0000 C   0  0  0  0  0  0  0  0  0  0  0  0
    5.8235   -8.2662    0.0000 C   0  0  0  0  0  0  0  0  0  0  0  0
    6.6385   -8.1782    0.0000 C   0  0  0  0  0  0  0  0  0  0  0  0
    5.3394   -7.6067    0.0000 C   0  0  0  0  0  0  0  0  0  0  0  0
    5.6716   -6.8613    0.0000 C   0  0  0  0  0  0  0  0  0  0  0  0
    5.1925   -6.2030    0.0000 C   0  0  0  0  0  0  0  0  0  0  0  0
    4.3812   -6.2888    0.0000 C   0  0  0  0  0  0  0  0  0  0  0  0
    4.0513   -7.0386    0.0000 C   0  0  0  0  0  0  0  0  0  0  0  0
    4.5324   -7.6938    0.0000 C   0  0  0  0  0  0  0  0  0  0  0  0
  1  2  2  0
  2  3  1  0
  3  4  2  0
  4  6  1  0
  5  1  1  0
  5  6  2  0
  5 10  1  0
  6  7  1  0
  7  8  1  0
  8  9  2  0
  9 10  1  0
  7 11  2  0
  8 12  1  0
 12 13  2  0
 12 14  1  0
 14 15  1  0
 15 16  2  0
 16 17  1  0
 17 18  2  0
 18 19  1  0
 19 20  2  0
 20 15  1  0
 17 21  1  0
 21 22  1  0
 18 23  1  0
 23 24  1  0
 25 26  1  0
 26 27  2  0
 27 28  1  0
 28 29  1  0
 29 25  2  0
 20 25  1  0
 30 31  2  0
 31 32  1  0
 32 33  2  0
 33 34  1  0
 34 35  2  0
 35 30  1  0
 28 30  1  0
 33 36  1  0
 36 37  1  0
 37 38  1  0
 38 39  1  0
 38 41  1  0
 39 43  1  0
 42 40  1  0
 40 41  1  0
 42 43  2  0
 43 44  1  0
 44 45  2  0
 45 46  1  0
 46 47  2  0
 47 42  1  0
M  END
>  <Classification>  (982) 
1

>  <pchembl>  (982) 
7.45

>  <InChI_steorem>  (982) 
InChI=1S/C36H32N6O5/c1-45-32-19-28(30(20-33(32)46-2)37-36(44)29-22-47-31-10-6-5-9-27(31)34(29)43)35-38-40-42(39-35)26-13-11-23(12-14-26)15-17-41-18-16-24-7-3-4-8-25(24)21-41/h3-14,19-20,22H,15-18,21H2,1-2H3,(H,37,44)

>  <source>  (982) 
ChEMBL28

>  <source_id>  (982) 
28

>  <optional_reference>  (982) 
10.1016/j.ejmech.2019.05.071

>  <optional_origin>  (982) 
None

>  <target>  (982) 
MDR1

$$$$

     RDKit          2D

 47 49  0  0  0  0  0  0  0  0999 V2000
   28.0156   -2.7240    0.0000 C   0  0  0  0  0  0  0  0  0  0  0  0
   27.6112   -3.4339    0.0000 C   0  0  0  0  0  0  0  0  0  0  0  0
   28.4282   -3.4292    0.0000 C   0  0  0  0  0  0  0  0  0  0  0  0
   25.6377   -4.2543    0.0000 C   0  0  0  0  0  0  0  0  0  0  0  0
   26.2129   -2.8555    0.0000 C   0  0  0  0  0  0  0  0  0  0  0  0
   26.2130   -4.8295    0.0000 C   0  0  0  0  0  0  0  0  0  0  0  0
   27.0325   -4.8295    0.0000 C   0  0  0  0  0  0  0  0  0  0  0  0
   27.6118   -4.2543    0.0000 C   0  0  0  0  0  0  0  0  0  0  0  0
   27.0325   -2.8554    0.0000 C   0  0  0  0  0  0  0  0  0  0  0  0
   22.9722   -3.2646    0.0000 C   0  0  0  0  0  0  0  0  0  0  0  0
   23.4591   -2.6059    0.0000 C   0  0  0  0  0  0  0  0  0  0  0  0
   23.4523   -3.9355    0.0000 C   0  0  0  0  0  0  0  0  0  0  0  0
   23.0480   -4.6462    0.0000 O   0  0  0  0  0  0  0  0  0  0  0  0
   23.8210   -2.1512    0.0000 O   0  0  0  0  0  0  0  0  0  0  0  0
   24.2386   -3.6807    0.0000 C   0  0  0  0  0  0  0  0  0  0  0  0
   24.2387   -2.8610    0.0000 C   0  0  0  0  0  0  0  0  0  0  0  0
   24.8152   -2.2844    0.0000 C   0  0  0  0  0  0  0  0  0  0  0  0
   24.8154   -4.2573    0.0000 C   0  0  0  0  0  0  0  0  0  0  0  0
   26.2116   -3.6806    0.0000 C   0  0  0  0  0  0  0  0  0  0  0  0
   25.6349   -2.2843    0.0000 C   0  0  0  0  0  0  0  0  0  0  0  0
   24.5024   -1.5294    0.0000 O   0  0  0  0  0  0  0  0  0  0  0  0
   25.9476   -1.5293    0.0000 C   0  0  0  0  0  0  0  0  0  0  0  0
   28.3664   -4.5681    0.0000 O   0  0  0  0  0  0  0  0  0  0  0  0
   25.9003   -5.5845    0.0000 O   0  0  0  0  0  0  0  0  0  0  0  0
   26.3121   -6.2905    0.0000 C   0  0  0  0  0  0  0  0  0  0  0  0
   25.9068   -7.0002    0.0000 C   0  0  0  0  0  0  0  0  0  0  0  0
   27.1293   -6.2867    0.0000 O   0  0  0  0  0  0  0  0  0  0  0  0
   27.4514   -5.5307    0.0000 O   0  0  0  0  0  0  0  0  0  0  0  0
   22.2309   -4.6517    0.0000 C   0  0  0  0  0  0  0  0  0  0  0  0
   24.5040   -5.0129    0.0000 O   0  0  0  0  0  0  0  0  0  0  0  0
   24.4992   -5.8276    0.0000 C   0  0  0  0  0  0  0  0  0  0  0  0
   25.2045   -6.2404    0.0000 O   0  0  0  0  0  0  0  0  0  0  0  0
   23.7891   -6.2320    0.0000 C   0  0  0  0  0  0  0  0  0  0  0  0
   22.1550   -3.2584    0.0000 C   0  0  0  0  0  0  0  0  0  0  0  0
   28.2685   -5.5186    0.0000 C   0  0  0  0  0  0  0  0  0  0  0  0
   28.6875   -6.2202    0.0000 C   0  0  0  0  0  0  0  0  0  0  0  0
   28.6665   -4.8049    0.0000 O   0  0  0  0  0  0  0  0  0  0  0  0
   25.0889   -7.0010    0.0000 C   0  0  0  0  0  0  0  0  0  0  0  0
   24.6837   -7.7098    0.0000 C   0  0  0  0  0  0  0  0  0  0  0  0
   25.0957   -8.4166    0.0000 C   0  0  0  0  0  0  0  0  0  0  0  0
   25.9171   -8.4101    0.0000 C   0  0  0  0  0  0  0  0  0  0  0  0
   26.3186   -7.7008    0.0000 C   0  0  0  0  0  0  0  0  0  0  0  0
   21.8175   -3.9468    0.0000 O   0  0  0  0  0  0  0  0  0  0  0  0
   21.8271   -5.3622    0.0000 C   0  0  0  0  0  0  0  0  0  0  0  0
   21.0099   -5.3677    0.0000 C   0  0  0  0  0  0  0  0  0  0  0  0
   20.6061   -6.0782    0.0000 C   0  0  0  0  0  0  0  0  0  0  0  0
   20.5965   -4.6628    0.0000 O   0  0  0  0  0  0  0  0  0  0  0  0
  2  1  1  0
  3  2  1  0
  4  6  1  0
  6  7  1  0
  7  8  1  0
  8  2  1  0
  2  9  1  0
  9  5  2  0
 16 11  1  0
 11 10  1  0
 10 12  1  0
 12 15  1  0
 12 13  1  0
 16 14  1  0
 15 16  1  0
 16 17  1  0
 15 18  1  0
 18  4  1  0
  4 19  2  0
  5 20  1  0
 20 17  1  0
 17 21  2  0
 20 22  1  0
  8 23  2  0
  6 24  1  0
 24 25  1  0
 25 26  1  0
 25 27  2  0
  7 28  1  0
 13 29  1  0
 18 30  1  0
 30 31  1  0
 31 32  2  0
 31 33  1  0
 10 34  1  0
 28 35  1  0
 35 36  1  0
 35 37  2  0
 26 38  2  0
 38 39  1  0
 39 40  2  0
 40 41  1  0
 41 42  2  0
 42 26  1  0
 29 43  2  0
 29 44  1  0
 44 45  1  0
 45 46  1  0
 45 47  2  0
M  END
>  <Classification>  (983) 
0

>  <pchembl>  (983) 
4.99

>  <InChI_steorem>  (983) 
InChI=1S/C35H42O12/c1-18-14-15-34(7,8)32(41)30(45-23(6)38)29(47-33(42)24-12-10-9-11-13-24)21(4)28(44-22(5)37)26-27(46-25(39)16-20(3)36)19(2)17-35(26,43)31(18)40/h9-15,18-19,26-30,43H,4,16-17H2,1-3,5-8H3

>  <source>  (983) 
ChEMBL28

>  <source_id>  (983) 
28

>  <optional_reference>  (983) 
10.1021/acs.jnatprod.8b00507

>  <optional_origin>  (983) 
None

>  <target>  (983) 
MDR1

$$$$

     RDKit          2D

 47 49  0  0  0  0  0  0  0  0999 V2000
    8.0914   -2.4749    0.0000 C   0  0  0  0  0  0  0  0  0  0  0  0
    7.6830   -3.1916    0.0000 C   0  0  0  0  0  0  0  0  0  0  0  0
    8.5078   -3.1868    0.0000 C   0  0  0  0  0  0  0  0  0  0  0  0
    5.6907   -4.0199    0.0000 C   0  0  0  0  0  0  0  0  0  0  0  0
    6.2714   -2.6077    0.0000 C   0  0  0  0  0  0  0  0  0  0  0  0
    6.2715   -4.6005    0.0000 C   0  0  0  0  0  0  0  0  0  0  0  0
    7.0989   -4.6005    0.0000 C   0  0  0  0  0  0  0  0  0  0  0  0
    7.6837   -4.0199    0.0000 C   0  0  0  0  0  0  0  0  0  0  0  0
    7.0989   -2.6076    0.0000 C   0  0  0  0  0  0  0  0  0  0  0  0
    2.9999   -3.0207    0.0000 C   0  0  0  0  0  0  0  0  0  0  0  0
    3.4914   -2.3558    0.0000 C   0  0  0  0  0  0  0  0  0  0  0  0
    3.4845   -3.6980    0.0000 C   0  0  0  0  0  0  0  0  0  0  0  0
    3.0765   -4.4154    0.0000 O   0  0  0  0  0  0  0  0  0  0  0  0
    2.1749   -3.0144    0.0000 C   0  0  0  0  0  0  0  0  0  0  0  0
    3.8569   -1.8968    0.0000 O   0  0  0  0  0  0  0  0  0  0  0  0
    4.2783   -3.4407    0.0000 C   0  0  0  0  0  0  0  0  0  0  0  0
    4.2784   -2.6132    0.0000 C   0  0  0  0  0  0  0  0  0  0  0  0
    4.8605   -2.0311    0.0000 C   0  0  0  0  0  0  0  0  0  0  0  0
    4.8606   -4.0228    0.0000 C   0  0  0  0  0  0  0  0  0  0  0  0
    6.2701   -3.4406    0.0000 C   0  0  0  0  0  0  0  0  0  0  0  0
    5.6879   -2.0310    0.0000 C   0  0  0  0  0  0  0  0  0  0  0  0
    3.0319   -1.9042    0.0000 C   0  0  0  0  0  0  0  0  0  0  0  0
    2.6130   -1.1933    0.0000 O   0  0  0  0  0  0  0  0  0  0  0  0
    2.6259   -2.6222    0.0000 C   0  0  0  0  0  0  0  0  0  0  0  0
    4.5447   -1.2691    0.0000 O   0  0  0  0  0  0  0  0  0  0  0  0
    6.0036   -1.2689    0.0000 C   0  0  0  0  0  0  0  0  0  0  0  0
    8.4454   -4.3366    0.0000 O   0  0  0  0  0  0  0  0  0  0  0  0
    5.9558   -5.3627    0.0000 O   0  0  0  0  0  0  0  0  0  0  0  0
    6.3716   -6.0754    0.0000 C   0  0  0  0  0  0  0  0  0  0  0  0
    5.9625   -6.7918    0.0000 C   0  0  0  0  0  0  0  0  0  0  0  0
    7.1965   -6.0715    0.0000 O   0  0  0  0  0  0  0  0  0  0  0  0
    7.5217   -5.3083    0.0000 O   0  0  0  0  0  0  0  0  0  0  0  0
    8.3466   -5.2964    0.0000 C   0  0  0  0  0  0  0  0  0  0  0  0
    8.7694   -6.0048    0.0000 C   0  0  0  0  0  0  0  0  0  0  0  0
    8.7487   -4.5761    0.0000 O   0  0  0  0  0  0  0  0  0  0  0  0
    2.2515   -4.4210    0.0000 C   0  0  0  0  0  0  0  0  0  0  0  0
    1.8439   -5.1382    0.0000 C   0  0  0  0  0  0  0  0  0  0  0  0
    1.8342   -3.7094    0.0000 O   0  0  0  0  0  0  0  0  0  0  0  0
    1.0208   -5.1404    0.0000 C   0  0  0  0  0  0  0  0  0  0  0  0
    0.6133   -5.8567    0.0000 C   0  0  0  0  0  0  0  0  0  0  0  0
    1.0307   -6.5693    0.0000 C   0  0  0  0  0  0  0  0  0  0  0  0
    1.8598   -6.5611    0.0000 C   0  0  0  0  0  0  0  0  0  0  0  0
    2.2636   -5.8441    0.0000 C   0  0  0  0  0  0  0  0  0  0  0  0
    4.5464   -4.7856    0.0000 O   0  0  0  0  0  0  0  0  0  0  0  0
    4.5415   -5.6081    0.0000 C   0  0  0  0  0  0  0  0  0  0  0  0
    5.2535   -6.0248    0.0000 O   0  0  0  0  0  0  0  0  0  0  0  0
    3.8247   -6.0164    0.0000 C   0  0  0  0  0  0  0  0  0  0  0  0
  2  1  1  0
  3  2  1  0
  4  6  1  0
  6  7  1  0
  7  8  1  0
  8  2  1  0
  2  9  1  0
  9  5  2  0
 17 11  1  0
 11 10  1  0
 10 12  1  0
 12 16  1  0
 12 13  1  0
 10 14  1  0
 17 15  1  0
 16 17  1  0
 17 18  1  0
 16 19  1  0
 19  4  1  0
  4 20  2  0
  5 21  1  0
 21 18  1  0
 15 22  1  0
 22 23  2  0
 22 24  1  0
 18 25  2  0
 21 26  1  0
  8 27  2  0
  6 28  1  0
 28 29  1  0
 29 30  1  0
 29 31  2  0
  7 32  1  0
 32 33  1  0
 33 34  1  0
 33 35  2  0
 13 36  1  0
 36 37  1  0
 36 38  2  0
 37 39  2  0
 39 40  1  0
 40 41  2  0
 41 42  1  0
 42 43  2  0
 43 37  1  0
 19 44  1  0
 44 45  1  0
 45 46  2  0
 45 47  1  0
M  END
>  <Classification>  (984) 
1

>  <pchembl>  (984) 
5.02

>  <InChI_steorem>  (984) 
InChI=1S/C35H42O12/c1-18-15-16-34(8,9)32(41)30(45-23(6)38)29(44-22(5)37)20(3)28(43-21(4)36)26-27(46-33(42)25-13-11-10-12-14-25)19(2)17-35(26,31(18)40)47-24(7)39/h10-16,18-19,26-30H,3,17H2,1-2,4-9H3

>  <source>  (984) 
ChEMBL28

>  <source_id>  (984) 
28

>  <optional_reference>  (984) 
10.1021/acs.jnatprod.8b00507

>  <optional_origin>  (984) 
None

>  <target>  (984) 
MDR1

$$$$

     RDKit          2D

 47 49  0  0  0  0  0  0  0  0999 V2000
    8.3494  -21.3832    0.0000 C   0  0  0  0  0  0  0  0  0  0  0  0
    7.9449  -22.0931    0.0000 C   0  0  0  0  0  0  0  0  0  0  0  0
    8.7619  -22.0884    0.0000 C   0  0  0  0  0  0  0  0  0  0  0  0
    5.9714  -22.9135    0.0000 C   0  0  0  0  0  0  0  0  0  0  0  0
    6.5466  -21.5147    0.0000 C   0  0  0  0  0  0  0  0  0  0  0  0
    6.5467  -23.4887    0.0000 C   0  0  0  0  0  0  0  0  0  0  0  0
    7.3663  -23.4887    0.0000 C   0  0  0  0  0  0  0  0  0  0  0  0
    7.9456  -22.9135    0.0000 C   0  0  0  0  0  0  0  0  0  0  0  0
    7.3663  -21.5146    0.0000 C   0  0  0  0  0  0  0  0  0  0  0  0
    3.3059  -21.9238    0.0000 C   0  0  0  0  0  0  0  0  0  0  0  0
    3.7928  -21.2651    0.0000 C   0  0  0  0  0  0  0  0  0  0  0  0
    3.7860  -22.5947    0.0000 C   0  0  0  0  0  0  0  0  0  0  0  0
    3.3818  -23.3054    0.0000 O   0  0  0  0  0  0  0  0  0  0  0  0
    4.1548  -20.8104    0.0000 O   0  0  0  0  0  0  0  0  0  0  0  0
    4.5723  -22.3399    0.0000 C   0  0  0  0  0  0  0  0  0  0  0  0
    4.5724  -21.5202    0.0000 C   0  0  0  0  0  0  0  0  0  0  0  0
    5.1490  -20.9436    0.0000 C   0  0  0  0  0  0  0  0  0  0  0  0
    5.1491  -22.9165    0.0000 C   0  0  0  0  0  0  0  0  0  0  0  0
    6.5454  -22.3398    0.0000 C   0  0  0  0  0  0  0  0  0  0  0  0
    5.9686  -20.9435    0.0000 C   0  0  0  0  0  0  0  0  0  0  0  0
    4.8362  -20.1886    0.0000 O   0  0  0  0  0  0  0  0  0  0  0  0
    6.2813  -20.1885    0.0000 C   0  0  0  0  0  0  0  0  0  0  0  0
    8.7001  -23.2273    0.0000 O   0  0  0  0  0  0  0  0  0  0  0  0
    6.2340  -24.2437    0.0000 O   0  0  0  0  0  0  0  0  0  0  0  0
    6.6459  -24.9497    0.0000 C   0  0  0  0  0  0  0  0  0  0  0  0
    6.2406  -25.6594    0.0000 C   0  0  0  0  0  0  0  0  0  0  0  0
    7.4630  -24.9459    0.0000 O   0  0  0  0  0  0  0  0  0  0  0  0
    7.7851  -24.1899    0.0000 O   0  0  0  0  0  0  0  0  0  0  0  0
    2.5646  -23.3109    0.0000 C   0  0  0  0  0  0  0  0  0  0  0  0
    2.1608  -24.0214    0.0000 C   0  0  0  0  0  0  0  0  0  0  0  0
    2.1512  -22.6060    0.0000 O   0  0  0  0  0  0  0  0  0  0  0  0
    4.8378  -23.6721    0.0000 O   0  0  0  0  0  0  0  0  0  0  0  0
    4.8330  -24.4868    0.0000 C   0  0  0  0  0  0  0  0  0  0  0  0
    5.5383  -24.8996    0.0000 O   0  0  0  0  0  0  0  0  0  0  0  0
    4.1229  -24.8912    0.0000 C   0  0  0  0  0  0  0  0  0  0  0  0
    1.3435  -24.0219    0.0000 C   0  0  0  0  0  0  0  0  0  0  0  0
    0.9398  -24.7315    0.0000 C   0  0  0  0  0  0  0  0  0  0  0  0
    1.3532  -25.4374    0.0000 C   0  0  0  0  0  0  0  0  0  0  0  0
    2.1746  -25.4292    0.0000 C   0  0  0  0  0  0  0  0  0  0  0  0
    2.5746  -24.7190    0.0000 C   0  0  0  0  0  0  0  0  0  0  0  0
    2.7240  -21.3419    0.0000 C   0  0  0  0  0  0  0  0  0  0  0  0
    2.5960  -22.3283    0.0000 O   0  0  0  0  0  0  0  0  0  0  0  0
    8.6022  -24.1778    0.0000 C   0  0  0  0  0  0  0  0  0  0  0  0
    9.0213  -24.8794    0.0000 C   0  0  0  0  0  0  0  0  0  0  0  0
    9.0003  -23.4641    0.0000 O   0  0  0  0  0  0  0  0  0  0  0  0
    8.6233  -25.5931    0.0000 C   0  0  0  0  0  0  0  0  0  0  0  0
    9.8384  -24.8672    0.0000 C   0  0  0  0  0  0  0  0  0  0  0  0
  2  1  1  0
  3  2  1  0
  4  6  1  0
  6  7  1  0
  7  8  1  0
  8  2  1  0
  2  9  1  0
  9  5  2  0
 16 11  1  0
 11 10  1  0
 10 12  1  0
 12 15  1  0
 12 13  1  0
 16 14  1  0
 15 16  1  0
 16 17  1  0
 15 18  1  0
 18  4  1  0
  4 19  2  0
  5 20  1  0
 20 17  1  0
 17 21  2  0
 20 22  1  0
  8 23  2  0
  6 24  1  0
 24 25  1  0
 25 26  1  0
 25 27  2  0
  7 28  1  0
 13 29  1  0
 29 30  1  0
 29 31  2  0
 18 32  1  0
 32 33  1  0
 33 34  2  0
 33 35  1  0
 30 36  2  0
 36 37  1  0
 37 38  2  0
 38 39  1  0
 39 40  2  0
 40 30  1  0
 10 41  1  0
 10 42  1  0
 28 43  1  0
 43 44  1  0
 43 45  2  0
 44 46  1  0
 44 47  1  0
M  END
>  <Classification>  (985) 
1

>  <pchembl>  (985) 
5.3

>  <InChI_steorem>  (985) 
InChI=1S/C35H44O12/c1-18(2)31(40)46-27-26(45-22(6)37)20(4)25(44-21(5)36)24-30(47-32(41)23-13-11-10-12-14-23)34(9,42)17-35(24,43)28(38)19(3)15-16-33(7,8)29(27)39/h10-16,18-19,24-27,30,42-43H,4,17H2,1-3,5-9H3

>  <source>  (985) 
ChEMBL28

>  <source_id>  (985) 
28

>  <optional_reference>  (985) 
10.1021/acs.jnatprod.8b00507

>  <optional_origin>  (985) 
None

>  <target>  (985) 
MDR1

$$$$

     RDKit          2D

 48 50  0  0  0  0  0  0  0  0999 V2000
   45.4656   -3.3802    0.0000 C   0  0  0  0  0  0  0  0  0  0  0  0
   45.0611   -4.0901    0.0000 C   0  0  0  0  0  0  0  0  0  0  0  0
   45.8781   -4.0854    0.0000 C   0  0  0  0  0  0  0  0  0  0  0  0
   43.0876   -4.9106    0.0000 C   0  0  0  0  0  0  0  0  0  0  0  0
   43.6628   -3.5117    0.0000 C   0  0  0  0  0  0  0  0  0  0  0  0
   43.6629   -5.4857    0.0000 C   0  0  0  0  0  0  0  0  0  0  0  0
   44.4824   -5.4857    0.0000 C   0  0  0  0  0  0  0  0  0  0  0  0
   45.0617   -4.9106    0.0000 C   0  0  0  0  0  0  0  0  0  0  0  0
   44.4824   -3.5116    0.0000 C   0  0  0  0  0  0  0  0  0  0  0  0
   40.4221   -3.9209    0.0000 C   0  0  0  0  0  0  0  0  0  0  0  0
   40.9090   -3.2622    0.0000 C   0  0  0  0  0  0  0  0  0  0  0  0
   40.9022   -4.5917    0.0000 C   0  0  0  0  0  0  0  0  0  0  0  0
   40.4980   -5.3024    0.0000 O   0  0  0  0  0  0  0  0  0  0  0  0
   41.2710   -2.8075    0.0000 O   0  0  0  0  0  0  0  0  0  0  0  0
   41.6885   -4.3369    0.0000 C   0  0  0  0  0  0  0  0  0  0  0  0
   41.6886   -3.5172    0.0000 C   0  0  0  0  0  0  0  0  0  0  0  0
   42.2651   -2.9406    0.0000 C   0  0  0  0  0  0  0  0  0  0  0  0
   42.2653   -4.9136    0.0000 C   0  0  0  0  0  0  0  0  0  0  0  0
   43.6615   -4.3369    0.0000 C   0  0  0  0  0  0  0  0  0  0  0  0
   43.0848   -2.9405    0.0000 C   0  0  0  0  0  0  0  0  0  0  0  0
   43.3975   -2.1855    0.0000 C   0  0  0  0  0  0  0  0  0  0  0  0
   45.8163   -5.2243    0.0000 O   0  0  0  0  0  0  0  0  0  0  0  0
   43.3502   -6.2407    0.0000 O   0  0  0  0  0  0  0  0  0  0  0  0
   43.7620   -6.9468    0.0000 C   0  0  0  0  0  0  0  0  0  0  0  0
   43.3567   -7.6564    0.0000 C   0  0  0  0  0  0  0  0  0  0  0  0
   44.5792   -6.9430    0.0000 O   0  0  0  0  0  0  0  0  0  0  0  0
   44.9013   -6.1870    0.0000 O   0  0  0  0  0  0  0  0  0  0  0  0
   45.7184   -6.1751    0.0000 C   0  0  0  0  0  0  0  0  0  0  0  0
   46.1372   -6.8769    0.0000 C   0  0  0  0  0  0  0  0  0  0  0  0
   46.1167   -5.4616    0.0000 O   0  0  0  0  0  0  0  0  0  0  0  0
   39.6808   -5.3080    0.0000 C   0  0  0  0  0  0  0  0  0  0  0  0
   39.2770   -6.0184    0.0000 C   0  0  0  0  0  0  0  0  0  0  0  0
   39.2674   -4.6030    0.0000 O   0  0  0  0  0  0  0  0  0  0  0  0
   38.4617   -6.0205    0.0000 C   0  0  0  0  0  0  0  0  0  0  0  0
   38.0580   -6.7301    0.0000 C   0  0  0  0  0  0  0  0  0  0  0  0
   38.4714   -7.4360    0.0000 C   0  0  0  0  0  0  0  0  0  0  0  0
   39.2928   -7.4278    0.0000 C   0  0  0  0  0  0  0  0  0  0  0  0
   39.6928   -6.7176    0.0000 C   0  0  0  0  0  0  0  0  0  0  0  0
   41.9540   -5.6691    0.0000 O   0  0  0  0  0  0  0  0  0  0  0  0
   41.9527   -2.1851    0.0000 O   0  0  0  0  0  0  0  0  0  0  0  0
   42.3358   -1.4633    0.0000 C   0  0  0  0  0  0  0  0  0  0  0  0
   41.9023   -0.7706    0.0000 O   0  0  0  0  0  0  0  0  0  0  0  0
   43.1525   -1.4342    0.0000 C   0  0  0  0  0  0  0  0  0  0  0  0
   39.8401   -3.3389    0.0000 C   0  0  0  0  0  0  0  0  0  0  0  0
   39.7122   -4.3253    0.0000 O   0  0  0  0  0  0  0  0  0  0  0  0
   39.0023   -3.9167    0.0000 C   0  0  0  0  0  0  0  0  0  0  0  0
   39.0012   -3.0995    0.0000 O   0  0  0  0  0  0  0  0  0  0  0  0
   38.2951   -4.3263    0.0000 C   0  0  0  0  0  0  0  0  0  0  0  0
  2  1  1  0
  3  2  1  0
  4  6  1  0
  6  7  1  0
  7  8  1  0
  8  2  1  0
  2  9  1  0
  9  5  2  0
 16 11  1  0
 11 10  1  0
 10 12  1  0
 12 15  1  0
 12 13  1  0
 16 14  1  0
 15 16  1  0
 16 17  1  0
 15 18  1  0
 18  4  1  0
  4 19  2  0
  5 20  1  0
 20 17  1  0
 20 21  1  0
  8 22  2  0
  6 23  1  0
 23 24  1  0
 24 25  1  0
 24 26  2  0
  7 27  1  0
 27 28  1  0
 28 29  1  0
 28 30  2  0
 13 31  1  0
 31 32  1  0
 31 33  2  0
 32 34  2  0
 34 35  1  0
 35 36  2  0
 36 37  1  0
 37 38  2  0
 38 32  1  0
 18 39  1  0
 17 40  1  0
 40 41  1  0
 41 42  2  0
 41 43  1  0
 10 44  1  0
 10 45  1  0
 45 46  1  0
 46 47  2  0
 46 48  1  0
M  END
>  <Classification>  (986) 
0

>  <pchembl>  (986) 
4.69

>  <InChI_steorem>  (986) 
InChI=1S/C35H44O13/c1-18-15-16-33(7,8)29(41)28(45-21(4)37)27(44-20(3)36)19(2)26(40)25-31(47-32(42)24-13-11-10-12-14-24)34(9,48-23(6)39)17-35(25,43)30(18)46-22(5)38/h10-16,18,25-28,30-31,40,43H,2,17H2,1,3-9H3

>  <source>  (986) 
ChEMBL28

>  <source_id>  (986) 
28

>  <optional_reference>  (986) 
10.1021/acs.jnatprod.8b00507

>  <optional_origin>  (986) 
None

>  <target>  (986) 
MDR1

$$$$

     RDKit          2D

 49 52  0  0  0  0  0  0  0  0999 V2000
   45.6389  -12.1134    0.0000 C   0  0  0  0  0  0  0  0  0  0  0  0
   45.2344  -12.8233    0.0000 C   0  0  0  0  0  0  0  0  0  0  0  0
   46.0514  -12.8186    0.0000 C   0  0  0  0  0  0  0  0  0  0  0  0
   43.2609  -13.6438    0.0000 C   0  0  0  0  0  0  0  0  0  0  0  0
   43.8361  -12.2449    0.0000 C   0  0  0  0  0  0  0  0  0  0  0  0
   43.8362  -14.2190    0.0000 C   0  0  0  0  0  0  0  0  0  0  0  0
   44.6558  -14.2190    0.0000 C   0  0  0  0  0  0  0  0  0  0  0  0
   45.2351  -13.6438    0.0000 C   0  0  0  0  0  0  0  0  0  0  0  0
   44.6558  -12.2448    0.0000 C   0  0  0  0  0  0  0  0  0  0  0  0
   40.5954  -12.6541    0.0000 C   0  0  0  0  0  0  0  0  0  0  0  0
   41.0823  -11.9954    0.0000 C   0  0  0  0  0  0  0  0  0  0  0  0
   41.0755  -13.3249    0.0000 C   0  0  0  0  0  0  0  0  0  0  0  0
   40.6713  -14.0356    0.0000 O   0  0  0  0  0  0  0  0  0  0  0  0
   41.4443  -11.5407    0.0000 O   0  0  0  0  0  0  0  0  0  0  0  0
   41.8618  -13.0701    0.0000 C   0  0  0  0  0  0  0  0  0  0  0  0
   41.8619  -12.2504    0.0000 C   0  0  0  0  0  0  0  0  0  0  0  0
   42.4385  -11.6739    0.0000 C   0  0  0  0  0  0  0  0  0  0  0  0
   42.4386  -13.6468    0.0000 C   0  0  0  0  0  0  0  0  0  0  0  0
   43.8349  -13.0701    0.0000 C   0  0  0  0  0  0  0  0  0  0  0  0
   43.2582  -11.6737    0.0000 C   0  0  0  0  0  0  0  0  0  0  0  0
   42.1257  -10.9189    0.0000 O   0  0  0  0  0  0  0  0  0  0  0  0
   43.5709  -10.9187    0.0000 C   0  0  0  0  0  0  0  0  0  0  0  0
   45.9896  -13.9576    0.0000 O   0  0  0  0  0  0  0  0  0  0  0  0
   43.5235  -14.9740    0.0000 O   0  0  0  0  0  0  0  0  0  0  0  0
   43.9354  -15.6800    0.0000 C   0  0  0  0  0  0  0  0  0  0  0  0
   43.5301  -16.3896    0.0000 C   0  0  0  0  0  0  0  0  0  0  0  0
   44.7525  -15.6762    0.0000 O   0  0  0  0  0  0  0  0  0  0  0  0
   45.0746  -14.9202    0.0000 O   0  0  0  0  0  0  0  0  0  0  0  0
   39.8541  -14.0412    0.0000 C   0  0  0  0  0  0  0  0  0  0  0  0
   39.4503  -14.7516    0.0000 C   0  0  0  0  0  0  0  0  0  0  0  0
   39.4407  -13.3362    0.0000 O   0  0  0  0  0  0  0  0  0  0  0  0
   42.1273  -14.4024    0.0000 O   0  0  0  0  0  0  0  0  0  0  0  0
   42.1225  -15.2171    0.0000 C   0  0  0  0  0  0  0  0  0  0  0  0
   42.8278  -15.6299    0.0000 O   0  0  0  0  0  0  0  0  0  0  0  0
   41.4124  -15.6215    0.0000 C   0  0  0  0  0  0  0  0  0  0  0  0
   38.6330  -14.7521    0.0000 C   0  0  0  0  0  0  0  0  0  0  0  0
   38.2293  -15.4618    0.0000 C   0  0  0  0  0  0  0  0  0  0  0  0
   38.6427  -16.1677    0.0000 C   0  0  0  0  0  0  0  0  0  0  0  0
   39.4641  -16.1595    0.0000 C   0  0  0  0  0  0  0  0  0  0  0  0
   39.8641  -15.4493    0.0000 C   0  0  0  0  0  0  0  0  0  0  0  0
   42.7122  -16.3905    0.0000 C   0  0  0  0  0  0  0  0  0  0  0  0
   42.3070  -17.0992    0.0000 C   0  0  0  0  0  0  0  0  0  0  0  0
   42.7189  -17.8060    0.0000 C   0  0  0  0  0  0  0  0  0  0  0  0
   43.5403  -17.7995    0.0000 C   0  0  0  0  0  0  0  0  0  0  0  0
   43.9418  -17.0902    0.0000 C   0  0  0  0  0  0  0  0  0  0  0  0
   41.4374  -10.7225    0.0000 C   0  0  0  0  0  0  0  0  0  0  0  0
   40.7262  -10.3200    0.0000 C   0  0  0  0  0  0  0  0  0  0  0  0
   42.1416  -10.3080    0.0000 O   0  0  0  0  0  0  0  0  0  0  0  0
   39.7783  -12.6478    0.0000 C   0  0  0  0  0  0  0  0  0  0  0  0
  2  1  1  0
  3  2  1  0
  4  6  1  0
  6  7  1  0
  7  8  1  0
  8  2  1  0
  2  9  1  0
  9  5  2  0
 16 11  1  0
 11 10  1  0
 10 12  1  0
 12 15  1  0
 12 13  1  0
 16 14  1  0
 15 16  1  0
 16 17  1  0
 15 18  1  0
 18  4  1  0
  4 19  2  0
  5 20  1  0
 20 17  1  0
 17 21  2  0
 20 22  1  0
  8 23  2  0
  6 24  1  0
 24 25  1  0
 25 26  1  0
 25 27  2  0
  7 28  1  0
 13 29  1  0
 29 30  1  0
 29 31  2  0
 18 32  1  0
 32 33  1  0
 33 34  2  0
 33 35  1  0
 30 36  2  0
 36 37  1  0
 37 38  2  0
 38 39  1  0
 39 40  2  0
 40 30  1  0
 26 41  2  0
 41 42  1  0
 42 43  2  0
 43 44  1  0
 44 45  2  0
 45 26  1  0
 14 46  1  0
 46 47  1  0
 46 48  2  0
 10 49  1  0
M  END
>  <Classification>  (987) 
1

>  <pchembl>  (987) 
5.02

>  <InChI_steorem>  (987) 
InChI=1S/C38H42O11/c1-21-18-19-37(6,7)34(43)29(41)32(48-36(45)27-16-12-9-13-17-27)23(3)31(46-24(4)39)28-30(47-35(44)26-14-10-8-11-15-26)22(2)20-38(28,33(21)42)49-25(5)40/h8-19,21-22,28-32,41H,3,20H2,1-2,4-7H3

>  <source>  (987) 
ChEMBL28

>  <source_id>  (987) 
28

>  <optional_reference>  (987) 
10.1021/acs.jnatprod.8b00507

>  <optional_origin>  (987) 
None

>  <target>  (987) 
MDR1

$$$$

     RDKit          2D

 50 52  0  0  0  0  0  0  0  0999 V2000
   19.1710  -21.2552    0.0000 C   0  0  0  0  0  0  0  0  0  0  0  0
   18.7665  -21.9651    0.0000 C   0  0  0  0  0  0  0  0  0  0  0  0
   19.5835  -21.9604    0.0000 C   0  0  0  0  0  0  0  0  0  0  0  0
   16.7930  -22.7856    0.0000 C   0  0  0  0  0  0  0  0  0  0  0  0
   17.3682  -21.3867    0.0000 C   0  0  0  0  0  0  0  0  0  0  0  0
   17.3683  -23.3608    0.0000 C   0  0  0  0  0  0  0  0  0  0  0  0
   18.1879  -23.3608    0.0000 C   0  0  0  0  0  0  0  0  0  0  0  0
   18.7672  -22.7856    0.0000 C   0  0  0  0  0  0  0  0  0  0  0  0
   18.1879  -21.3866    0.0000 C   0  0  0  0  0  0  0  0  0  0  0  0
   14.1275  -21.7959    0.0000 C   0  0  0  0  0  0  0  0  0  0  0  0
   14.6144  -21.1372    0.0000 C   0  0  0  0  0  0  0  0  0  0  0  0
   14.6076  -22.4667    0.0000 C   0  0  0  0  0  0  0  0  0  0  0  0
   14.2034  -23.1774    0.0000 O   0  0  0  0  0  0  0  0  0  0  0  0
   14.9764  -20.6825    0.0000 O   0  0  0  0  0  0  0  0  0  0  0  0
   15.3939  -22.2119    0.0000 C   0  0  0  0  0  0  0  0  0  0  0  0
   15.3940  -21.3923    0.0000 C   0  0  0  0  0  0  0  0  0  0  0  0
   15.9706  -20.8157    0.0000 C   0  0  0  0  0  0  0  0  0  0  0  0
   15.9707  -22.7886    0.0000 C   0  0  0  0  0  0  0  0  0  0  0  0
   17.3669  -22.2119    0.0000 C   0  0  0  0  0  0  0  0  0  0  0  0
   16.7902  -20.8155    0.0000 C   0  0  0  0  0  0  0  0  0  0  0  0
   15.6578  -20.0607    0.0000 O   0  0  0  0  0  0  0  0  0  0  0  0
   17.1029  -20.0605    0.0000 C   0  0  0  0  0  0  0  0  0  0  0  0
   19.5217  -23.0994    0.0000 O   0  0  0  0  0  0  0  0  0  0  0  0
   17.0556  -24.1158    0.0000 O   0  0  0  0  0  0  0  0  0  0  0  0
   17.4674  -24.8218    0.0000 C   0  0  0  0  0  0  0  0  0  0  0  0
   17.0622  -25.5314    0.0000 C   0  0  0  0  0  0  0  0  0  0  0  0
   18.2846  -24.8180    0.0000 O   0  0  0  0  0  0  0  0  0  0  0  0
   18.6067  -24.0620    0.0000 O   0  0  0  0  0  0  0  0  0  0  0  0
   13.3862  -23.1830    0.0000 C   0  0  0  0  0  0  0  0  0  0  0  0
   12.9824  -23.8934    0.0000 C   0  0  0  0  0  0  0  0  0  0  0  0
   12.9728  -22.4781    0.0000 O   0  0  0  0  0  0  0  0  0  0  0  0
   15.6594  -23.5442    0.0000 O   0  0  0  0  0  0  0  0  0  0  0  0
   15.6546  -24.3589    0.0000 C   0  0  0  0  0  0  0  0  0  0  0  0
   16.3599  -24.7717    0.0000 O   0  0  0  0  0  0  0  0  0  0  0  0
   14.9445  -24.7633    0.0000 C   0  0  0  0  0  0  0  0  0  0  0  0
   12.1651  -23.8939    0.0000 C   0  0  0  0  0  0  0  0  0  0  0  0
   11.7614  -24.6036    0.0000 C   0  0  0  0  0  0  0  0  0  0  0  0
   12.1748  -25.3095    0.0000 C   0  0  0  0  0  0  0  0  0  0  0  0
   12.9962  -25.3013    0.0000 C   0  0  0  0  0  0  0  0  0  0  0  0
   13.3962  -24.5911    0.0000 C   0  0  0  0  0  0  0  0  0  0  0  0
   13.5456  -21.2140    0.0000 C   0  0  0  0  0  0  0  0  0  0  0  0
   13.4176  -22.2004    0.0000 O   0  0  0  0  0  0  0  0  0  0  0  0
   19.4238  -24.0499    0.0000 C   0  0  0  0  0  0  0  0  0  0  0  0
   19.8429  -24.7514    0.0000 C   0  0  0  0  0  0  0  0  0  0  0  0
   19.8219  -23.3362    0.0000 O   0  0  0  0  0  0  0  0  0  0  0  0
   19.4448  -25.4651    0.0000 C   0  0  0  0  0  0  0  0  0  0  0  0
   20.6600  -24.7393    0.0000 C   0  0  0  0  0  0  0  0  0  0  0  0
   12.7077  -21.7918    0.0000 C   0  0  0  0  0  0  0  0  0  0  0  0
   12.7067  -20.9746    0.0000 O   0  0  0  0  0  0  0  0  0  0  0  0
   12.0006  -22.2013    0.0000 C   0  0  0  0  0  0  0  0  0  0  0  0
  2  1  1  0
  3  2  1  0
  4  6  1  0
  6  7  1  0
  7  8  1  0
  8  2  1  0
  2  9  1  0
  9  5  2  0
 16 11  1  0
 11 10  1  0
 10 12  1  0
 12 15  1  0
 12 13  1  0
 16 14  1  0
 15 16  1  0
 16 17  1  0
 15 18  1  0
 18  4  1  0
  4 19  2  0
  5 20  1  0
 20 17  1  0
 17 21  2  0
 20 22  1  0
  8 23  2  0
  6 24  1  0
 24 25  1  0
 25 26  1  0
 25 27  2  0
  7 28  1  0
 13 29  1  0
 29 30  1  0
 29 31  2  0
 18 32  1  0
 32 33  1  0
 33 34  2  0
 33 35  1  0
 30 36  2  0
 36 37  1  0
 37 38  2  0
 38 39  1  0
 39 40  2  0
 40 30  1  0
 10 41  1  0
 10 42  1  0
 28 43  1  0
 43 44  1  0
 43 45  2  0
 44 46  1  0
 44 47  1  0
 42 48  1  0
 48 49  2  0
 48 50  1  0
M  END
>  <Classification>  (988) 
1

>  <pchembl>  (988) 
5.28

>  <InChI_steorem>  (988) 
InChI=1S/C37H46O13/c1-19(2)33(43)48-29-28(47-23(6)39)21(4)27(46-22(5)38)26-32(49-34(44)25-14-12-11-13-15-25)36(10,50-24(7)40)18-37(26,45)30(41)20(3)16-17-35(8,9)31(29)42/h11-17,19-20,26-29,32,45H,4,18H2,1-3,5-10H3

>  <source>  (988) 
ChEMBL28

>  <source_id>  (988) 
28

>  <optional_reference>  (988) 
10.1021/acs.jnatprod.8b00507

>  <optional_origin>  (988) 
None

>  <target>  (988) 
MDR1

$$$$

     RDKit          2D

 50 52  0  0  0  0  0  0  0  0999 V2000
   29.6500  -20.5453    0.0000 C   0  0  0  0  0  0  0  0  0  0  0  0
   29.2455  -21.2552    0.0000 C   0  0  0  0  0  0  0  0  0  0  0  0
   30.0626  -21.2506    0.0000 C   0  0  0  0  0  0  0  0  0  0  0  0
   27.2721  -22.0757    0.0000 C   0  0  0  0  0  0  0  0  0  0  0  0
   27.8472  -20.6769    0.0000 C   0  0  0  0  0  0  0  0  0  0  0  0
   27.8473  -22.6509    0.0000 C   0  0  0  0  0  0  0  0  0  0  0  0
   28.6669  -22.6509    0.0000 C   0  0  0  0  0  0  0  0  0  0  0  0
   29.2462  -22.0757    0.0000 C   0  0  0  0  0  0  0  0  0  0  0  0
   28.6669  -20.6768    0.0000 C   0  0  0  0  0  0  0  0  0  0  0  0
   24.6065  -21.0860    0.0000 C   0  0  0  0  0  0  0  0  0  0  0  0
   25.0934  -20.4273    0.0000 C   0  0  0  0  0  0  0  0  0  0  0  0
   25.0867  -21.7569    0.0000 C   0  0  0  0  0  0  0  0  0  0  0  0
   24.6824  -22.4676    0.0000 O   0  0  0  0  0  0  0  0  0  0  0  0
   25.4554  -19.9726    0.0000 O   0  0  0  0  0  0  0  0  0  0  0  0
   25.8729  -21.5020    0.0000 C   0  0  0  0  0  0  0  0  0  0  0  0
   25.8730  -20.6824    0.0000 C   0  0  0  0  0  0  0  0  0  0  0  0
   26.4496  -20.1058    0.0000 C   0  0  0  0  0  0  0  0  0  0  0  0
   26.4497  -22.0787    0.0000 C   0  0  0  0  0  0  0  0  0  0  0  0
   27.8460  -21.5020    0.0000 C   0  0  0  0  0  0  0  0  0  0  0  0
   27.2693  -20.1057    0.0000 C   0  0  0  0  0  0  0  0  0  0  0  0
   26.1368  -19.3508    0.0000 O   0  0  0  0  0  0  0  0  0  0  0  0
   27.5820  -19.3507    0.0000 C   0  0  0  0  0  0  0  0  0  0  0  0
   30.0008  -22.3895    0.0000 O   0  0  0  0  0  0  0  0  0  0  0  0
   27.5346  -23.4059    0.0000 O   0  0  0  0  0  0  0  0  0  0  0  0
   27.9465  -24.1119    0.0000 C   0  0  0  0  0  0  0  0  0  0  0  0
   27.5412  -24.8215    0.0000 C   0  0  0  0  0  0  0  0  0  0  0  0
   28.7637  -24.1081    0.0000 O   0  0  0  0  0  0  0  0  0  0  0  0
   29.0858  -23.3521    0.0000 O   0  0  0  0  0  0  0  0  0  0  0  0
   23.8652  -22.4731    0.0000 C   0  0  0  0  0  0  0  0  0  0  0  0
   23.4615  -23.1836    0.0000 C   0  0  0  0  0  0  0  0  0  0  0  0
   23.4519  -21.7682    0.0000 O   0  0  0  0  0  0  0  0  0  0  0  0
   26.1384  -22.8343    0.0000 O   0  0  0  0  0  0  0  0  0  0  0  0
   26.1336  -23.6490    0.0000 C   0  0  0  0  0  0  0  0  0  0  0  0
   26.8389  -24.0618    0.0000 O   0  0  0  0  0  0  0  0  0  0  0  0
   25.4235  -24.0534    0.0000 C   0  0  0  0  0  0  0  0  0  0  0  0
   22.6441  -23.1841    0.0000 C   0  0  0  0  0  0  0  0  0  0  0  0
   22.2404  -23.8937    0.0000 C   0  0  0  0  0  0  0  0  0  0  0  0
   22.6538  -24.5996    0.0000 C   0  0  0  0  0  0  0  0  0  0  0  0
   23.4752  -24.5914    0.0000 C   0  0  0  0  0  0  0  0  0  0  0  0
   23.8752  -23.8812    0.0000 C   0  0  0  0  0  0  0  0  0  0  0  0
   24.0246  -20.5041    0.0000 C   0  0  0  0  0  0  0  0  0  0  0  0
   23.8967  -21.4905    0.0000 O   0  0  0  0  0  0  0  0  0  0  0  0
   29.9029  -23.3400    0.0000 C   0  0  0  0  0  0  0  0  0  0  0  0
   30.3219  -24.0415    0.0000 C   0  0  0  0  0  0  0  0  0  0  0  0
   30.3009  -22.6263    0.0000 O   0  0  0  0  0  0  0  0  0  0  0  0
   23.1868  -21.0819    0.0000 C   0  0  0  0  0  0  0  0  0  0  0  0
   23.1857  -20.2647    0.0000 O   0  0  0  0  0  0  0  0  0  0  0  0
   22.4796  -21.4914    0.0000 C   0  0  0  0  0  0  0  0  0  0  0  0
   26.7240  -24.8253    0.0000 C   0  0  0  0  0  0  0  0  0  0  0  0
   27.9531  -25.5273    0.0000 C   0  0  0  0  0  0  0  0  0  0  0  0
  2  1  1  0
  3  2  1  0
  4  6  1  0
  6  7  1  0
  7  8  1  0
  8  2  1  0
  2  9  1  0
  9  5  2  0
 16 11  1  0
 11 10  1  0
 10 12  1  0
 12 15  1  0
 12 13  1  0
 16 14  1  0
 15 16  1  0
 16 17  1  0
 15 18  1  0
 18  4  1  0
  4 19  2  0
  5 20  1  0
 20 17  1  0
 17 21  2  0
 20 22  1  0
  8 23  2  0
  6 24  1  0
 24 25  1  0
 25 26  1  0
 25 27  2  0
  7 28  1  0
 13 29  1  0
 29 30  1  0
 29 31  2  0
 18 32  1  0
 32 33  1  0
 33 34  2  0
 33 35  1  0
 30 36  2  0
 36 37  1  0
 37 38  2  0
 38 39  1  0
 39 40  2  0
 40 30  1  0
 10 41  1  0
 10 42  1  0
 28 43  1  0
 43 44  1  0
 43 45  2  0
 42 46  1  0
 46 47  2  0
 46 48  1  0
 26 49  1  0
 26 50  1  0
M  END
>  <Classification>  (989) 
0

>  <pchembl>  (989) 
4.89

>  <InChI_steorem>  (989) 
InChI=1S/C37H46O13/c1-19(2)33(43)48-28-21(4)27(46-22(5)38)26-32(49-34(44)25-14-12-11-13-15-25)36(10,50-24(7)40)18-37(26,45)30(41)20(3)16-17-35(8,9)31(42)29(28)47-23(6)39/h11-17,19-20,26-29,32,45H,4,18H2,1-3,5-10H3

>  <source>  (989) 
ChEMBL28

>  <source_id>  (989) 
28

>  <optional_reference>  (989) 
10.1021/acs.jnatprod.8b00507

>  <optional_origin>  (989) 
None

>  <target>  (989) 
MDR1

$$$$

     RDKit          2D

 50 53  0  0  0  0  0  0  0  0999 V2000
   36.0059  -11.5191    0.0000 C   0  0  0  0  0  0  0  0  0  0  0  0
   35.6015  -12.2290    0.0000 C   0  0  0  0  0  0  0  0  0  0  0  0
   36.4185  -12.2243    0.0000 C   0  0  0  0  0  0  0  0  0  0  0  0
   33.6280  -13.0495    0.0000 C   0  0  0  0  0  0  0  0  0  0  0  0
   34.2032  -11.6506    0.0000 C   0  0  0  0  0  0  0  0  0  0  0  0
   34.2033  -13.6246    0.0000 C   0  0  0  0  0  0  0  0  0  0  0  0
   35.0228  -13.6246    0.0000 C   0  0  0  0  0  0  0  0  0  0  0  0
   35.6021  -13.0495    0.0000 C   0  0  0  0  0  0  0  0  0  0  0  0
   35.0228  -11.6505    0.0000 C   0  0  0  0  0  0  0  0  0  0  0  0
   30.9625  -12.0598    0.0000 C   0  0  0  0  0  0  0  0  0  0  0  0
   31.4494  -11.4011    0.0000 C   0  0  0  0  0  0  0  0  0  0  0  0
   31.4426  -12.7306    0.0000 C   0  0  0  0  0  0  0  0  0  0  0  0
   31.0383  -13.4413    0.0000 O   0  0  0  0  0  0  0  0  0  0  0  0
   31.8114  -10.9464    0.0000 O   0  0  0  0  0  0  0  0  0  0  0  0
   32.2289  -12.4758    0.0000 C   0  0  0  0  0  0  0  0  0  0  0  0
   32.2290  -11.6561    0.0000 C   0  0  0  0  0  0  0  0  0  0  0  0
   32.8055  -11.0795    0.0000 C   0  0  0  0  0  0  0  0  0  0  0  0
   32.8057  -13.0525    0.0000 C   0  0  0  0  0  0  0  0  0  0  0  0
   34.2019  -12.4758    0.0000 C   0  0  0  0  0  0  0  0  0  0  0  0
   33.6252  -11.0794    0.0000 C   0  0  0  0  0  0  0  0  0  0  0  0
   32.4928  -10.3246    0.0000 O   0  0  0  0  0  0  0  0  0  0  0  0
   33.9379  -10.3244    0.0000 C   0  0  0  0  0  0  0  0  0  0  0  0
   36.3567  -13.3632    0.0000 O   0  0  0  0  0  0  0  0  0  0  0  0
   33.8906  -14.3796    0.0000 O   0  0  0  0  0  0  0  0  0  0  0  0
   34.3024  -15.0857    0.0000 C   0  0  0  0  0  0  0  0  0  0  0  0
   33.8971  -15.7953    0.0000 C   0  0  0  0  0  0  0  0  0  0  0  0
   35.1196  -15.0818    0.0000 O   0  0  0  0  0  0  0  0  0  0  0  0
   35.4417  -14.3259    0.0000 O   0  0  0  0  0  0  0  0  0  0  0  0
   30.2212  -13.4468    0.0000 C   0  0  0  0  0  0  0  0  0  0  0  0
   29.8174  -14.1573    0.0000 C   0  0  0  0  0  0  0  0  0  0  0  0
   29.8078  -12.7419    0.0000 O   0  0  0  0  0  0  0  0  0  0  0  0
   32.4944  -13.8080    0.0000 O   0  0  0  0  0  0  0  0  0  0  0  0
   32.4895  -14.6228    0.0000 C   0  0  0  0  0  0  0  0  0  0  0  0
   33.1948  -15.0355    0.0000 O   0  0  0  0  0  0  0  0  0  0  0  0
   31.7794  -15.0272    0.0000 C   0  0  0  0  0  0  0  0  0  0  0  0
   29.0000  -14.1578    0.0000 C   0  0  0  0  0  0  0  0  0  0  0  0
   28.5963  -14.8674    0.0000 C   0  0  0  0  0  0  0  0  0  0  0  0
   29.0098  -15.5733    0.0000 C   0  0  0  0  0  0  0  0  0  0  0  0
   29.8311  -15.5651    0.0000 C   0  0  0  0  0  0  0  0  0  0  0  0
   30.2312  -14.8550    0.0000 C   0  0  0  0  0  0  0  0  0  0  0  0
   30.2526  -11.6512    0.0000 C   0  0  0  0  0  0  0  0  0  0  0  0
   30.2526  -12.4642    0.0000 O   0  0  0  0  0  0  0  0  0  0  0  0
   33.0792  -15.7961    0.0000 C   0  0  0  0  0  0  0  0  0  0  0  0
   32.6740  -16.5049    0.0000 C   0  0  0  0  0  0  0  0  0  0  0  0
   33.0860  -17.2117    0.0000 C   0  0  0  0  0  0  0  0  0  0  0  0
   33.9074  -17.2052    0.0000 C   0  0  0  0  0  0  0  0  0  0  0  0
   34.3089  -16.4959    0.0000 C   0  0  0  0  0  0  0  0  0  0  0  0
   36.2588  -14.3137    0.0000 C   0  0  0  0  0  0  0  0  0  0  0  0
   36.6779  -15.0153    0.0000 C   0  0  0  0  0  0  0  0  0  0  0  0
   36.6568  -13.6000    0.0000 O   0  0  0  0  0  0  0  0  0  0  0  0
  2  1  1  0
  3  2  1  0
  4  6  1  0
  6  7  1  0
  7  8  1  0
  8  2  1  0
  2  9  1  0
  9  5  2  0
 16 11  1  0
 11 10  1  0
 10 12  1  0
 12 15  1  0
 12 13  1  0
 16 14  1  0
 15 16  1  0
 16 17  1  0
 15 18  1  0
 18  4  1  0
  4 19  2  0
  5 20  1  0
 20 17  1  0
 17 21  2  0
 20 22  1  0
  8 23  2  0
  6 24  1  0
 24 25  1  0
 25 26  1  0
 25 27  2  0
  7 28  1  0
 13 29  1  0
 29 30  1  0
 29 31  2  0
 18 32  1  0
 32 33  1  0
 33 34  2  0
 33 35  1  0
 30 36  2  0
 36 37  1  0
 37 38  2  0
 38 39  1  0
 39 40  2  0
 40 30  1  0
 10 41  1  0
 10 42  1  0
 26 43  2  0
 43 44  1  0
 44 45  2  0
 45 46  1  0
 46 47  2  0
 47 26  1  0
 28 48  1  0
 48 49  1  0
 48 50  2  0
M  END
>  <Classification>  (990) 
1

>  <pchembl>  (990) 
5.11

>  <InChI_steorem>  (990) 
InChI=1S/C38H42O12/c1-21-18-19-36(5,6)32(42)30(48-24(4)40)29(49-34(43)25-14-10-8-11-15-25)22(2)28(47-23(3)39)27-33(37(7,45)20-38(27,46)31(21)41)50-35(44)26-16-12-9-13-17-26/h8-19,21,27-30,33,45-46H,2,20H2,1,3-7H3

>  <source>  (990) 
ChEMBL28

>  <source_id>  (990) 
28

>  <optional_reference>  (990) 
10.1021/acs.jnatprod.8b00507

>  <optional_origin>  (990) 
None

>  <target>  (990) 
MDR1

$$$$

     RDKit          2D

 50 53  0  0  0  0  0  0  0  0999 V2000
    8.5805  -12.0061    0.0000 C   0  0  0  0  0  0  0  0  0  0  0  0
    8.1760  -12.7160    0.0000 C   0  0  0  0  0  0  0  0  0  0  0  0
    8.9931  -12.7113    0.0000 C   0  0  0  0  0  0  0  0  0  0  0  0
    6.2026  -13.5365    0.0000 C   0  0  0  0  0  0  0  0  0  0  0  0
    6.7777  -12.1376    0.0000 C   0  0  0  0  0  0  0  0  0  0  0  0
    6.7778  -14.1117    0.0000 C   0  0  0  0  0  0  0  0  0  0  0  0
    7.5974  -14.1117    0.0000 C   0  0  0  0  0  0  0  0  0  0  0  0
    8.1767  -13.5365    0.0000 C   0  0  0  0  0  0  0  0  0  0  0  0
    7.5974  -12.1375    0.0000 C   0  0  0  0  0  0  0  0  0  0  0  0
    3.5370  -12.5468    0.0000 C   0  0  0  0  0  0  0  0  0  0  0  0
    4.0239  -11.8881    0.0000 C   0  0  0  0  0  0  0  0  0  0  0  0
    4.0172  -13.2176    0.0000 C   0  0  0  0  0  0  0  0  0  0  0  0
    3.6129  -13.9283    0.0000 O   0  0  0  0  0  0  0  0  0  0  0  0
    4.3859  -11.4334    0.0000 O   0  0  0  0  0  0  0  0  0  0  0  0
    4.8034  -12.9628    0.0000 C   0  0  0  0  0  0  0  0  0  0  0  0
    4.8035  -12.1431    0.0000 C   0  0  0  0  0  0  0  0  0  0  0  0
    5.3801  -11.5665    0.0000 C   0  0  0  0  0  0  0  0  0  0  0  0
    5.3802  -13.5395    0.0000 C   0  0  0  0  0  0  0  0  0  0  0  0
    6.7765  -12.9628    0.0000 C   0  0  0  0  0  0  0  0  0  0  0  0
    6.1998  -11.5664    0.0000 C   0  0  0  0  0  0  0  0  0  0  0  0
    6.5125  -10.8114    0.0000 C   0  0  0  0  0  0  0  0  0  0  0  0
    8.9313  -13.8503    0.0000 O   0  0  0  0  0  0  0  0  0  0  0  0
    6.4651  -14.8667    0.0000 O   0  0  0  0  0  0  0  0  0  0  0  0
    6.8770  -15.5727    0.0000 C   0  0  0  0  0  0  0  0  0  0  0  0
    6.4717  -16.2823    0.0000 C   0  0  0  0  0  0  0  0  0  0  0  0
    7.6942  -15.5689    0.0000 O   0  0  0  0  0  0  0  0  0  0  0  0
    8.0163  -14.8129    0.0000 O   0  0  0  0  0  0  0  0  0  0  0  0
    8.8334  -14.8011    0.0000 C   0  0  0  0  0  0  0  0  0  0  0  0
    9.2522  -15.5028    0.0000 C   0  0  0  0  0  0  0  0  0  0  0  0
    9.2317  -14.0875    0.0000 O   0  0  0  0  0  0  0  0  0  0  0  0
    2.7957  -13.9339    0.0000 C   0  0  0  0  0  0  0  0  0  0  0  0
    2.3920  -14.6443    0.0000 C   0  0  0  0  0  0  0  0  0  0  0  0
    2.3824  -13.2289    0.0000 O   0  0  0  0  0  0  0  0  0  0  0  0
    1.5766  -14.6464    0.0000 C   0  0  0  0  0  0  0  0  0  0  0  0
    1.1729  -15.3560    0.0000 C   0  0  0  0  0  0  0  0  0  0  0  0
    1.5864  -16.0619    0.0000 C   0  0  0  0  0  0  0  0  0  0  0  0
    2.4078  -16.0537    0.0000 C   0  0  0  0  0  0  0  0  0  0  0  0
    2.8078  -15.3435    0.0000 C   0  0  0  0  0  0  0  0  0  0  0  0
    5.0689  -14.2951    0.0000 O   0  0  0  0  0  0  0  0  0  0  0  0
    5.0677  -10.8110    0.0000 O   0  0  0  0  0  0  0  0  0  0  0  0
    5.4508  -10.0892    0.0000 C   0  0  0  0  0  0  0  0  0  0  0  0
    5.0173   -9.3965    0.0000 O   0  0  0  0  0  0  0  0  0  0  0  0
    6.2675  -10.0601    0.0000 C   0  0  0  0  0  0  0  0  0  0  0  0
    2.9551  -11.9648    0.0000 C   0  0  0  0  0  0  0  0  0  0  0  0
    2.8272  -12.9512    0.0000 O   0  0  0  0  0  0  0  0  0  0  0  0
    5.6538  -16.2832    0.0000 C   0  0  0  0  0  0  0  0  0  0  0  0
    5.2486  -16.9919    0.0000 C   0  0  0  0  0  0  0  0  0  0  0  0
    5.6606  -17.6987    0.0000 C   0  0  0  0  0  0  0  0  0  0  0  0
    6.4820  -17.6922    0.0000 C   0  0  0  0  0  0  0  0  0  0  0  0
    6.8835  -16.9829    0.0000 C   0  0  0  0  0  0  0  0  0  0  0  0
  2  1  1  0
  3  2  1  0
  4  6  1  0
  6  7  1  0
  7  8  1  0
  8  2  1  0
  2  9  1  0
  9  5  2  0
 16 11  1  0
 11 10  1  0
 10 12  1  0
 12 15  1  0
 12 13  1  0
 16 14  1  0
 15 16  1  0
 16 17  1  0
 15 18  1  0
 18  4  1  0
  4 19  2  0
  5 20  1  0
 20 17  1  0
 20 21  1  0
  8 22  2  0
  6 23  1  0
 23 24  1  0
 24 25  1  0
 24 26  2  0
  7 27  1  0
 27 28  1  0
 28 29  1  0
 28 30  2  0
 13 31  1  0
 31 32  1  0
 31 33  2  0
 32 34  2  0
 34 35  1  0
 35 36  2  0
 36 37  1  0
 37 38  2  0
 38 32  1  0
 18 39  1  0
 17 40  1  0
 40 41  1  0
 41 42  2  0
 41 43  1  0
 10 44  1  0
 10 45  1  0
 25 46  2  0
 46 47  1  0
 47 48  2  0
 48 49  1  0
 49 50  2  0
 50 25  1  0
M  END
>  <Classification>  (991) 
0

>  <pchembl>  (991) 
4.55

>  <InChI_steorem>  (991) 
InChI=1S/C38H44O12/c1-21-18-19-36(5,6)31(42)30(47-23(3)39)29(49-34(43)25-14-10-8-11-15-25)22(2)28(41)27-33(50-35(44)26-16-12-9-13-17-26)37(7,45)20-38(27,46)32(21)48-24(4)40/h8-19,21,27-30,32-33,41,45-46H,2,20H2,1,3-7H3

>  <source>  (991) 
ChEMBL28

>  <source_id>  (991) 
28

>  <optional_reference>  (991) 
10.1021/acs.jnatprod.8b00507

>  <optional_origin>  (991) 
None

>  <target>  (991) 
MDR1

$$$$

     RDKit          2D

 52 55  0  0  0  0  0  0  0  0999 V2000
   17.8090   -2.5259    0.0000 C   0  0  0  0  0  0  0  0  0  0  0  0
   17.4045   -3.2357    0.0000 C   0  0  0  0  0  0  0  0  0  0  0  0
   18.2215   -3.2311    0.0000 C   0  0  0  0  0  0  0  0  0  0  0  0
   15.4310   -4.0562    0.0000 C   0  0  0  0  0  0  0  0  0  0  0  0
   16.0062   -2.6574    0.0000 C   0  0  0  0  0  0  0  0  0  0  0  0
   16.0063   -4.6314    0.0000 C   0  0  0  0  0  0  0  0  0  0  0  0
   16.8259   -4.6314    0.0000 C   0  0  0  0  0  0  0  0  0  0  0  0
   17.4052   -4.0562    0.0000 C   0  0  0  0  0  0  0  0  0  0  0  0
   16.8259   -2.6573    0.0000 C   0  0  0  0  0  0  0  0  0  0  0  0
   12.7655   -3.0665    0.0000 C   0  0  0  0  0  0  0  0  0  0  0  0
   13.2524   -2.4078    0.0000 C   0  0  0  0  0  0  0  0  0  0  0  0
   13.2456   -3.7374    0.0000 C   0  0  0  0  0  0  0  0  0  0  0  0
   12.8414   -4.4481    0.0000 O   0  0  0  0  0  0  0  0  0  0  0  0
   13.6144   -1.9531    0.0000 O   0  0  0  0  0  0  0  0  0  0  0  0
   14.0319   -3.4826    0.0000 C   0  0  0  0  0  0  0  0  0  0  0  0
   14.0320   -2.6629    0.0000 C   0  0  0  0  0  0  0  0  0  0  0  0
   14.6086   -2.0863    0.0000 C   0  0  0  0  0  0  0  0  0  0  0  0
   14.6087   -4.0592    0.0000 C   0  0  0  0  0  0  0  0  0  0  0  0
   16.0050   -3.4825    0.0000 C   0  0  0  0  0  0  0  0  0  0  0  0
   15.4283   -2.0862    0.0000 C   0  0  0  0  0  0  0  0  0  0  0  0
   14.2958   -1.3313    0.0000 O   0  0  0  0  0  0  0  0  0  0  0  0
   15.7410   -1.3312    0.0000 C   0  0  0  0  0  0  0  0  0  0  0  0
   18.1597   -4.3700    0.0000 O   0  0  0  0  0  0  0  0  0  0  0  0
   15.6936   -5.3864    0.0000 O   0  0  0  0  0  0  0  0  0  0  0  0
   16.1055   -6.0924    0.0000 C   0  0  0  0  0  0  0  0  0  0  0  0
   15.7002   -6.8020    0.0000 C   0  0  0  0  0  0  0  0  0  0  0  0
   16.9226   -6.0886    0.0000 O   0  0  0  0  0  0  0  0  0  0  0  0
   17.2447   -5.3326    0.0000 O   0  0  0  0  0  0  0  0  0  0  0  0
   12.0242   -4.4536    0.0000 C   0  0  0  0  0  0  0  0  0  0  0  0
   11.6204   -5.1641    0.0000 C   0  0  0  0  0  0  0  0  0  0  0  0
   11.6108   -3.7487    0.0000 O   0  0  0  0  0  0  0  0  0  0  0  0
   14.2974   -4.8148    0.0000 O   0  0  0  0  0  0  0  0  0  0  0  0
   14.2926   -5.6295    0.0000 C   0  0  0  0  0  0  0  0  0  0  0  0
   14.9979   -6.0423    0.0000 O   0  0  0  0  0  0  0  0  0  0  0  0
   13.5825   -6.0339    0.0000 C   0  0  0  0  0  0  0  0  0  0  0  0
   11.9484   -3.0603    0.0000 C   0  0  0  0  0  0  0  0  0  0  0  0
   12.7972   -1.9599    0.0000 C   0  0  0  0  0  0  0  0  0  0  0  0
   12.3828   -1.2556    0.0000 O   0  0  0  0  0  0  0  0  0  0  0  0
   12.3945   -2.6709    0.0000 C   0  0  0  0  0  0  0  0  0  0  0  0
   18.0618   -5.3205    0.0000 C   0  0  0  0  0  0  0  0  0  0  0  0
   18.4809   -6.0221    0.0000 C   0  0  0  0  0  0  0  0  0  0  0  0
   18.4599   -4.6068    0.0000 O   0  0  0  0  0  0  0  0  0  0  0  0
   10.8031   -5.1646    0.0000 C   0  0  0  0  0  0  0  0  0  0  0  0
   10.3994   -5.8742    0.0000 C   0  0  0  0  0  0  0  0  0  0  0  0
   10.8128   -6.5801    0.0000 C   0  0  0  0  0  0  0  0  0  0  0  0
   11.6342   -6.5719    0.0000 C   0  0  0  0  0  0  0  0  0  0  0  0
   12.0342   -5.8617    0.0000 C   0  0  0  0  0  0  0  0  0  0  0  0
   14.8823   -6.8029    0.0000 C   0  0  0  0  0  0  0  0  0  0  0  0
   14.4771   -7.5117    0.0000 C   0  0  0  0  0  0  0  0  0  0  0  0
   14.8890   -8.2185    0.0000 C   0  0  0  0  0  0  0  0  0  0  0  0
   15.7104   -8.2120    0.0000 C   0  0  0  0  0  0  0  0  0  0  0  0
   16.1119   -7.5027    0.0000 C   0  0  0  0  0  0  0  0  0  0  0  0
  2  1  1  0
  3  2  1  0
  4  6  1  0
  6  7  1  0
  7  8  1  0
  8  2  1  0
  2  9  1  0
  9  5  2  0
 16 11  1  0
 11 10  1  0
 10 12  1  0
 12 15  1  0
 12 13  1  0
 16 14  1  0
 15 16  1  0
 16 17  1  0
 15 18  1  0
 18  4  1  0
  4 19  2  0
  5 20  1  0
 20 17  1  0
 17 21  2  0
 20 22  1  0
  8 23  2  0
  6 24  1  0
 24 25  1  0
 25 26  1  0
 25 27  2  0
  7 28  1  0
 13 29  1  0
 29 30  1  0
 29 31  2  0
 18 32  1  0
 32 33  1  0
 33 34  2  0
 33 35  1  0
 10 36  1  0
 14 37  1  0
 37 38  2  0
 37 39  1  0
 28 40  1  0
 40 41  1  0
 40 42  2  0
 30 43  2  0
 43 44  1  0
 44 45  2  0
 45 46  1  0
 46 47  2  0
 47 30  1  0
 26 48  2  0
 48 49  1  0
 49 50  2  0
 50 51  1  0
 51 52  2  0
 52 26  1  0
M  END
>  <Classification>  (992) 
1

>  <pchembl>  (992) 
5.1

>  <InChI_steorem>  (992) 
InChI=1S/C40H44O12/c1-22-19-20-39(7,8)36(45)34(49-26(5)42)33(51-38(47)29-17-13-10-14-18-29)24(3)32(48-25(4)41)30-31(50-37(46)28-15-11-9-12-16-28)23(2)21-40(30,35(22)44)52-27(6)43/h9-20,22-23,30-34H,3,21H2,1-2,4-8H3

>  <source>  (992) 
ChEMBL28

>  <source_id>  (992) 
28

>  <optional_reference>  (992) 
10.1021/acs.jnatprod.8b00507

>  <optional_origin>  (992) 
None

>  <target>  (992) 
MDR1

$$$$

     RDKit          2D

 52 55  0  0  0  0  0  0  0  0999 V2000
    7.5735   -2.5465    0.0000 C   0  0  0  0  0  0  0  0  0  0  0  0
    7.1690   -3.2564    0.0000 C   0  0  0  0  0  0  0  0  0  0  0  0
    7.9860   -3.2517    0.0000 C   0  0  0  0  0  0  0  0  0  0  0  0
    5.1955   -4.0769    0.0000 C   0  0  0  0  0  0  0  0  0  0  0  0
    5.7707   -2.6780    0.0000 C   0  0  0  0  0  0  0  0  0  0  0  0
    5.7708   -4.6520    0.0000 C   0  0  0  0  0  0  0  0  0  0  0  0
    6.5904   -4.6520    0.0000 C   0  0  0  0  0  0  0  0  0  0  0  0
    7.1697   -4.0769    0.0000 C   0  0  0  0  0  0  0  0  0  0  0  0
    6.5904   -2.6779    0.0000 C   0  0  0  0  0  0  0  0  0  0  0  0
    2.5300   -3.0872    0.0000 C   0  0  0  0  0  0  0  0  0  0  0  0
    3.0169   -2.4285    0.0000 C   0  0  0  0  0  0  0  0  0  0  0  0
    3.0101   -3.7580    0.0000 C   0  0  0  0  0  0  0  0  0  0  0  0
    2.6059   -4.4687    0.0000 O   0  0  0  0  0  0  0  0  0  0  0  0
    3.3789   -1.9738    0.0000 O   0  0  0  0  0  0  0  0  0  0  0  0
    3.7964   -3.5032    0.0000 C   0  0  0  0  0  0  0  0  0  0  0  0
    3.7965   -2.6835    0.0000 C   0  0  0  0  0  0  0  0  0  0  0  0
    4.3731   -2.1069    0.0000 C   0  0  0  0  0  0  0  0  0  0  0  0
    4.3732   -4.0799    0.0000 C   0  0  0  0  0  0  0  0  0  0  0  0
    5.7694   -3.5032    0.0000 C   0  0  0  0  0  0  0  0  0  0  0  0
    5.1927   -2.1068    0.0000 C   0  0  0  0  0  0  0  0  0  0  0  0
    4.0603   -1.3520    0.0000 O   0  0  0  0  0  0  0  0  0  0  0  0
    5.5054   -1.3518    0.0000 C   0  0  0  0  0  0  0  0  0  0  0  0
    7.9242   -4.3906    0.0000 O   0  0  0  0  0  0  0  0  0  0  0  0
    5.4581   -5.4070    0.0000 O   0  0  0  0  0  0  0  0  0  0  0  0
    5.8699   -6.1131    0.0000 C   0  0  0  0  0  0  0  0  0  0  0  0
    5.4646   -6.8227    0.0000 C   0  0  0  0  0  0  0  0  0  0  0  0
    6.6871   -6.1093    0.0000 O   0  0  0  0  0  0  0  0  0  0  0  0
    7.0092   -5.3533    0.0000 O   0  0  0  0  0  0  0  0  0  0  0  0
    1.7887   -4.4743    0.0000 C   0  0  0  0  0  0  0  0  0  0  0  0
    1.3849   -5.1847    0.0000 C   0  0  0  0  0  0  0  0  0  0  0  0
    1.3753   -3.7693    0.0000 O   0  0  0  0  0  0  0  0  0  0  0  0
    4.0619   -4.8354    0.0000 O   0  0  0  0  0  0  0  0  0  0  0  0
    4.0571   -5.6502    0.0000 C   0  0  0  0  0  0  0  0  0  0  0  0
    4.7623   -6.0630    0.0000 O   0  0  0  0  0  0  0  0  0  0  0  0
    3.3470   -6.0546    0.0000 C   0  0  0  0  0  0  0  0  0  0  0  0
    1.7128   -3.0809    0.0000 C   0  0  0  0  0  0  0  0  0  0  0  0
    2.5617   -1.9805    0.0000 C   0  0  0  0  0  0  0  0  0  0  0  0
    2.1473   -1.2762    0.0000 O   0  0  0  0  0  0  0  0  0  0  0  0
    2.1590   -2.6916    0.0000 C   0  0  0  0  0  0  0  0  0  0  0  0
    2.6455   -5.6411    0.0000 C   0  0  0  0  0  0  0  0  0  0  0  0
    1.9359   -6.0449    0.0000 C   0  0  0  0  0  0  0  0  0  0  0  0
    1.9306   -6.8629    0.0000 C   0  0  0  0  0  0  0  0  0  0  0  0
    2.6409   -7.2755    0.0000 C   0  0  0  0  0  0  0  0  0  0  0  0
    3.3476   -6.8695    0.0000 C   0  0  0  0  0  0  0  0  0  0  0  0
    7.8263   -5.3411    0.0000 C   0  0  0  0  0  0  0  0  0  0  0  0
    8.2454   -6.0427    0.0000 C   0  0  0  0  0  0  0  0  0  0  0  0
    8.2244   -4.6274    0.0000 O   0  0  0  0  0  0  0  0  0  0  0  0
    7.8453   -6.7560    0.0000 C   0  0  0  0  0  0  0  0  0  0  0  0
    8.2637   -7.4571    0.0000 C   0  0  0  0  0  0  0  0  0  0  0  0
    9.0817   -7.4454    0.0000 C   0  0  0  0  0  0  0  0  0  0  0  0
    9.4795   -6.7267    0.0000 C   0  0  0  0  0  0  0  0  0  0  0  0
    9.0588   -6.0286    0.0000 C   0  0  0  0  0  0  0  0  0  0  0  0
  2  1  1  0
  3  2  1  0
  4  6  1  0
  6  7  1  0
  7  8  1  0
  8  2  1  0
  2  9  1  0
  9  5  2  0
 16 11  1  0
 11 10  1  0
 10 12  1  0
 12 15  1  0
 12 13  1  0
 16 14  1  0
 15 16  1  0
 16 17  1  0
 15 18  1  0
 18  4  1  0
  4 19  2  0
  5 20  1  0
 20 17  1  0
 17 21  2  0
 20 22  1  0
  8 23  2  0
  6 24  1  0
 24 25  1  0
 25 26  1  0
 25 27  2  0
  7 28  1  0
 13 29  1  0
 29 30  1  0
 29 31  2  0
 18 32  1  0
 32 33  1  0
 33 34  2  0
 33 35  1  0
 10 36  1  0
 14 37  1  0
 37 38  2  0
 37 39  1  0
 35 40  2  0
 40 41  1  0
 41 42  2  0
 42 43  1  0
 43 44  2  0
 44 35  1  0
 28 45  1  0
 45 46  1  0
 45 47  2  0
 46 48  2  0
 48 49  1  0
 49 50  2  0
 50 51  1  0
 51 52  2  0
 52 46  1  0
M  END
>  <Classification>  (993) 
1

>  <pchembl>  (993) 
5.14

>  <InChI_steorem>  (993) 
InChI=1S/C40H44O12/c1-22-19-20-39(7,8)36(45)34(51-38(47)29-17-13-10-14-18-29)33(49-26(5)42)24(3)32(50-37(46)28-15-11-9-12-16-28)30-31(48-25(4)41)23(2)21-40(30,35(22)44)52-27(6)43/h9-20,22-23,30-34H,3,21H2,1-2,4-8H3

>  <source>  (993) 
ChEMBL28

>  <source_id>  (993) 
28

>  <optional_reference>  (993) 
10.1021/acs.jnatprod.8b00507

>  <optional_origin>  (993) 
None

>  <target>  (993) 
MDR1

$$$$

     RDKit          2D

 49 53  0  0  0  0  0  0  0  0999 V2000
   11.8774  -14.7995    0.0000 C   0  0  0  0  0  0  0  0  0  0  0  0
   11.1650  -15.2081    0.0000 C   0  0  0  0  0  0  0  0  0  0  0  0
    9.7528  -15.2059    0.0000 C   0  0  0  0  0  0  0  0  0  0  0  0
   11.8858  -13.9823    0.0000 C   0  0  0  0  0  0  0  0  0  0  0  0
   12.6632  -13.7350    0.0000 C   0  0  0  0  0  0  0  0  0  0  0  0
   10.4589  -14.7973    0.0000 C   0  0  0  0  0  0  0  0  0  0  0  0
    9.7528  -16.0231    0.0000 C   0  0  0  0  0  0  0  0  0  0  0  0
    9.0466  -16.4317    0.0000 C   0  0  0  0  0  0  0  0  0  0  0  0
   12.6465  -15.0614    0.0000 C   0  0  0  0  0  0  0  0  0  0  0  0
   13.1367  -14.4055    0.0000 C   0  0  0  0  0  0  0  0  0  0  0  0
    7.6385  -16.4338    0.0000 N   0  0  0  0  0  0  0  0  0  0  0  0
    8.3446  -16.0231    0.0000 C   0  0  0  0  0  0  0  0  0  0  0  0
   11.1650  -16.0231    0.0000 C   0  0  0  0  0  0  0  0  0  0  0  0
   11.1734  -13.5715    0.0000 C   0  0  0  0  0  0  0  0  0  0  0  0
    9.0466  -14.7973    0.0000 C   0  0  0  0  0  0  0  0  0  0  0  0
   10.4589  -13.9718    0.0000 C   0  0  0  0  0  0  0  0  0  0  0  0
   10.4589  -16.4317    0.0000 C   0  0  0  0  0  0  0  0  0  0  0  0
    8.3446  -15.2059    0.0000 C   0  0  0  0  0  0  0  0  0  0  0  0
   11.8712  -15.6167    0.0000 C   0  0  0  0  0  0  0  0  0  0  0  0
   11.1545  -14.3887    0.0000 C   0  0  0  0  0  0  0  0  0  0  0  0
    9.7423  -14.3887    0.0000 C   0  0  0  0  0  0  0  0  0  0  0  0
    9.0466  -17.3265    0.0000 C   0  0  0  0  0  0  0  0  0  0  0  0
    8.3656  -16.8822    0.0000 C   0  0  0  0  0  0  0  0  0  0  0  0
   11.1789  -12.7565    0.0000 O   0  0  0  0  0  0  0  0  0  0  0  0
   12.9196  -12.9639    0.0000 C   0  0  0  0  0  0  0  0  0  0  0  0
   13.6929  -12.7195    0.0000 C   0  0  0  0  0  0  0  0  0  0  0  0
   13.7016  -11.9087    0.0000 C   0  0  0  0  0  0  0  0  0  0  0  0
   12.9345  -11.6522    0.0000 C   0  0  0  0  0  0  0  0  0  0  0  0
   12.4505  -12.3017    0.0000 O   0  0  0  0  0  0  0  0  0  0  0  0
   12.6941  -10.8732    0.0000 C   0  0  0  0  0  0  0  0  0  0  0  0
   13.2409  -10.2753    0.0000 O   0  0  0  0  0  0  0  0  0  0  0  0
   11.8943  -10.6983    0.0000 C   0  0  0  0  0  0  0  0  0  0  0  0
   12.4746  -10.0828    0.0000 C   0  0  0  0  0  0  0  0  0  0  0  0
   13.4972  -13.5380    0.0000 C   0  0  0  0  0  0  0  0  0  0  0  0
    6.9295  -16.0275    0.0000 C   0  0  0  0  0  0  0  0  0  0  0  0
    6.2231  -16.4384    0.0000 C   0  0  0  0  0  0  0  0  0  0  0  0
    6.9269  -15.2103    0.0000 O   0  0  0  0  0  0  0  0  0  0  0  0
    6.2257  -17.2556    0.0000 C   0  0  0  0  0  0  0  0  0  0  0  0
    5.5193  -17.6665    0.0000 C   0  0  0  0  0  0  0  0  0  0  0  0
    5.5220  -18.4836    0.0000 C   0  0  0  0  0  0  0  0  0  0  0  0
    4.8156  -18.8945    0.0000 C   0  0  0  0  0  0  0  0  0  0  0  0
    4.1066  -18.4882    0.0000 N   0  0  0  0  0  0  0  0  0  0  0  0
    3.4002  -18.8991    0.0000 C   0  0  0  0  0  0  0  0  0  0  0  0
    2.6911  -18.4928    0.0000 O   0  0  0  0  0  0  0  0  0  0  0  0
    3.4028  -19.7163    0.0000 O   0  0  0  0  0  0  0  0  0  0  0  0
    2.6885  -17.6756    0.0000 C   0  0  0  0  0  0  0  0  0  0  0  0
    1.9795  -17.2693    0.0000 C   0  0  0  0  0  0  0  0  0  0  0  0
    3.3949  -17.2647    0.0000 C   0  0  0  0  0  0  0  0  0  0  0  0
    2.6827  -16.8556    0.0000 C   0  0  0  0  0  0  0  0  0  0  0  0
  2  1  1  0
  3  6  1  0
  4  1  1  0
  5  4  1  0
  6  2  1  0
  7 17  1  0
  8  7  1  0
  9  1  1  0
 10  9  1  0
 12 11  1  0
 12  8  1  0
 13  2  1  0
 14  4  1  0
 15  3  1  0
 16 14  1  0
 17 13  1  0
 18 15  1  0
  1 19  1  0
  2 20  1  0
  3 21  1  0
 22  8  1  0
 23  8  1  0
  5 10  1  0
 16  6  1  0
  7  3  1  0
 12 18  1  0
 14 24  1  0
  5 25  1  0
 25 26  1  0
 26 27  1  0
 27 28  1  0
 28 29  1  0
 29 25  1  0
 28 30  1  0
 30 31  1  0
 30 32  1  0
 30 33  1  0
 25 34  1  0
 11 35  1  0
 35 36  1  0
 35 37  2  0
 36 38  1  0
 38 39  1  0
 39 40  1  0
 40 41  1  0
 41 42  1  0
 42 43  1  0
 43 44  1  0
 43 45  2  0
 44 46  1  0
 46 47  1  0
 46 48  1  0
 46 49  1  0
M  END
>  <Classification>  (994) 
1

>  <pchembl>  (994) 
7.32

>  <InChI_steorem>  (994) 
InChI=1S/C41H72N2O6/c1-35(2,3)49-34(46)42-24-14-12-13-15-32(45)43-30-18-20-38(8)28(36(30,4)5)17-22-39(9)29(38)25-27(44)33-26(16-21-40(33,39)10)41(11)23-19-31(48-41)37(6,7)47/h26-31,33,44,47H,12-25H2,1-11H3,(H,42,46)(H,43,45)

>  <source>  (994) 
ChEMBL28

>  <source_id>  (994) 
28

>  <optional_reference>  (994) 
10.1016/j.ejmech.2018.10.038

>  <optional_origin>  (994) 
None

>  <target>  (994) 
MDR1

$$$$

     RDKit          2D

 50 57  0  0  0  0  0  0  0  0999 V2000
   26.5458  -23.7615    0.0000 C   0  0  0  0  0  0  0  0  0  0  0  0
   26.5073  -24.5600    0.0000 C   0  0  0  0  0  0  0  0  0  0  0  0
   25.8590  -25.0168    0.0000 C   0  0  0  0  0  0  0  0  0  0  0  0
   25.0876  -24.8048    0.0000 N   0  0  0  0  0  0  0  0  0  0  0  0
   24.7793  -24.0646    0.0000 C   0  0  0  0  0  0  0  0  0  0  0  0
   25.1612  -23.3669    0.0000 C   0  0  0  0  0  0  0  0  0  0  0  0
   25.9488  -23.2271    0.0000 C   0  0  0  0  0  0  0  0  0  0  0  0
   26.0602  -22.4357    0.0000 C   0  0  0  0  0  0  0  0  0  0  0  0
   25.3399  -22.0843    0.0000 C   0  0  0  0  0  0  0  0  0  0  0  0
   24.7839  -22.6536    0.0000 O   0  0  0  0  0  0  0  0  0  0  0  0
   25.2040  -21.2957    0.0000 O   0  0  0  0  0  0  0  0  0  0  0  0
   25.8157  -24.0028    0.0000 C   0  0  0  0  0  0  0  0  0  0  0  0
   23.9826  -23.9608    0.0000 C   0  0  0  0  0  0  0  0  0  0  0  0
   23.4964  -24.5949    0.0000 C   0  0  0  0  0  0  0  0  0  0  0  0
   23.8046  -25.3435    0.0000 C   0  0  0  0  0  0  0  0  0  0  0  0
   24.6032  -25.4414    0.0000 C   0  0  0  0  0  0  0  0  0  0  0  0
   27.2163  -24.9433    0.0000 N   0  0  0  0  0  0  0  0  0  0  0  0
   27.2318  -25.7437    0.0000 C   0  0  0  0  0  0  0  0  0  0  0  0
   26.5464  -26.1609    0.0000 C   0  0  0  0  0  0  0  0  0  0  0  0
   26.5660  -26.9614    0.0000 C   0  0  0  0  0  0  0  0  0  0  0  0
   27.8975  -24.5261    0.0000 C   0  0  0  0  0  0  0  0  0  0  0  0
   28.5983  -24.9094    0.0000 C   0  0  0  0  0  0  0  0  0  0  0  0
   29.2836  -24.4922    0.0000 C   0  0  0  0  0  0  0  0  0  0  0  0
   29.9885  -24.8754    0.0000 C   0  0  0  0  0  0  0  0  0  0  0  0
   30.6698  -24.4583    0.0000 C   0  0  0  0  0  0  0  0  0  0  0  0
   31.3705  -24.8415    0.0000 C   0  0  0  0  0  0  0  0  0  0  0  0
   32.0653  -24.4222    0.0000 C   0  0  0  0  0  0  0  0  0  0  0  0
   32.7774  -24.8117    0.0000 C   0  0  0  0  0  0  0  0  0  0  0  0
   33.4722  -24.3923    0.0000 N   0  0  0  0  0  0  0  0  0  0  0  0
   34.1884  -24.7859    0.0000 C   0  0  0  0  0  0  0  0  0  0  0  0
   34.8469  -24.3140    0.0000 C   0  0  0  0  0  0  0  0  0  0  0  0
   35.6325  -24.5357    0.0000 C   0  0  0  0  0  0  0  0  0  0  0  0
   35.9453  -25.2842    0.0000 C   0  0  0  0  0  0  0  0  0  0  0  0
   35.5554  -25.9948    0.0000 C   0  0  0  0  0  0  0  0  0  0  0  0
   34.7547  -26.1345    0.0000 N   0  0  0  0  0  0  0  0  0  0  0  0
   34.1452  -25.5993    0.0000 C   0  0  0  0  0  0  0  0  0  0  0  0
   34.9617  -25.0759    0.0000 C   0  0  0  0  0  0  0  0  0  0  0  0
   34.4749  -26.8931    0.0000 C   0  0  0  0  0  0  0  0  0  0  0  0
   34.9963  -27.5170    0.0000 C   0  0  0  0  0  0  0  0  0  0  0  0
   35.7970  -27.3773    0.0000 C   0  0  0  0  0  0  0  0  0  0  0  0
   36.0763  -26.6135    0.0000 C   0  0  0  0  0  0  0  0  0  0  0  0
   36.7548  -25.2154    0.0000 O   0  0  0  0  0  0  0  0  0  0  0  0
   36.9409  -24.4244    0.0000 C   0  0  0  0  0  0  0  0  0  0  0  0
   36.2463  -24.0019    0.0000 C   0  0  0  0  0  0  0  0  0  0  0  0
   37.6899  -24.1073    0.0000 O   0  0  0  0  0  0  0  0  0  0  0  0
   33.4591  -23.5795    0.0000 C   0  0  0  0  0  0  0  0  0  0  0  0
   34.1539  -23.1602    0.0000 C   0  0  0  0  0  0  0  0  0  0  0  0
   34.1366  -22.3473    0.0000 C   0  0  0  0  0  0  0  0  0  0  0  0
   32.7946  -25.6245    0.0000 O   0  0  0  0  0  0  0  0  0  0  0  0
   27.8779  -23.7256    0.0000 O   0  0  0  0  0  0  0  0  0  0  0  0
  1  2  1  0
  2  3  1  0
  4  3  1  0
  4  5  1  0
  6  5  1  0
  6  7  1  0
  7  1  1  0
  7  8  2  0
  8  9  1  0
  9 10  1  0
 10  6  1  0
  9 11  2  0
  6 12  1  0
  3 12  1  0
  5 13  1  0
 13 14  1  0
 14 15  1  0
 15 16  1  0
  4 16  1  0
  2 17  1  0
 17 18  1  0
 18 19  1  0
 19 20  1  0
 17 21  1  0
 21 22  1  0
 22 23  1  0
 23 24  1  0
 24 25  1  0
 25 26  1  0
 26 27  1  0
 27 28  1  0
 28 29  1  0
 30 29  1  0
 30 31  1  0
 31 32  1  0
 32 33  1  0
 33 34  1  0
 34 35  1  0
 36 35  1  0
 30 36  1  0
 36 37  1  0
 33 37  1  0
 35 38  1  0
 38 39  1  0
 39 40  1  0
 40 41  1  0
 34 41  1  0
 33 42  1  0
 42 43  1  0
 43 44  1  0
 44 32  2  0
 43 45  2  0
 29 46  1  0
 46 47  1  0
 47 48  1  0
 28 49  2  0
 21 50  2  0
M  END
>  <Classification>  (995) 
0

>  <pchembl>  (995) 
4.84

>  <InChI_steorem>  (995) 
InChI=1S/C40H58N4O6/c1-3-17-43(29-21-27-23-37(47)49-39(27)25-31(29)41-19-11-9-13-33(39)41)35(45)15-7-5-6-8-16-36(46)44(18-4-2)30-22-28-24-38(48)50-40(28)26-32(30)42-20-12-10-14-34(40)42/h23-24,29-34H,3-22,25-26H2,1-2H3

>  <source>  (995) 
ChEMBL28

>  <source_id>  (995) 
28

>  <optional_reference>  (995) 
10.1016/j.ejmech.2019.111726

>  <optional_origin>  (995) 
None

>  <target>  (995) 
MDR1

$$$$

     RDKit          2D

 55 58  0  0  0  0  0  0  0  0999 V2000
   35.1125   -2.0833    0.0000 C   0  0  0  0  0  0  0  0  0  0  0  0
   34.7041   -2.8000    0.0000 C   0  0  0  0  0  0  0  0  0  0  0  0
   35.5289   -2.7953    0.0000 C   0  0  0  0  0  0  0  0  0  0  0  0
   32.7118   -3.6283    0.0000 C   0  0  0  0  0  0  0  0  0  0  0  0
   33.2925   -2.2161    0.0000 C   0  0  0  0  0  0  0  0  0  0  0  0
   33.2926   -4.2090    0.0000 C   0  0  0  0  0  0  0  0  0  0  0  0
   34.1199   -4.2090    0.0000 C   0  0  0  0  0  0  0  0  0  0  0  0
   34.7047   -3.6283    0.0000 C   0  0  0  0  0  0  0  0  0  0  0  0
   34.1199   -2.2160    0.0000 C   0  0  0  0  0  0  0  0  0  0  0  0
   30.0208   -2.6292    0.0000 C   0  0  0  0  0  0  0  0  0  0  0  0
   30.5124   -1.9642    0.0000 C   0  0  0  0  0  0  0  0  0  0  0  0
   30.5055   -3.3064    0.0000 C   0  0  0  0  0  0  0  0  0  0  0  0
   30.0974   -4.0239    0.0000 O   0  0  0  0  0  0  0  0  0  0  0  0
   29.1958   -2.6228    0.0000 C   0  0  0  0  0  0  0  0  0  0  0  0
   30.8778   -1.5051    0.0000 O   0  0  0  0  0  0  0  0  0  0  0  0
   31.2993   -3.0492    0.0000 C   0  0  0  0  0  0  0  0  0  0  0  0
   31.2994   -2.2216    0.0000 C   0  0  0  0  0  0  0  0  0  0  0  0
   31.8815   -1.6396    0.0000 C   0  0  0  0  0  0  0  0  0  0  0  0
   31.8816   -3.6314    0.0000 C   0  0  0  0  0  0  0  0  0  0  0  0
   33.2912   -3.0492    0.0000 C   0  0  0  0  0  0  0  0  0  0  0  0
   32.7090   -1.6394    0.0000 C   0  0  0  0  0  0  0  0  0  0  0  0
   30.0528   -1.5125    0.0000 C   0  0  0  0  0  0  0  0  0  0  0  0
   29.6340   -0.8018    0.0000 O   0  0  0  0  0  0  0  0  0  0  0  0
   29.6468   -2.2306    0.0000 C   0  0  0  0  0  0  0  0  0  0  0  0
   31.5657   -0.8774    0.0000 O   0  0  0  0  0  0  0  0  0  0  0  0
   33.0246   -0.8772    0.0000 C   0  0  0  0  0  0  0  0  0  0  0  0
   32.9769   -4.9712    0.0000 O   0  0  0  0  0  0  0  0  0  0  0  0
   33.3926   -5.6840    0.0000 C   0  0  0  0  0  0  0  0  0  0  0  0
   32.9835   -6.4004    0.0000 C   0  0  0  0  0  0  0  0  0  0  0  0
   34.2176   -5.6802    0.0000 O   0  0  0  0  0  0  0  0  0  0  0  0
   34.5428   -4.9169    0.0000 O   0  0  0  0  0  0  0  0  0  0  0  0
   35.3677   -4.9050    0.0000 C   0  0  0  0  0  0  0  0  0  0  0  0
   35.7905   -5.6134    0.0000 C   0  0  0  0  0  0  0  0  0  0  0  0
   35.7698   -4.1846    0.0000 O   0  0  0  0  0  0  0  0  0  0  0  0
   29.2724   -4.0295    0.0000 C   0  0  0  0  0  0  0  0  0  0  0  0
   28.8648   -4.7467    0.0000 C   0  0  0  0  0  0  0  0  0  0  0  0
   28.8551   -3.3178    0.0000 O   0  0  0  0  0  0  0  0  0  0  0  0
   28.0417   -4.7488    0.0000 C   0  0  0  0  0  0  0  0  0  0  0  0
   27.6341   -5.4652    0.0000 C   0  0  0  0  0  0  0  0  0  0  0  0
   28.0515   -6.1779    0.0000 C   0  0  0  0  0  0  0  0  0  0  0  0
   28.8807   -6.1696    0.0000 C   0  0  0  0  0  0  0  0  0  0  0  0
   29.2845   -5.4527    0.0000 C   0  0  0  0  0  0  0  0  0  0  0  0
   31.5673   -4.3942    0.0000 O   0  0  0  0  0  0  0  0  0  0  0  0
   31.5625   -5.2167    0.0000 C   0  0  0  0  0  0  0  0  0  0  0  0
   32.2744   -5.6334    0.0000 O   0  0  0  0  0  0  0  0  0  0  0  0
   30.8455   -5.6249    0.0000 C   0  0  0  0  0  0  0  0  0  0  0  0
   35.5291   -3.6250    0.0000 O   0  0  0  0  0  0  0  0  0  0  0  0
   36.3250   -3.8375    0.0000 C   0  0  0  0  0  0  0  0  0  0  0  0
   36.9078   -3.2536    0.0000 O   0  0  0  0  0  0  0  0  0  0  0  0
   36.5392   -4.6342    0.0000 C   0  0  0  0  0  0  0  0  0  0  0  0
   32.1578   -6.4013    0.0000 C   0  0  0  0  0  0  0  0  0  0  0  0
   31.7487   -7.1168    0.0000 C   0  0  0  0  0  0  0  0  0  0  0  0
   32.1646   -7.8303    0.0000 C   0  0  0  0  0  0  0  0  0  0  0  0
   32.9938   -7.8237    0.0000 C   0  0  0  0  0  0  0  0  0  0  0  0
   33.3992   -7.1077    0.0000 C   0  0  0  0  0  0  0  0  0  0  0  0
  2  1  1  0
  3  2  1  0
  4  6  1  0
  6  7  1  0
  7  8  1  0
  8  2  1  0
  2  9  1  0
  9  5  2  0
 17 11  1  0
 11 10  1  0
 10 12  1  0
 12 16  1  0
 12 13  1  0
 10 14  1  0
 17 15  1  0
 16 17  1  0
 17 18  1  0
 16 19  1  0
 19  4  1  0
  4 20  2  0
  5 21  1  0
 21 18  1  0
 15 22  1  0
 22 23  2  0
 22 24  1  0
 18 25  2  0
 21 26  1  0
  6 27  1  0
 27 28  1  0
 28 29  1  0
 28 30  2  0
  7 31  1  0
 31 32  1  0
 32 33  1  0
 32 34  2  0
 13 35  1  0
 35 36  1  0
 35 37  2  0
 36 38  2  0
 38 39  1  0
 39 40  2  0
 40 41  1  0
 41 42  2  0
 42 36  1  0
 19 43  1  0
 43 44  1  0
 44 45  2  0
 44 46  1  0
  8 47  1  0
 47 48  1  0
 48 49  2  0
 48 50  1  0
 29 51  2  0
 51 52  1  0
 52 53  2  0
 53 54  1  0
 54 55  2  0
 55 29  1  0
M  END
>  <Classification>  (996) 
1

>  <pchembl>  (996) 
5.0

>  <InChI_steorem>  (996) 
InChI=1S/C42H48O13/c1-23-20-21-41(8,9)38(52-28(6)45)36(51-27(5)44)35(54-40(49)31-18-14-11-15-19-31)25(3)34(50-26(4)43)32-33(53-39(48)30-16-12-10-13-17-30)24(2)22-42(32,37(23)47)55-29(7)46/h10-21,23-24,32-36,38H,3,22H2,1-2,4-9H3

>  <source>  (996) 
ChEMBL28

>  <source_id>  (996) 
28

>  <optional_reference>  (996) 
10.1021/acs.jnatprod.8b00507

>  <optional_origin>  (996) 
None

>  <target>  (996) 
MDR1

$$$$

     RDKit          2D

 71 78  0  0  0  0  0  0  0  0999 V2000
   33.7710  -14.9959    0.0000 O   0  0  0  0  0  0  0  0  0  0  0  0
   34.5960  -15.0001    0.0000 S   0  0  0  0  0  0  0  0  0  0  0  0
   34.1872  -14.2836    0.0000 O   0  0  0  0  0  0  0  0  0  0  0  0
   33.1687  -14.9553    0.0000 O   0  0  0  0  0  0  0  0  0  0  0  0
   21.1620  -14.3456    0.0000 C   0  0  0  0  0  0  0  0  0  0  0  0
   21.7817  -13.7954    0.0000 N   0  0  0  0  0  0  0  0  0  0  0  0
   20.4577  -13.9312    0.0000 C   0  0  0  0  0  0  0  0  0  0  0  0
   19.7329  -14.3291    0.0000 C   0  0  0  0  0  0  0  0  0  0  0  0
   21.1662  -15.1708    0.0000 N   0  0  0  0  0  0  0  0  0  0  0  0
   20.6242  -13.1219    0.0000 N   0  0  0  0  0  0  0  0  0  0  0  0
   19.7287  -15.1542    0.0000 N   0  0  0  0  0  0  0  0  0  0  0  0
   21.4467  -13.0469    0.0000 C   0  0  0  0  0  0  0  0  0  0  0  0
   20.4369  -15.5769    0.0000 C   0  0  0  0  0  0  0  0  0  0  0  0
   22.6105  -13.8206    0.0000 C   0  0  0  0  0  0  0  0  0  0  0  0
   19.0203  -13.9146    0.0000 N   0  0  0  0  0  0  0  0  0  0  0  0
   23.1199  -13.1599    0.0000 C   0  0  0  0  0  0  0  0  0  0  0  0
   18.3117  -14.3336    0.0000 C   0  0  0  0  0  0  0  0  0  0  0  0
   23.8935  -13.4382    0.0000 C   0  0  0  0  0  0  0  0  0  0  0  0
   17.9054  -15.0505    0.0000 C   0  0  0  0  0  0  0  0  0  0  0  0
   17.4866  -14.3294    0.0000 C   0  0  0  0  0  0  0  0  0  0  0  0
   23.0802  -14.4969    0.0000 C   0  0  0  0  0  0  0  0  0  0  0  0
   20.4408  -16.4147    0.0000 N   0  0  0  0  0  0  0  0  0  0  0  0
   23.8726  -14.2630    0.0000 C   0  0  0  0  0  0  0  0  0  0  0  0
   25.3223  -14.2924    0.0000 O   0  0  0  0  0  0  0  0  0  0  0  0
   24.5808  -14.6898    0.0000 C   0  0  0  0  0  0  0  0  0  0  0  0
   26.0235  -14.7271    0.0000 C   0  0  0  0  0  0  0  0  0  0  0  0
   26.7505  -14.3373    0.0000 C   0  0  0  0  0  0  0  0  0  0  0  0
   25.9975  -15.5517    0.0000 O   0  0  0  0  0  0  0  0  0  0  0  0
   27.4517  -14.7720    0.0000 C   0  0  0  0  0  0  0  0  0  0  0  0
   28.1789  -14.3822    0.0000 C   0  0  0  0  0  0  0  0  0  0  0  0
   28.8800  -14.8170    0.0000 S   0  0  0  0  0  0  0  0  0  0  0  0
   29.6071  -14.4271    0.0000 S   0  0  0  0  0  0  0  0  0  0  0  0
   30.3082  -14.8619    0.0000 C   0  0  0  0  0  0  0  0  0  0  0  0
   31.0353  -14.4722    0.0000 C   0  0  0  0  0  0  0  0  0  0  0  0
   31.7365  -14.9069    0.0000 C   0  0  0  0  0  0  0  0  0  0  0  0
   32.4635  -14.5171    0.0000 C   0  0  0  0  0  0  0  0  0  0  0  0
   32.4895  -13.6925    0.0000 O   0  0  0  0  0  0  0  0  0  0  0  0
   33.1420  -15.7799    0.0000 C   0  0  0  0  0  0  0  0  0  0  0  0
   33.8426  -16.2155    0.0000 C   0  0  0  0  0  0  0  0  0  0  0  0
   34.5701  -15.8264    0.0000 N   0  0  0  0  0  0  0  0  0  0  0  0
   32.4145  -16.1690    0.0000 C   0  0  0  0  0  0  0  0  0  0  0  0
   31.7137  -15.7335    0.0000 C   0  0  0  0  0  0  0  0  0  0  0  0
   30.9863  -16.1226    0.0000 C   0  0  0  0  0  0  0  0  0  0  0  0
   32.3876  -16.9936    0.0000 N   0  0  0  0  0  0  0  0  0  0  0  0
   35.2708  -16.2618    0.0000 C   0  0  0  0  0  0  0  0  0  0  0  0
   35.3244  -14.6127    0.0000 C   0  0  0  0  0  0  0  0  0  0  0  0
   36.0239  -15.0520    0.0000 C   0  0  0  0  0  0  0  0  0  0  0  0
   36.7518  -14.6654    0.0000 C   0  0  0  0  0  0  0  0  0  0  0  0
   36.7809  -13.8400    0.0000 C   0  0  0  0  0  0  0  0  0  0  0  0
   36.0763  -13.4028    0.0000 C   0  0  0  0  0  0  0  0  0  0  0  0
   35.3512  -13.7920    0.0000 C   0  0  0  0  0  0  0  0  0  0  0  0
   37.5088  -13.4517    0.0000 N   0  0  0  0  0  0  0  0  0  0  0  0
   30.2868  -15.6863    0.0000 C   0  0  0  0  0  0  0  0  0  0  0  0
   29.5598  -16.0747    0.0000 C   0  0  0  0  0  0  0  0  0  0  0  0
   29.5326  -16.9002    0.0000 C   0  0  0  0  0  0  0  0  0  0  0  0
   30.2383  -17.3356    0.0000 C   0  0  0  0  0  0  0  0  0  0  0  0
   30.9624  -16.9448    0.0000 C   0  0  0  0  0  0  0  0  0  0  0  0
   35.2441  -17.0864    0.0000 C   0  0  0  0  0  0  0  0  0  0  0  0
   34.5166  -17.4755    0.0000 C   0  0  0  0  0  0  0  0  0  0  0  0
   35.9447  -17.5219    0.0000 C   0  0  0  0  0  0  0  0  0  0  0  0
   33.0884  -17.4291    0.0000 C   0  0  0  0  0  0  0  0  0  0  0  0
   33.0616  -18.2537    0.0000 O   0  0  0  0  0  0  0  0  0  0  0  0
   33.8158  -17.0400    0.0000 O   0  0  0  0  0  0  0  0  0  0  0  0
   32.3340  -18.6428    0.0000 C   0  0  0  0  0  0  0  0  0  0  0  0
   31.5918  -18.2842    0.0000 C   0  0  0  0  0  0  0  0  0  0  0  0
   31.0183  -18.8841    0.0000 O   0  0  0  0  0  0  0  0  0  0  0  0
   32.2213  -19.4612    0.0000 C   0  0  0  0  0  0  0  0  0  0  0  0
   31.4106  -19.6087    0.0000 C   0  0  0  0  0  0  0  0  0  0  0  0
   31.3003  -20.4254    0.0000 O   0  0  0  0  0  0  0  0  0  0  0  0
   32.0431  -20.7827    0.0000 C   0  0  0  0  0  0  0  0  0  0  0  0
   32.6121  -20.1867    0.0000 C   0  0  0  0  0  0  0  0  0  0  0  0
  2  1  2  0
  3  2  2  0
  6  5  1  0
  7  5  1  0
  8  7  2  0
  9  5  2  0
 10  7  1  0
 11 13  2  0
 12  6  1  0
 13  9  1  0
 14  6  1  0
 15  8  1  0
 16 14  1  0
 17 15  1  0
 18 16  2  0
 19 17  1  0
 20 17  1  0
 21 14  1  0
 22 13  1  0
 23 21  1  0
 24 25  1  0
 23 25  1  0
 12 10  2  0
  8 11  1  0
 23 18  1  0
 19 20  1  0
 24 26  1  0
 26 27  1  0
 26 28  2  0
 27 29  1  0
 29 30  1  0
 30 31  1  0
 31 32  1  0
 32 33  1  0
 33 34  1  0
 34 35  1  0
 35 36  1  0
 36 37  2  0
 36  4  1  0
 38  4  1  0
 38 39  1  0
 39 40  1  0
 38 41  1  0
 41 42  1  0
 42 43  1  0
 41 44  1  0
 40 45  1  0
 40  2  1  0
  2 46  1  0
 46 47  2  0
 47 48  1  0
 48 49  2  0
 49 50  1  0
 50 51  2  0
 51 46  1  0
 49 52  1  0
 43 53  2  0
 53 54  1  0
 54 55  2  0
 55 56  1  0
 56 57  2  0
 57 43  1  0
 45 58  1  0
 58 59  1  0
 58 60  1  0
 44 61  1  0
 61 62  1  0
 61 63  2  0
 64 62  1  0
 64 65  1  0
 65 66  1  0
 67 64  1  0
 68 66  1  0
 67 68  1  0
 68 69  1  0
 69 70  1  0
 70 71  1  0
 71 67  1  0
M  END
>  <Classification>  (997) 
1

>  <pchembl>  (997) 
6.3

>  <InChI_steorem>  (997) 
InChI=1S/C49H65N9O10S3/c1-31(2)26-57(71(62,63)37-18-13-34(50)14-19-37)27-40(39(25-32-8-4-3-5-9-32)54-49(61)68-41-29-66-47-38(41)20-21-64-47)67-43(60)11-7-23-70-69-22-6-10-42(59)65-28-33-12-17-36(24-33)58-30-52-44-45(53-35-15-16-35)55-48(51)56-46(44)58/h3-5,8-9,12-14,17-19,30-31,33,35-36,38-41,47H,6-7,10-11,15-16,20-29,50H2,1-2H3,(H,54,61)(H3,51,53,55,56)

>  <source>  (997) 
ChEMBL28

>  <source_id>  (997) 
28

>  <optional_reference>  (997) 
10.1021/acs.jmedchem.9b00779

>  <optional_origin>  (997) 
None

>  <target>  (997) 
MDR1

$$$$

     RDKit          2D

 73 80  0  0  0  0  0  0  0  0999 V2000
   36.1970   -3.6339    0.0000 N   0  0  0  0  0  0  0  0  0  0  0  0
   36.1909   -2.8089    0.0000 C   0  0  0  0  0  0  0  0  0  0  0  0
   33.3467   -5.2924    0.0000 C   0  0  0  0  0  0  0  0  0  0  0  0
   35.4754   -2.4017    0.0000 C   0  0  0  0  0  0  0  0  0  0  0  0
   34.0561   -4.8747    0.0000 N   0  0  0  0  0  0  0  0  0  0  0  0
   32.6313   -4.8852    0.0000 C   0  0  0  0  0  0  0  0  0  0  0  0
   36.9128   -2.3911    0.0000 C   0  0  0  0  0  0  0  0  0  0  0  0
   35.4875   -4.0516    0.0000 C   0  0  0  0  0  0  0  0  0  0  0  0
   31.9217   -5.2904    0.0000 C   0  0  0  0  0  0  0  0  0  0  0  0
   36.9126   -4.0535    0.0000 C   0  0  0  0  0  0  0  0  0  0  0  0
   34.7717   -5.2819    0.0000 C   0  0  0  0  0  0  0  0  0  0  0  0
   34.7658   -2.8070    0.0000 N   0  0  0  0  0  0  0  0  0  0  0  0
   35.4812   -4.8766    0.0000 C   0  0  0  0  0  0  0  0  0  0  0  0
   37.6283   -2.7983    0.0000 C   0  0  0  0  0  0  0  0  0  0  0  0
   37.6345   -3.6357    0.0000 C   0  0  0  0  0  0  0  0  0  0  0  0
   33.3404   -6.1174    0.0000 O   0  0  0  0  0  0  0  0  0  0  0  0
   35.4818   -1.5767    0.0000 O   0  0  0  0  0  0  0  0  0  0  0  0
   31.2062   -4.8833    0.0000 C   0  0  0  0  0  0  0  0  0  0  0  0
   34.7777   -6.1068    0.0000 C   0  0  0  0  0  0  0  0  0  0  0  0
   34.0504   -2.3997    0.0000 C   0  0  0  0  0  0  0  0  0  0  0  0
   35.4934   -6.5266    0.0000 S   0  0  0  0  0  0  0  0  0  0  0  0
   36.1966   -5.2839    0.0000 O   0  0  0  0  0  0  0  0  0  0  0  0
   35.4869   -7.3516    0.0000 C   0  0  0  0  0  0  0  0  0  0  0  0
   30.4968   -5.3010    0.0000 O   0  0  0  0  0  0  0  0  0  0  0  0
   32.6251   -4.0602    0.0000 C   0  0  0  0  0  0  0  0  0  0  0  0
   31.9278   -6.1154    0.0000 C   0  0  0  0  0  0  0  0  0  0  0  0
   31.9220   -3.6404    0.0000 C   0  0  0  0  0  0  0  0  0  0  0  0
   31.2001   -4.0583    0.0000 C   0  0  0  0  0  0  0  0  0  0  0  0
   38.3377   -2.3806    0.0000 C   0  0  0  0  0  0  0  0  0  0  0  0
   38.3500   -4.0429    0.0000 C   0  0  0  0  0  0  0  0  0  0  0  0
   34.7774   -7.7569    0.0000 C   0  0  0  0  0  0  0  0  0  0  0  0
   36.2025   -7.7588    0.0000 C   0  0  0  0  0  0  0  0  0  0  0  0
   39.0594   -3.6252    0.0000 C   0  0  0  0  0  0  0  0  0  0  0  0
   39.0532   -2.7878    0.0000 C   0  0  0  0  0  0  0  0  0  0  0  0
   36.2085   -8.5838    0.0000 C   0  0  0  0  0  0  0  0  0  0  0  0
   34.7711   -8.5819    0.0000 C   0  0  0  0  0  0  0  0  0  0  0  0
   35.4866   -9.0016    0.0000 C   0  0  0  0  0  0  0  0  0  0  0  0
   18.4906   -4.6912    0.0000 C   0  0  0  0  0  0  0  0  0  0  0  0
   19.1101   -4.1411    0.0000 N   0  0  0  0  0  0  0  0  0  0  0  0
   17.7863   -4.2769    0.0000 C   0  0  0  0  0  0  0  0  0  0  0  0
   17.0615   -4.6747    0.0000 C   0  0  0  0  0  0  0  0  0  0  0  0
   18.4947   -5.5163    0.0000 N   0  0  0  0  0  0  0  0  0  0  0  0
   17.9527   -3.4675    0.0000 N   0  0  0  0  0  0  0  0  0  0  0  0
   17.0572   -5.4998    0.0000 N   0  0  0  0  0  0  0  0  0  0  0  0
   18.7752   -3.3925    0.0000 C   0  0  0  0  0  0  0  0  0  0  0  0
   17.7655   -5.9225    0.0000 C   0  0  0  0  0  0  0  0  0  0  0  0
   19.9389   -4.1662    0.0000 C   0  0  0  0  0  0  0  0  0  0  0  0
   16.3489   -4.2602    0.0000 N   0  0  0  0  0  0  0  0  0  0  0  0
   20.4482   -3.5056    0.0000 C   0  0  0  0  0  0  0  0  0  0  0  0
   15.6403   -4.6792    0.0000 C   0  0  0  0  0  0  0  0  0  0  0  0
   21.2219   -3.7838    0.0000 C   0  0  0  0  0  0  0  0  0  0  0  0
   15.2340   -5.3961    0.0000 C   0  0  0  0  0  0  0  0  0  0  0  0
   14.8152   -4.6750    0.0000 C   0  0  0  0  0  0  0  0  0  0  0  0
   20.4087   -4.8425    0.0000 C   0  0  0  0  0  0  0  0  0  0  0  0
   17.7694   -6.7603    0.0000 N   0  0  0  0  0  0  0  0  0  0  0  0
   21.2010   -4.6086    0.0000 C   0  0  0  0  0  0  0  0  0  0  0  0
   22.6507   -4.6380    0.0000 O   0  0  0  0  0  0  0  0  0  0  0  0
   21.9091   -5.0355    0.0000 C   0  0  0  0  0  0  0  0  0  0  0  0
   23.3518   -5.0727    0.0000 C   0  0  0  0  0  0  0  0  0  0  0  0
   24.0789   -4.6829    0.0000 C   0  0  0  0  0  0  0  0  0  0  0  0
   23.3259   -5.8972    0.0000 O   0  0  0  0  0  0  0  0  0  0  0  0
   24.7800   -5.1177    0.0000 C   0  0  0  0  0  0  0  0  0  0  0  0
   25.5071   -4.7278    0.0000 C   0  0  0  0  0  0  0  0  0  0  0  0
   26.2082   -5.1626    0.0000 S   0  0  0  0  0  0  0  0  0  0  0  0
   26.9352   -4.7728    0.0000 S   0  0  0  0  0  0  0  0  0  0  0  0
   27.6364   -5.2075    0.0000 C   0  0  0  0  0  0  0  0  0  0  0  0
   28.3634   -4.8178    0.0000 C   0  0  0  0  0  0  0  0  0  0  0  0
   29.0645   -5.2525    0.0000 C   0  0  0  0  0  0  0  0  0  0  0  0
   29.7917   -4.8627    0.0000 C   0  0  0  0  0  0  0  0  0  0  0  0
   29.8176   -4.0381    0.0000 O   0  0  0  0  0  0  0  0  0  0  0  0
   34.0452   -1.5748    0.0000 C   0  0  0  0  0  0  0  0  0  0  0  0
   33.3385   -2.8167    0.0000 C   0  0  0  0  0  0  0  0  0  0  0  0
   33.3323   -1.9833    0.0000 C   0  0  0  0  0  0  0  0  0  0  0  0
  2  1  1  0
  3  5  1  0
  2  4  1  0
  5 11  1  0
  6  3  1  0
  7  2  1  0
  8  1  1  0
  9  6  2  0
 10  1  1  0
 11 13  1  0
 12  4  1  0
 13  8  1  0
 14 15  1  0
 15 10  1  0
 16  3  2  0
 17  4  2  0
 18  9  1  0
 11 19  1  0
 20 12  1  0
 21 19  1  0
 13 22  1  0
 23 21  1  0
 24 18  1  0
 25  6  1  0
 26  9  1  0
 27 25  2  0
 28 27  1  0
 29 14  1  0
 30 15  1  0
 31 23  2  0
 32 23  1  0
 33 30  1  0
 34 33  1  0
 35 32  2  0
 36 31  1  0
 37 35  1  0
 14  7  1  0
 29 34  1  0
 37 36  2  0
 28 18  2  0
 39 38  1  0
 40 38  1  0
 41 40  2  0
 42 38  2  0
 43 40  1  0
 44 46  2  0
 45 39  1  0
 46 42  1  0
 47 39  1  0
 48 41  1  0
 49 47  1  0
 50 48  1  0
 51 49  2  0
 52 50  1  0
 53 50  1  0
 54 47  1  0
 55 46  1  0
 56 54  1  0
 57 58  1  0
 56 58  1  0
 45 43  2  0
 41 44  1  0
 56 51  1  0
 52 53  1  0
 57 59  1  0
 59 60  1  0
 59 61  2  0
 60 62  1  0
 62 63  1  0
 63 64  1  0
 64 65  1  0
 65 66  1  0
 66 67  1  0
 67 68  1  0
 68 69  1  0
 69 70  2  0
 69 24  1  0
 20 71  1  0
 20 72  1  0
 20 73  1  0
M  END
>  <Classification>  (998) 
1

>  <pchembl>  (998) 
6.11

>  <InChI_steorem>  (998) 
InChI=1S/C54H73N9O7S3/c1-34-41(51(67)58-42(32-71-40-15-6-5-7-16-40)44(64)30-62-29-37-14-9-8-13-36(37)28-43(62)52(68)61-54(2,3)4)17-10-18-45(34)70-47(66)20-12-26-73-72-25-11-19-46(65)69-31-35-21-24-39(27-35)63-33-56-48-49(57-38-22-23-38)59-53(55)60-50(48)63/h5-7,10,15-18,21,24,33,35-39,42-44,64H,8-9,11-14,19-20,22-23,25-32H2,1-4H3,(H,58,67)(H,61,68)(H3,55,57,59,60)

>  <source>  (998) 
ChEMBL28

>  <source_id>  (998) 
28

>  <optional_reference>  (998) 
10.1021/acs.jmedchem.9b00779

>  <optional_origin>  (998) 
None

>  <target>  (998) 
MDR1

$$$$

     RDKit          2D

 25 26  0  0  0  0  0  0  0  0999 V2000
    7.2375   -5.8917    0.0000 C   0  0  0  0  0  0  0  0  0  0  0  0
    8.0625   -5.8958    0.0000 C   0  0  0  0  0  0  0  0  0  0  0  0
    7.6536   -5.1793    0.0000 C   0  0  0  0  0  0  0  0  0  0  0  0
    3.7902   -8.3750    0.0000 C   0  0  0  0  0  0  0  0  0  0  0  0
    3.7891   -9.2023    0.0000 C   0  0  0  0  0  0  0  0  0  0  0  0
    4.5039   -9.6152    0.0000 C   0  0  0  0  0  0  0  0  0  0  0  0
    5.2203   -9.2019    0.0000 C   0  0  0  0  0  0  0  0  0  0  0  0
    5.2175   -8.3713    0.0000 C   0  0  0  0  0  0  0  0  0  0  0  0
    4.5021   -7.9622    0.0000 C   0  0  0  0  0  0  0  0  0  0  0  0
    3.0757   -7.9626    0.0000 O   0  0  0  0  0  0  0  0  0  0  0  0
    5.9355   -9.6132    0.0000 C   0  0  0  0  0  0  0  0  0  0  0  0
    5.9367  -10.4382    0.0000 O   0  0  0  0  0  0  0  0  0  0  0  0
    6.6493   -9.1996    0.0000 C   0  0  0  0  0  0  0  0  0  0  0  0
    6.6480   -8.3746    0.0000 C   0  0  0  0  0  0  0  0  0  0  0  0
    7.3618   -7.9610    0.0000 C   0  0  0  0  0  0  0  0  0  0  0  0
    8.0745   -8.3734    0.0000 C   0  0  0  0  0  0  0  0  0  0  0  0
    8.7878   -7.9605    0.0000 C   0  0  0  0  0  0  0  0  0  0  0  0
    8.7870   -7.1346    0.0000 C   0  0  0  0  0  0  0  0  0  0  0  0
    8.0669   -6.7234    0.0000 C   0  0  0  0  0  0  0  0  0  0  0  0
    7.3565   -7.1387    0.0000 C   0  0  0  0  0  0  0  0  0  0  0  0
    9.5003   -6.7200    0.0000 O   0  0  0  0  0  0  0  0  0  0  0  0
    8.0746   -9.1984    0.0000 O   0  0  0  0  0  0  0  0  0  0  0  0
    8.7891   -9.6108    0.0000 C   0  0  0  0  0  0  0  0  0  0  0  0
    8.7750   -5.4822    0.0000 C   0  0  0  0  0  0  0  0  0  0  0  0
    9.4916   -5.8911    0.0000 C   0  0  0  0  0  0  0  0  0  0  0  0
 11 13  1  0
  2  1  1  0
 13 14  2  3
  7  8  1  0
 14 15  1  0
  4  5  2  0
 15 16  2  0
  8  9  2  0
 16 17  1  0
  9  4  1  0
 17 18  2  0
  3  2  1  0
 18 19  1  0
  4 10  1  0
 19 20  2  0
 20 15  1  0
  5  6  1  0
 18 21  1  0
  7 11  1  0
 16 22  1  0
 22 23  1  0
 19  2  1  0
 11 12  2  0
  2 24  1  0
  6  7  2  0
 24 25  2  0
M  END
>  <Classification>  (999) 
0

>  <pchembl>  (999) 
4.02

>  <InChI_steorem>  (999) 
InChI=1S/C21H22O4/c1-5-21(2,3)17-12-15(20(25-4)13-19(17)24)8-11-18(23)14-6-9-16(22)10-7-14/h5-13,22,24H,1H2,2-4H3

>  <source>  (999) 
ChEMBL29

>  <source_id>  (999) 
29

>  <optional_reference>  (999) 
10.1021/acs.jnatprod.9b01022

>  <optional_origin>  (999) 
None

>  <target>  (999) 
MDR1

$$$$

     RDKit          2D

 40 44  0  0  0  0  0  0  0  0999 V2000
    8.8597   -3.1862    0.0000 C   0  0  0  0  0  0  0  0  0  0  0  0
    8.8586   -4.0098    0.0000 C   0  0  0  0  0  0  0  0  0  0  0  0
    9.5666   -4.4229    0.0000 C   0  0  0  0  0  0  0  0  0  0  0  0
   10.2804   -4.0094    0.0000 C   0  0  0  0  0  0  0  0  0  0  0  0
   10.2776   -3.1826    0.0000 C   0  0  0  0  0  0  0  0  0  0  0  0
    9.5649   -2.7773    0.0000 C   0  0  0  0  0  0  0  0  0  0  0  0
   10.9929   -4.4210    0.0000 C   0  0  0  0  0  0  0  0  0  0  0  0
   11.7041   -4.0072    0.0000 C   0  0  0  0  0  0  0  0  0  0  0  0
   12.4166   -4.4188    0.0000 N   0  0  0  0  0  0  0  0  0  0  0  0
   12.4138   -5.2382    0.0000 C   0  0  0  0  0  0  0  0  0  0  0  0
   13.1223   -5.6456    0.0000 C   0  0  0  0  0  0  0  0  0  0  0  0
   13.1236   -4.0010    0.0000 C   0  0  0  0  0  0  0  0  0  0  0  0
   13.8365   -4.4171    0.0000 C   0  0  0  0  0  0  0  0  0  0  0  0
   13.8319   -5.2356    0.0000 C   0  0  0  0  0  0  0  0  0  0  0  0
   14.5339   -5.6451    0.0000 C   0  0  0  0  0  0  0  0  0  0  0  0
   15.2450   -5.2411    0.0000 C   0  0  0  0  0  0  0  0  0  0  0  0
   15.2457   -4.4194    0.0000 C   0  0  0  0  0  0  0  0  0  0  0  0
   14.5390   -4.0096    0.0000 C   0  0  0  0  0  0  0  0  0  0  0  0
   15.9577   -4.0071    0.0000 O   0  0  0  0  0  0  0  0  0  0  0  0
   16.6693   -4.4201    0.0000 C   0  0  0  0  0  0  0  0  0  0  0  0
   15.9557   -5.6516    0.0000 O   0  0  0  0  0  0  0  0  0  0  0  0
   15.9536   -6.4729    0.0000 C   0  0  0  0  0  0  0  0  0  0  0  0
    8.1478   -2.7778    0.0000 N   0  0  0  0  0  0  0  0  0  0  0  0
    7.4361   -3.1865    0.0000 C   0  0  0  0  0  0  0  0  0  0  0  0
    7.4363   -4.0078    0.0000 O   0  0  0  0  0  0  0  0  0  0  0  0
    6.7288   -2.7772    0.0000 C   0  0  0  0  0  0  0  0  0  0  0  0
    6.0207   -3.1851    0.0000 C   0  0  0  0  0  0  0  0  0  0  0  0
    5.3119   -2.7739    0.0000 C   0  0  0  0  0  0  0  0  0  0  0  0
    5.3080   -4.4073    0.0000 O   0  0  0  0  0  0  0  0  0  0  0  0
    6.0202   -4.0013    0.0000 C   0  0  0  0  0  0  0  0  0  0  0  0
    4.6009   -3.9958    0.0000 C   0  0  0  0  0  0  0  0  0  0  0  0
    4.6084   -3.1804    0.0000 C   0  0  0  0  0  0  0  0  0  0  0  0
    3.9071   -2.7680    0.0000 C   0  0  0  0  0  0  0  0  0  0  0  0
    3.1978   -3.1699    0.0000 C   0  0  0  0  0  0  0  0  0  0  0  0
    3.1942   -3.9884    0.0000 C   0  0  0  0  0  0  0  0  0  0  0  0
    3.8961   -4.3971    0.0000 C   0  0  0  0  0  0  0  0  0  0  0  0
    6.7266   -4.4120    0.0000 O   0  0  0  0  0  0  0  0  0  0  0  0
    5.3126   -1.9567    0.0000 C   0  0  0  0  0  0  0  0  0  0  0  0
    2.4849   -4.3941    0.0000 O   0  0  0  0  0  0  0  0  0  0  0  0
    1.7871   -3.9827    0.0000 C   0  0  0  0  0  0  0  0  0  0  0  0
  1  2  2  0
  2  3  1  0
  3  4  2  0
  4  5  1  0
  5  6  2  0
  6  1  1  0
  4  7  1  0
  7  8  1  0
  8  9  1  0
  9 10  1  0
  9 12  1  0
 10 11  1  0
 11 14  1  0
 13 12  1  0
 13 14  2  0
 14 15  1  0
 15 16  2  0
 16 17  1  0
 17 18  2  0
 18 13  1  0
 17 19  1  0
 19 20  1  0
 16 21  1  0
 21 22  1  0
  1 23  1  0
 23 24  1  0
 24 25  2  0
 24 26  1  0
 26 27  1  0
 27 28  2  0
 27 30  1  0
 28 32  1  0
 31 29  1  0
 29 30  1  0
 31 32  2  0
 32 33  1  0
 33 34  2  0
 34 35  1  0
 35 36  2  0
 36 31  1  0
 30 37  2  0
 28 38  1  0
 35 39  1  0
 39 40  1  0
M  END
>  <Classification>  (1000) 
1

>  <pchembl>  (1000) 
5.71

>  <InChI_steorem>  (1000) 
InChI=1S/C32H34N2O6/c1-20-26-10-9-25(37-2)17-28(26)40-32(36)27(20)18-31(35)33-24-7-5-21(6-8-24)11-13-34-14-12-22-15-29(38-3)30(39-4)16-23(22)19-34/h5-10,15-17H,11-14,18-19H2,1-4H3,(H,33,35)

>  <source>  (1000) 
ChEMBL29

>  <source_id>  (1000) 
29

>  <optional_reference>  (1000) 
10.1021/acs.jmedchem.0c00337

>  <optional_origin>  (1000) 
None

>  <target>  (1000) 
MDR1

$$$$

     RDKit          2D

 38 44  0  0  0  0  0  0  0  0999 V2000
   18.7252  -12.5096    0.0000 C   0  0  0  0  0  0  0  0  0  0  0  0
   20.1440  -13.3309    0.0000 C   0  0  0  0  0  0  0  0  0  0  0  0
   20.1440  -12.5096    0.0000 C   0  0  0  0  0  0  0  0  0  0  0  0
   19.4346  -12.0928    0.0000 N   0  0  0  0  0  0  0  0  0  0  0  0
   19.4346  -13.7354    0.0000 N   0  0  0  0  0  0  0  0  0  0  0  0
   18.7231  -13.3349    0.0000 C   0  0  0  0  0  0  0  0  0  0  0  0
   19.2722  -14.5361    0.0000 C   0  0  0  0  0  0  0  0  0  0  0  0
   18.4604  -14.6280    0.0000 C   0  0  0  0  0  0  0  0  0  0  0  0
   18.1157  -13.8907    0.0000 C   0  0  0  0  0  0  0  0  0  0  0  0
   17.8602  -15.1837    0.0000 C   0  0  0  0  0  0  0  0  0  0  0  0
   17.1472  -14.7875    0.0000 C   0  0  0  0  0  0  0  0  0  0  0  0
   17.3071  -13.9883    0.0000 C   0  0  0  0  0  0  0  0  0  0  0  0
   16.6951  -13.4502    0.0000 C   0  0  0  0  0  0  0  0  0  0  0  0
   16.3797  -15.0476    0.0000 C   0  0  0  0  0  0  0  0  0  0  0  0
   15.7664  -14.5130    0.0000 C   0  0  0  0  0  0  0  0  0  0  0  0
   15.9193  -13.7096    0.0000 C   0  0  0  0  0  0  0  0  0  0  0  0
   15.2064  -13.3172    0.0000 O   0  0  0  0  0  0  0  0  0  0  0  0
   14.6087  -13.8781    0.0000 C   0  0  0  0  0  0  0  0  0  0  0  0
   14.9550  -14.6145    0.0000 O   0  0  0  0  0  0  0  0  0  0  0  0
   20.8571  -12.0990    0.0000 C   0  0  0  0  0  0  0  0  0  0  0  0
   21.5636  -12.5138    0.0000 C   0  0  0  0  0  0  0  0  0  0  0  0
   21.5596  -13.3361    0.0000 C   0  0  0  0  0  0  0  0  0  0  0  0
   22.2694  -13.7467    0.0000 C   0  0  0  0  0  0  0  0  0  0  0  0
   22.2728  -12.1036    0.0000 C   0  0  0  0  0  0  0  0  0  0  0  0
   22.9832  -12.5146    0.0000 C   0  0  0  0  0  0  0  0  0  0  0  0
   22.9844  -13.3368    0.0000 C   0  0  0  0  0  0  0  0  0  0  0  0
   17.9582  -15.9975    0.0000 C   0  0  0  0  0  0  0  0  0  0  0  0
   17.2979  -16.4906    0.0000 C   0  0  0  0  0  0  0  0  0  0  0  0
   17.3941  -17.3055    0.0000 C   0  0  0  0  0  0  0  0  0  0  0  0
   18.1499  -17.6283    0.0000 C   0  0  0  0  0  0  0  0  0  0  0  0
   18.8103  -17.1342    0.0000 C   0  0  0  0  0  0  0  0  0  0  0  0
   18.7108  -16.3211    0.0000 C   0  0  0  0  0  0  0  0  0  0  0  0
   16.2221  -15.8536    0.0000 O   0  0  0  0  0  0  0  0  0  0  0  0
   15.4447  -16.1180    0.0000 C   0  0  0  0  0  0  0  0  0  0  0  0
   19.4346  -11.2715    0.0000 C   0  0  0  0  0  0  0  0  0  0  0  0
   20.1465  -10.8629    0.0000 C   0  0  0  0  0  0  0  0  0  0  0  0
   18.7228  -10.8629    0.0000 O   0  0  0  0  0  0  0  0  0  0  0  0
   19.8242  -15.1429    0.0000 O   0  0  0  0  0  0  0  0  0  0  0  0
  1  6  1  0
  1  4  1  0
  5  2  1  0
  2  3  1  0
  3  4  1  0
  5  6  1  0
  6  9  1  0
  8  7  1  0
  7  5  1  0
  8  9  1  0
  9 12  1  0
 11 10  1  0
 10  8  1  0
 11 12  2  0
 12 13  1  0
 13 16  2  0
 15 14  2  0
 14 11  1  0
 15 16  1  0
 16 17  1  0
 17 18  1  0
 18 19  1  0
 19 15  1  0
  3 20  1  0
 20 21  1  0
 21 22  2  0
 22 23  1  0
 23 26  2  0
 25 24  2  0
 24 21  1  0
 25 26  1  0
 27 28  2  0
 28 29  1  0
 29 30  2  0
 30 31  1  0
 31 32  2  0
 32 27  1  0
 10 27  1  0
 14 33  1  0
 33 34  1  0
  4 35  1  0
 35 36  1  0
 35 37  2  0
  7 38  2  0
M  END
>  <Classification>  (1001) 
1

>  <pchembl>  (1001) 
5.96

>  <InChI_steorem>  (1001) 
InChI=1S/C31H30N2O5/c1-18(34)32-16-23-26-22-14-24-29(38-17-37-24)30(36-2)27(22)25(20-11-7-4-8-12-20)28(26)31(35)33(23)15-21(32)13-19-9-5-3-6-10-19/h3-12,14,21,23,25-26,28H,13,15-17H2,1-2H3

>  <source>  (1001) 
ChEMBL29

>  <source_id>  (1001) 
29

>  <optional_reference>  (1001) 
10.1021/acs.jnatprod.9b01181

>  <optional_origin>  (1001) 
None

>  <target>  (1001) 
MDR1

$$$$

     RDKit          2D

 39 45  0  0  0  0  0  0  0  0999 V2000
   29.2167  -12.0721    0.0000 C   0  0  0  0  0  0  0  0  0  0  0  0
   30.6355  -12.8935    0.0000 C   0  0  0  0  0  0  0  0  0  0  0  0
   30.6355  -12.0721    0.0000 C   0  0  0  0  0  0  0  0  0  0  0  0
   29.9261  -11.6553    0.0000 N   0  0  0  0  0  0  0  0  0  0  0  0
   29.9261  -13.2979    0.0000 N   0  0  0  0  0  0  0  0  0  0  0  0
   29.2145  -12.8974    0.0000 C   0  0  0  0  0  0  0  0  0  0  0  0
   29.7637  -14.0986    0.0000 C   0  0  0  0  0  0  0  0  0  0  0  0
   28.9518  -14.1905    0.0000 C   0  0  0  0  0  0  0  0  0  0  0  0
   28.6072  -13.4532    0.0000 C   0  0  0  0  0  0  0  0  0  0  0  0
   28.3516  -14.7463    0.0000 C   0  0  0  0  0  0  0  0  0  0  0  0
   27.6386  -14.3500    0.0000 C   0  0  0  0  0  0  0  0  0  0  0  0
   27.7985  -13.5509    0.0000 C   0  0  0  0  0  0  0  0  0  0  0  0
   27.1865  -13.0127    0.0000 C   0  0  0  0  0  0  0  0  0  0  0  0
   26.8711  -14.6101    0.0000 C   0  0  0  0  0  0  0  0  0  0  0  0
   26.2579  -14.0755    0.0000 C   0  0  0  0  0  0  0  0  0  0  0  0
   26.4107  -13.2721    0.0000 C   0  0  0  0  0  0  0  0  0  0  0  0
   25.6978  -12.8797    0.0000 O   0  0  0  0  0  0  0  0  0  0  0  0
   25.1002  -13.4406    0.0000 C   0  0  0  0  0  0  0  0  0  0  0  0
   25.4464  -14.1770    0.0000 O   0  0  0  0  0  0  0  0  0  0  0  0
   31.3485  -11.6615    0.0000 C   0  0  0  0  0  0  0  0  0  0  0  0
   32.0550  -12.0763    0.0000 C   0  0  0  0  0  0  0  0  0  0  0  0
   32.0510  -12.8986    0.0000 C   0  0  0  0  0  0  0  0  0  0  0  0
   32.7608  -13.3092    0.0000 C   0  0  0  0  0  0  0  0  0  0  0  0
   32.7642  -11.6661    0.0000 C   0  0  0  0  0  0  0  0  0  0  0  0
   33.4746  -12.0771    0.0000 C   0  0  0  0  0  0  0  0  0  0  0  0
   33.4758  -12.8993    0.0000 C   0  0  0  0  0  0  0  0  0  0  0  0
   28.4496  -15.5600    0.0000 C   0  0  0  0  0  0  0  0  0  0  0  0
   27.7894  -16.0531    0.0000 C   0  0  0  0  0  0  0  0  0  0  0  0
   27.8855  -16.8680    0.0000 C   0  0  0  0  0  0  0  0  0  0  0  0
   28.6413  -17.1908    0.0000 C   0  0  0  0  0  0  0  0  0  0  0  0
   29.3017  -16.6968    0.0000 C   0  0  0  0  0  0  0  0  0  0  0  0
   29.2022  -15.8836    0.0000 C   0  0  0  0  0  0  0  0  0  0  0  0
   26.7135  -15.4161    0.0000 O   0  0  0  0  0  0  0  0  0  0  0  0
   25.9361  -15.6805    0.0000 C   0  0  0  0  0  0  0  0  0  0  0  0
   29.3528  -14.8993    0.0000 O   0  0  0  0  0  0  0  0  0  0  0  0
   29.9261  -10.8340    0.0000 C   0  0  0  0  0  0  0  0  0  0  0  0
   30.6379  -10.4254    0.0000 C   0  0  0  0  0  0  0  0  0  0  0  0
   29.2142  -10.4254    0.0000 O   0  0  0  0  0  0  0  0  0  0  0  0
   30.3156  -14.7054    0.0000 O   0  0  0  0  0  0  0  0  0  0  0  0
  1  6  1  0
  1  4  1  0
  5  2  1  0
  2  3  1  0
  3  4  1  0
  5  6  1  0
  6  9  1  0
  8  7  1  0
  7  5  1  0
  8  9  1  0
  9 12  1  0
 11 10  1  0
 10  8  1  0
 11 12  2  0
 12 13  1  0
 13 16  2  0
 15 14  2  0
 14 11  1  0
 15 16  1  0
 16 17  1  0
 17 18  1  0
 18 19  1  0
 19 15  1  0
  3 20  1  0
 20 21  1  0
 21 22  2  0
 22 23  1  0
 23 26  2  0
 25 24  2  0
 24 21  1  0
 25 26  1  0
 27 28  2  0
 28 29  1  0
 29 30  2  0
 30 31  1  0
 31 32  2  0
 32 27  1  0
 10 27  1  0
 14 33  1  0
 33 34  1  0
  8 35  1  0
  4 36  1  0
 36 37  1  0
 36 38  2  0
  7 39  2  0
M  END
>  <Classification>  (1002) 
1

>  <pchembl>  (1002) 
6.09

>  <InChI_steorem>  (1002) 
InChI=1S/C31H30N2O6/c1-18(34)32-16-23-27-22-14-24-28(39-17-38-24)29(37-2)25(22)26(20-11-7-4-8-12-20)31(27,36)30(35)33(23)15-21(32)13-19-9-5-3-6-10-19/h3-12,14,21,23,26-27,36H,13,15-17H2,1-2H3

>  <source>  (1002) 
ChEMBL29

>  <source_id>  (1002) 
29

>  <optional_reference>  (1002) 
10.1021/acs.jnatprod.9b01181

>  <optional_origin>  (1002) 
None

>  <target>  (1002) 
MDR1

$$$$

     RDKit          2D

 43 48  0  0  0  0  0  0  0  0999 V2000
   16.8170  -17.2353    0.0000 C   0  0  0  0  0  0  0  0  0  0  0  0
   16.8159  -18.0589    0.0000 C   0  0  0  0  0  0  0  0  0  0  0  0
   17.5239  -18.4720    0.0000 C   0  0  0  0  0  0  0  0  0  0  0  0
   18.2377  -18.0585    0.0000 C   0  0  0  0  0  0  0  0  0  0  0  0
   18.2349  -17.2317    0.0000 C   0  0  0  0  0  0  0  0  0  0  0  0
   17.5222  -16.8264    0.0000 C   0  0  0  0  0  0  0  0  0  0  0  0
   18.9502  -18.4701    0.0000 C   0  0  0  0  0  0  0  0  0  0  0  0
   19.6614  -18.0562    0.0000 C   0  0  0  0  0  0  0  0  0  0  0  0
   20.3739  -18.4679    0.0000 N   0  0  0  0  0  0  0  0  0  0  0  0
   20.3711  -19.2872    0.0000 C   0  0  0  0  0  0  0  0  0  0  0  0
   21.0796  -19.6946    0.0000 C   0  0  0  0  0  0  0  0  0  0  0  0
   21.0809  -18.0501    0.0000 C   0  0  0  0  0  0  0  0  0  0  0  0
   21.7938  -18.4661    0.0000 C   0  0  0  0  0  0  0  0  0  0  0  0
   21.7892  -19.2847    0.0000 C   0  0  0  0  0  0  0  0  0  0  0  0
   22.4912  -19.6941    0.0000 C   0  0  0  0  0  0  0  0  0  0  0  0
   23.2023  -19.2902    0.0000 C   0  0  0  0  0  0  0  0  0  0  0  0
   23.2030  -18.4685    0.0000 C   0  0  0  0  0  0  0  0  0  0  0  0
   22.4963  -18.0587    0.0000 C   0  0  0  0  0  0  0  0  0  0  0  0
   23.9150  -18.0561    0.0000 O   0  0  0  0  0  0  0  0  0  0  0  0
   24.6266  -18.4692    0.0000 C   0  0  0  0  0  0  0  0  0  0  0  0
   23.9130  -19.7007    0.0000 O   0  0  0  0  0  0  0  0  0  0  0  0
   23.9109  -20.5220    0.0000 C   0  0  0  0  0  0  0  0  0  0  0  0
   16.1051  -16.8268    0.0000 N   0  0  0  0  0  0  0  0  0  0  0  0
   15.3934  -17.2356    0.0000 C   0  0  0  0  0  0  0  0  0  0  0  0
   14.6814  -16.8272    0.0000 C   0  0  0  0  0  0  0  0  0  0  0  0
   15.3936  -18.0569    0.0000 O   0  0  0  0  0  0  0  0  0  0  0  0
   13.9749  -17.2377    0.0000 C   0  0  0  0  0  0  0  0  0  0  0  0
   13.2660  -16.8311    0.0000 C   0  0  0  0  0  0  0  0  0  0  0  0
   11.9718  -16.5611    0.0000 N   0  0  0  0  0  0  0  0  0  0  0  0
   12.5203  -17.1667    0.0000 C   0  0  0  0  0  0  0  0  0  0  0  0
   12.3784  -15.8522    0.0000 C   0  0  0  0  0  0  0  0  0  0  0  0
   13.1739  -16.0216    0.0000 C   0  0  0  0  0  0  0  0  0  0  0  0
   13.7163  -15.4181    0.0000 C   0  0  0  0  0  0  0  0  0  0  0  0
   13.4645  -14.6450    0.0000 C   0  0  0  0  0  0  0  0  0  0  0  0
   12.6652  -14.4788    0.0000 C   0  0  0  0  0  0  0  0  0  0  0  0
   12.1263  -15.0836    0.0000 N   0  0  0  0  0  0  0  0  0  0  0  0
   12.3535  -17.9647    0.0000 C   0  0  0  0  0  0  0  0  0  0  0  0
   11.5757  -18.2190    0.0000 C   0  0  0  0  0  0  0  0  0  0  0  0
   11.4084  -19.0181    0.0000 C   0  0  0  0  0  0  0  0  0  0  0  0
   12.0180  -19.5637    0.0000 C   0  0  0  0  0  0  0  0  0  0  0  0
   12.7975  -19.3046    0.0000 C   0  0  0  0  0  0  0  0  0  0  0  0
   12.9611  -18.5061    0.0000 C   0  0  0  0  0  0  0  0  0  0  0  0
   11.1593  -16.6488    0.0000 C   0  0  0  0  0  0  0  0  0  0  0  0
  1  2  2  0
  2  3  1  0
  3  4  2  0
  4  5  1  0
  5  6  2  0
  6  1  1  0
  4  7  1  0
  7  8  1  0
  8  9  1  0
  9 10  1  0
  9 12  1  0
 10 11  1  0
 11 14  1  0
 13 12  1  0
 13 14  2  0
 14 15  1  0
 15 16  2  0
 16 17  1  0
 17 18  2  0
 18 13  1  0
 17 19  1  0
 19 20  1  0
 16 21  1  0
 21 22  1  0
  1 23  1  0
 23 24  1  0
 24 25  1  0
 24 26  2  0
 25 27  2  3
 27 28  1  0
 28 32  1  0
 31 29  1  0
 29 30  1  0
 30 28  2  0
 31 32  2  0
 32 33  1  0
 33 34  2  0
 34 35  1  0
 35 36  2  0
 36 31  1  0
 37 38  2  0
 38 39  1  0
 39 40  2  0
 40 41  1  0
 41 42  2  0
 42 37  1  0
 30 37  1  0
 29 43  1  0
M  END
>  <Classification>  (1003) 
1

>  <pchembl>  (1003) 
6.09

>  <InChI_steorem>  (1003) 
InChI=1S/C36H36N4O3/c1-39-35(26-8-5-4-6-9-26)30(31-10-7-19-37-36(31)39)15-16-34(41)38-29-13-11-25(12-14-29)17-20-40-21-18-27-22-32(42-2)33(43-3)23-28(27)24-40/h4-16,19,22-23H,17-18,20-21,24H2,1-3H3,(H,38,41)

>  <source>  (1003) 
ChEMBL29

>  <source_id>  (1003) 
29

>  <optional_reference>  (1003) 
10.1021/acs.jmedchem.0c00337

>  <optional_origin>  (1003) 
None

>  <target>  (1003) 
MDR1

$$$$

     RDKit          2D

 43 48  0  0  0  0  0  0  0  0999 V2000
   31.0929  -16.1403    0.0000 C   0  0  0  0  0  0  0  0  0  0  0  0
   31.0917  -16.9712    0.0000 C   0  0  0  0  0  0  0  0  0  0  0  0
   31.8059  -17.3879    0.0000 C   0  0  0  0  0  0  0  0  0  0  0  0
   32.5258  -16.9707    0.0000 C   0  0  0  0  0  0  0  0  0  0  0  0
   32.5230  -16.1367    0.0000 C   0  0  0  0  0  0  0  0  0  0  0  0
   31.8041  -15.7279    0.0000 C   0  0  0  0  0  0  0  0  0  0  0  0
   33.2445  -17.3858    0.0000 C   0  0  0  0  0  0  0  0  0  0  0  0
   33.9619  -16.9684    0.0000 C   0  0  0  0  0  0  0  0  0  0  0  0
   34.6806  -17.3836    0.0000 N   0  0  0  0  0  0  0  0  0  0  0  0
   34.6779  -18.2101    0.0000 C   0  0  0  0  0  0  0  0  0  0  0  0
   35.3924  -18.6211    0.0000 C   0  0  0  0  0  0  0  0  0  0  0  0
   35.3937  -16.9623    0.0000 C   0  0  0  0  0  0  0  0  0  0  0  0
   36.1128  -17.3819    0.0000 C   0  0  0  0  0  0  0  0  0  0  0  0
   36.1083  -18.2076    0.0000 C   0  0  0  0  0  0  0  0  0  0  0  0
   36.8163  -18.6206    0.0000 C   0  0  0  0  0  0  0  0  0  0  0  0
   37.5336  -18.2132    0.0000 C   0  0  0  0  0  0  0  0  0  0  0  0
   37.5343  -17.3843    0.0000 C   0  0  0  0  0  0  0  0  0  0  0  0
   36.8214  -16.9709    0.0000 C   0  0  0  0  0  0  0  0  0  0  0  0
   38.2525  -16.9683    0.0000 O   0  0  0  0  0  0  0  0  0  0  0  0
   38.9702  -17.3850    0.0000 C   0  0  0  0  0  0  0  0  0  0  0  0
   38.2505  -18.6272    0.0000 O   0  0  0  0  0  0  0  0  0  0  0  0
   38.2483  -19.4557    0.0000 C   0  0  0  0  0  0  0  0  0  0  0  0
   30.3747  -15.7283    0.0000 N   0  0  0  0  0  0  0  0  0  0  0  0
   29.6568  -16.1407    0.0000 C   0  0  0  0  0  0  0  0  0  0  0  0
   28.9386  -15.7287    0.0000 C   0  0  0  0  0  0  0  0  0  0  0  0
   29.6570  -16.9691    0.0000 O   0  0  0  0  0  0  0  0  0  0  0  0
   28.9364  -14.9044    0.0000 O   0  0  0  0  0  0  0  0  0  0  0  0
   28.2260  -16.1428    0.0000 C   0  0  0  0  0  0  0  0  0  0  0  0
   27.3353  -17.1390    0.0000 N   0  0  0  0  0  0  0  0  0  0  0  0
   28.1410  -16.9652    0.0000 C   0  0  0  0  0  0  0  0  0  0  0  0
   26.9211  -16.4262    0.0000 C   0  0  0  0  0  0  0  0  0  0  0  0
   27.4702  -15.8147    0.0000 C   0  0  0  0  0  0  0  0  0  0  0  0
   27.2149  -15.0355    0.0000 C   0  0  0  0  0  0  0  0  0  0  0  0
   26.4109  -14.8666    0.0000 C   0  0  0  0  0  0  0  0  0  0  0  0
   25.8626  -15.4830    0.0000 C   0  0  0  0  0  0  0  0  0  0  0  0
   26.1208  -16.2598    0.0000 C   0  0  0  0  0  0  0  0  0  0  0  0
   27.0021  -17.8929    0.0000 C   0  0  0  0  0  0  0  0  0  0  0  0
   28.7534  -17.5138    0.0000 C   0  0  0  0  0  0  0  0  0  0  0  0
   28.5824  -18.3213    0.0000 C   0  0  0  0  0  0  0  0  0  0  0  0
   29.1955  -18.8711    0.0000 C   0  0  0  0  0  0  0  0  0  0  0  0
   29.9798  -18.6147    0.0000 C   0  0  0  0  0  0  0  0  0  0  0  0
   30.1475  -17.8033    0.0000 C   0  0  0  0  0  0  0  0  0  0  0  0
   29.5331  -17.2570    0.0000 C   0  0  0  0  0  0  0  0  0  0  0  0
  1  2  2  0
  2  3  1  0
  3  4  2  0
  4  5  1  0
  5  6  2  0
  6  1  1  0
  4  7  1  0
  7  8  1  0
  8  9  1  0
  9 10  1  0
  9 12  1  0
 10 11  1  0
 11 14  1  0
 13 12  1  0
 13 14  2  0
 14 15  1  0
 15 16  2  0
 16 17  1  0
 17 18  2  0
 18 13  1  0
 17 19  1  0
 19 20  1  0
 16 21  1  0
 21 22  1  0
  1 23  1  0
 23 24  1  0
 24 25  1  0
 24 26  2  0
 25 27  1  0
 25 28  1  0
 28 32  1  0
 31 29  1  0
 29 30  1  0
 30 28  2  0
 31 32  2  0
 32 33  1  0
 33 34  2  0
 34 35  1  0
 35 36  2  0
 36 31  1  0
 29 37  1  0
 38 39  2  0
 39 40  1  0
 40 41  2  0
 41 42  1  0
 42 43  2  0
 43 38  1  0
 30 38  1  0
M  END
>  <Classification>  (1004) 
1

>  <pchembl>  (1004) 
5.96

>  <InChI_steorem>  (1004) 
InChI=1S/C36H37N3O4/c1-38-30-12-8-7-11-29(30)33(34(38)25-9-5-4-6-10-25)35(40)36(41)37-28-15-13-24(14-16-28)17-19-39-20-18-26-21-31(42-2)32(43-3)22-27(26)23-39/h4-16,21-22,35,40H,17-20,23H2,1-3H3,(H,37,41)

>  <source>  (1004) 
ChEMBL29

>  <source_id>  (1004) 
29

>  <optional_reference>  (1004) 
10.1021/acs.jmedchem.0c00337

>  <optional_origin>  (1004) 
None

>  <target>  (1004) 
MDR1

$$$$

     RDKit          2D

 44 49  0  0  0  0  0  0  0  0999 V2000
   31.4811  -25.6796    0.0000 C   0  0  0  0  0  0  0  0  0  0  0  0
   31.4799  -26.5032    0.0000 C   0  0  0  0  0  0  0  0  0  0  0  0
   32.1880  -26.9163    0.0000 C   0  0  0  0  0  0  0  0  0  0  0  0
   32.9018  -26.5028    0.0000 C   0  0  0  0  0  0  0  0  0  0  0  0
   32.8989  -25.6760    0.0000 C   0  0  0  0  0  0  0  0  0  0  0  0
   32.1862  -25.2707    0.0000 C   0  0  0  0  0  0  0  0  0  0  0  0
   33.6142  -26.9144    0.0000 C   0  0  0  0  0  0  0  0  0  0  0  0
   34.3254  -26.5005    0.0000 C   0  0  0  0  0  0  0  0  0  0  0  0
   35.0379  -26.9122    0.0000 N   0  0  0  0  0  0  0  0  0  0  0  0
   35.0352  -27.7316    0.0000 C   0  0  0  0  0  0  0  0  0  0  0  0
   35.7436  -28.1389    0.0000 C   0  0  0  0  0  0  0  0  0  0  0  0
   35.7450  -26.4944    0.0000 C   0  0  0  0  0  0  0  0  0  0  0  0
   36.4579  -26.9105    0.0000 C   0  0  0  0  0  0  0  0  0  0  0  0
   36.4533  -27.7290    0.0000 C   0  0  0  0  0  0  0  0  0  0  0  0
   37.1552  -28.1385    0.0000 C   0  0  0  0  0  0  0  0  0  0  0  0
   37.8663  -27.7345    0.0000 C   0  0  0  0  0  0  0  0  0  0  0  0
   37.8670  -26.9128    0.0000 C   0  0  0  0  0  0  0  0  0  0  0  0
   37.1603  -26.5030    0.0000 C   0  0  0  0  0  0  0  0  0  0  0  0
   38.5790  -26.5004    0.0000 O   0  0  0  0  0  0  0  0  0  0  0  0
   39.2907  -26.9135    0.0000 C   0  0  0  0  0  0  0  0  0  0  0  0
   38.5771  -28.1450    0.0000 O   0  0  0  0  0  0  0  0  0  0  0  0
   38.5749  -28.9663    0.0000 C   0  0  0  0  0  0  0  0  0  0  0  0
   30.7691  -25.2712    0.0000 N   0  0  0  0  0  0  0  0  0  0  0  0
   30.0574  -25.6799    0.0000 C   0  0  0  0  0  0  0  0  0  0  0  0
   30.0576  -26.5012    0.0000 O   0  0  0  0  0  0  0  0  0  0  0  0
   29.3501  -25.2706    0.0000 C   0  0  0  0  0  0  0  0  0  0  0  0
   28.6420  -25.6785    0.0000 C   0  0  0  0  0  0  0  0  0  0  0  0
   27.9347  -25.2692    0.0000 C   0  0  0  0  0  0  0  0  0  0  0  0
   27.9393  -24.4535    0.0000 C   0  0  0  0  0  0  0  0  0  0  0  0
   26.5227  -25.2668    0.0000 O   0  0  0  0  0  0  0  0  0  0  0  0
   27.2304  -25.6806    0.0000 C   0  0  0  0  0  0  0  0  0  0  0  0
   26.5255  -24.4487    0.0000 C   0  0  0  0  0  0  0  0  0  0  0  0
   27.2368  -24.0473    0.0000 C   0  0  0  0  0  0  0  0  0  0  0  0
   27.2438  -23.2326    0.0000 C   0  0  0  0  0  0  0  0  0  0  0  0
   26.5404  -22.8182    0.0000 C   0  0  0  0  0  0  0  0  0  0  0  0
   25.8284  -23.2245    0.0000 C   0  0  0  0  0  0  0  0  0  0  0  0
   25.8248  -24.0379    0.0000 C   0  0  0  0  0  0  0  0  0  0  0  0
   28.6482  -24.0471    0.0000 O   0  0  0  0  0  0  0  0  0  0  0  0
   27.2303  -26.4978    0.0000 C   0  0  0  0  0  0  0  0  0  0  0  0
   26.5216  -26.9049    0.0000 C   0  0  0  0  0  0  0  0  0  0  0  0
   26.5211  -27.7213    0.0000 C   0  0  0  0  0  0  0  0  0  0  0  0
   27.2293  -28.1309    0.0000 C   0  0  0  0  0  0  0  0  0  0  0  0
   27.9394  -27.7180    0.0000 C   0  0  0  0  0  0  0  0  0  0  0  0
   27.9364  -26.9029    0.0000 C   0  0  0  0  0  0  0  0  0  0  0  0
  1  2  2  0
  2  3  1  0
  3  4  2  0
  4  5  1  0
  5  6  2  0
  6  1  1  0
  4  7  1  0
  7  8  1  0
  8  9  1  0
  9 10  1  0
  9 12  1  0
 10 11  1  0
 11 14  1  0
 13 12  1  0
 13 14  2  0
 14 15  1  0
 15 16  2  0
 16 17  1  0
 17 18  2  0
 18 13  1  0
 17 19  1  0
 19 20  1  0
 16 21  1  0
 21 22  1  0
  1 23  1  0
 23 24  1  0
 24 25  2  0
 24 26  1  0
 26 27  2  3
 27 28  1  0
 28 29  1  0
 28 31  2  0
 29 33  1  0
 32 30  1  0
 30 31  1  0
 32 33  2  0
 33 34  1  0
 34 35  2  0
 35 36  1  0
 36 37  2  0
 37 32  1  0
 29 38  2  0
 31 39  1  0
 39 40  2  0
 40 41  1  0
 41 42  2  0
 42 43  1  0
 43 44  2  0
 44 39  1  0
M  END
>  <Classification>  (1005) 
1

>  <pchembl>  (1005) 
5.87

>  <InChI_steorem>  (1005) 
InChI=1S/C37H34N2O5/c1-42-33-22-27-19-21-39(24-28(27)23-34(33)43-2)20-18-25-12-14-29(15-13-25)38-35(40)17-16-31-36(41)30-10-6-7-11-32(30)44-37(31)26-8-4-3-5-9-26/h3-17,22-23H,18-21,24H2,1-2H3,(H,38,40)

>  <source>  (1005) 
ChEMBL29

>  <source_id>  (1005) 
29

>  <optional_reference>  (1005) 
10.1021/acs.jmedchem.0c00337

>  <optional_origin>  (1005) 
None

>  <target>  (1005) 
MDR1

$$$$

     RDKit          2D

 43 50  0  0  0  0  0  0  0  0999 V2000
   19.4310   -4.4615    0.0000 C   0  0  0  0  0  0  0  0  0  0  0  0
   20.8498   -5.2829    0.0000 C   0  0  0  0  0  0  0  0  0  0  0  0
   20.8498   -4.4615    0.0000 C   0  0  0  0  0  0  0  0  0  0  0  0
   20.1404   -4.0447    0.0000 N   0  0  0  0  0  0  0  0  0  0  0  0
   20.1404   -5.6873    0.0000 N   0  0  0  0  0  0  0  0  0  0  0  0
   19.4288   -5.2868    0.0000 C   0  0  0  0  0  0  0  0  0  0  0  0
   19.9780   -6.4880    0.0000 C   0  0  0  0  0  0  0  0  0  0  0  0
   19.1661   -6.5799    0.0000 C   0  0  0  0  0  0  0  0  0  0  0  0
   18.8215   -5.8426    0.0000 C   0  0  0  0  0  0  0  0  0  0  0  0
   18.5660   -7.1356    0.0000 C   0  0  0  0  0  0  0  0  0  0  0  0
   17.8530   -6.7394    0.0000 C   0  0  0  0  0  0  0  0  0  0  0  0
   18.0128   -5.9402    0.0000 C   0  0  0  0  0  0  0  0  0  0  0  0
   17.4050   -5.4021    0.0000 C   0  0  0  0  0  0  0  0  0  0  0  0
   17.0854   -6.9995    0.0000 C   0  0  0  0  0  0  0  0  0  0  0  0
   16.4763   -6.4649    0.0000 C   0  0  0  0  0  0  0  0  0  0  0  0
   16.6292   -5.6615    0.0000 C   0  0  0  0  0  0  0  0  0  0  0  0
   15.9121   -5.2691    0.0000 O   0  0  0  0  0  0  0  0  0  0  0  0
   15.3145   -5.8300    0.0000 C   0  0  0  0  0  0  0  0  0  0  0  0
   15.6648   -6.5664    0.0000 O   0  0  0  0  0  0  0  0  0  0  0  0
   21.5628   -4.0509    0.0000 C   0  0  0  0  0  0  0  0  0  0  0  0
   22.2735   -4.4657    0.0000 C   0  0  0  0  0  0  0  0  0  0  0  0
   22.2695   -5.2880    0.0000 C   0  0  0  0  0  0  0  0  0  0  0  0
   22.9752   -5.6986    0.0000 C   0  0  0  0  0  0  0  0  0  0  0  0
   22.9786   -4.0555    0.0000 C   0  0  0  0  0  0  0  0  0  0  0  0
   23.6890   -4.4665    0.0000 C   0  0  0  0  0  0  0  0  0  0  0  0
   23.6902   -5.2887    0.0000 C   0  0  0  0  0  0  0  0  0  0  0  0
   24.4727   -5.5404    0.0000 O   0  0  0  0  0  0  0  0  0  0  0  0
   24.9568   -4.8737    0.0000 C   0  0  0  0  0  0  0  0  0  0  0  0
   24.4707   -4.2126    0.0000 O   0  0  0  0  0  0  0  0  0  0  0  0
   18.6640   -7.9494    0.0000 C   0  0  0  0  0  0  0  0  0  0  0  0
   18.0037   -8.4425    0.0000 C   0  0  0  0  0  0  0  0  0  0  0  0
   18.1040   -9.2574    0.0000 C   0  0  0  0  0  0  0  0  0  0  0  0
   18.8557   -9.5802    0.0000 C   0  0  0  0  0  0  0  0  0  0  0  0
   19.5161   -9.0861    0.0000 C   0  0  0  0  0  0  0  0  0  0  0  0
   19.4166   -8.2730    0.0000 C   0  0  0  0  0  0  0  0  0  0  0  0
   16.9278   -7.8055    0.0000 O   0  0  0  0  0  0  0  0  0  0  0  0
   16.1505   -8.0699    0.0000 C   0  0  0  0  0  0  0  0  0  0  0  0
   19.5672   -7.2887    0.0000 O   0  0  0  0  0  0  0  0  0  0  0  0
   20.1404   -3.2234    0.0000 C   0  0  0  0  0  0  0  0  0  0  0  0
   20.8522   -2.8148    0.0000 C   0  0  0  0  0  0  0  0  0  0  0  0
   19.4286   -2.8148    0.0000 O   0  0  0  0  0  0  0  0  0  0  0  0
   22.9736   -6.5199    0.0000 O   0  0  0  0  0  0  0  0  0  0  0  0
   22.2651   -6.9313    0.0000 C   0  0  0  0  0  0  0  0  0  0  0  0
  1  6  1  0
  1  4  1  0
  5  2  1  0
  2  3  1  0
  3  4  1  0
  5  6  1  0
  6  9  1  0
  8  7  1  0
  7  5  1  0
  8  9  1  0
  9 12  1  0
 11 10  1  0
 10  8  1  0
 11 12  2  0
 12 13  1  0
 13 16  2  0
 15 14  2  0
 14 11  1  0
 15 16  1  0
 16 17  1  0
 17 18  1  0
 18 19  1  0
 19 15  1  0
  3 20  1  0
 20 21  1  0
 21 22  2  0
 22 23  1  0
 23 26  2  0
 25 24  2  0
 24 21  1  0
 25 26  1  0
 26 27  1  0
 27 28  1  0
 28 29  1  0
 29 25  1  0
 30 31  2  0
 31 32  1  0
 32 33  2  0
 33 34  1  0
 34 35  2  0
 35 30  1  0
 10 30  1  0
 14 36  1  0
 36 37  1  0
  8 38  1  0
  4 39  1  0
 39 40  1  0
 39 41  2  0
 23 42  1  0
 42 43  1  0
M  END
>  <Classification>  (1006) 
1

>  <pchembl>  (1006) 
6.06

>  <InChI_steorem>  (1006) 
InChI=1S/C33H34N2O8/c1-18(36)35-14-23-29-22-12-26-31(43-17-41-26)32(39-3)27(22)28(20-7-5-4-6-8-20)33(29,37)15-34(23)13-21(35)9-19-10-24(38-2)30-25(11-19)40-16-42-30/h4-8,10-12,21,23,28-29,37H,9,13-17H2,1-3H3

>  <source>  (1006) 
ChEMBL29

>  <source_id>  (1006) 
29

>  <optional_reference>  (1006) 
10.1021/acs.jnatprod.9b01181

>  <optional_origin>  (1006) 
None

>  <target>  (1006) 
MDR1

$$$$

     RDKit          2D

 42 49  0  0  0  0  0  0  0  0999 V2000
    7.9490   -3.9456    0.0000 C   0  0  0  0  0  0  0  0  0  0  0  0
    9.3679   -4.7669    0.0000 C   0  0  0  0  0  0  0  0  0  0  0  0
    9.3679   -3.9456    0.0000 C   0  0  0  0  0  0  0  0  0  0  0  0
    8.6584   -3.5288    0.0000 N   0  0  0  0  0  0  0  0  0  0  0  0
    8.6584   -5.1714    0.0000 N   0  0  0  0  0  0  0  0  0  0  0  0
    7.9469   -4.7709    0.0000 C   0  0  0  0  0  0  0  0  0  0  0  0
    8.4961   -5.9721    0.0000 C   0  0  0  0  0  0  0  0  0  0  0  0
    7.6842   -6.0640    0.0000 C   0  0  0  0  0  0  0  0  0  0  0  0
    7.3395   -5.3267    0.0000 C   0  0  0  0  0  0  0  0  0  0  0  0
    7.0840   -6.6197    0.0000 C   0  0  0  0  0  0  0  0  0  0  0  0
    6.3710   -6.2235    0.0000 C   0  0  0  0  0  0  0  0  0  0  0  0
    6.5309   -5.4243    0.0000 C   0  0  0  0  0  0  0  0  0  0  0  0
    5.9231   -4.8862    0.0000 C   0  0  0  0  0  0  0  0  0  0  0  0
    5.6035   -6.4836    0.0000 C   0  0  0  0  0  0  0  0  0  0  0  0
    4.9944   -5.9490    0.0000 C   0  0  0  0  0  0  0  0  0  0  0  0
    5.1472   -5.1456    0.0000 C   0  0  0  0  0  0  0  0  0  0  0  0
    4.4302   -4.7532    0.0000 O   0  0  0  0  0  0  0  0  0  0  0  0
    3.8326   -5.3141    0.0000 C   0  0  0  0  0  0  0  0  0  0  0  0
    4.1829   -6.0505    0.0000 O   0  0  0  0  0  0  0  0  0  0  0  0
   10.0809   -3.5350    0.0000 C   0  0  0  0  0  0  0  0  0  0  0  0
   10.7915   -3.9498    0.0000 C   0  0  0  0  0  0  0  0  0  0  0  0
   10.7875   -4.7721    0.0000 C   0  0  0  0  0  0  0  0  0  0  0  0
   11.4932   -5.1827    0.0000 C   0  0  0  0  0  0  0  0  0  0  0  0
   11.4966   -3.5396    0.0000 C   0  0  0  0  0  0  0  0  0  0  0  0
   12.2070   -3.9506    0.0000 C   0  0  0  0  0  0  0  0  0  0  0  0
   12.2082   -4.7728    0.0000 C   0  0  0  0  0  0  0  0  0  0  0  0
   12.9908   -5.0245    0.0000 O   0  0  0  0  0  0  0  0  0  0  0  0
   13.4748   -4.3577    0.0000 C   0  0  0  0  0  0  0  0  0  0  0  0
   12.9888   -3.6967    0.0000 O   0  0  0  0  0  0  0  0  0  0  0  0
    7.1820   -7.4335    0.0000 C   0  0  0  0  0  0  0  0  0  0  0  0
    6.5217   -7.9266    0.0000 C   0  0  0  0  0  0  0  0  0  0  0  0
    6.6220   -8.7415    0.0000 C   0  0  0  0  0  0  0  0  0  0  0  0
    7.3737   -9.0643    0.0000 C   0  0  0  0  0  0  0  0  0  0  0  0
    8.0341   -8.5702    0.0000 C   0  0  0  0  0  0  0  0  0  0  0  0
    7.9346   -7.7571    0.0000 C   0  0  0  0  0  0  0  0  0  0  0  0
    5.4459   -7.2896    0.0000 O   0  0  0  0  0  0  0  0  0  0  0  0
    4.6685   -7.5540    0.0000 C   0  0  0  0  0  0  0  0  0  0  0  0
    8.6584   -2.7075    0.0000 C   0  0  0  0  0  0  0  0  0  0  0  0
    9.3703   -2.2989    0.0000 C   0  0  0  0  0  0  0  0  0  0  0  0
    7.9466   -2.2989    0.0000 O   0  0  0  0  0  0  0  0  0  0  0  0
   11.4916   -6.0040    0.0000 O   0  0  0  0  0  0  0  0  0  0  0  0
   10.7831   -6.4154    0.0000 C   0  0  0  0  0  0  0  0  0  0  0  0
  1  6  1  0
  1  4  1  0
  5  2  1  0
  2  3  1  0
  3  4  1  0
  5  6  1  0
  6  9  1  0
  8  7  1  0
  7  5  1  0
  8  9  1  0
  9 12  1  0
 11 10  1  0
 10  8  1  0
 11 12  2  0
 12 13  1  0
 13 16  2  0
 15 14  2  0
 14 11  1  0
 15 16  1  0
 16 17  1  0
 17 18  1  0
 18 19  1  0
 19 15  1  0
  3 20  1  0
 20 21  1  0
 21 22  2  0
 22 23  1  0
 23 26  2  0
 25 24  2  0
 24 21  1  0
 25 26  1  0
 26 27  1  0
 27 28  1  0
 28 29  1  0
 29 25  1  0
 30 31  2  0
 31 32  1  0
 32 33  2  0
 33 34  1  0
 34 35  2  0
 35 30  1  0
 10 30  1  0
 14 36  1  0
 36 37  1  0
  4 38  1  0
 38 39  1  0
 38 40  2  0
 23 41  1  0
 41 42  1  0
M  END
>  <Classification>  (1007) 
1

>  <pchembl>  (1007) 
6.46

>  <InChI_steorem>  (1007) 
InChI=1S/C33H34N2O7/c1-18(36)35-15-24-29-22-12-27-32(42-17-40-27)33(38-3)30(22)28(20-7-5-4-6-8-20)23(29)14-34(24)13-21(35)9-19-10-25(37-2)31-26(11-19)39-16-41-31/h4-8,10-12,21,23-24,28-29H,9,13-17H2,1-3H3

>  <source>  (1007) 
ChEMBL29

>  <source_id>  (1007) 
29

>  <optional_reference>  (1007) 
10.1021/acs.jnatprod.9b01181

>  <optional_origin>  (1007) 
None

>  <target>  (1007) 
MDR1

$$$$

     RDKit          2D

 46 51  0  0  0  0  0  0  0  0999 V2000
   22.4796  -11.5686    0.0000 C   0  0  0  0  0  0  0  0  0  0  0  0
   22.4785  -12.3922    0.0000 C   0  0  0  0  0  0  0  0  0  0  0  0
   23.1906  -12.8053    0.0000 C   0  0  0  0  0  0  0  0  0  0  0  0
   23.9044  -12.3918    0.0000 C   0  0  0  0  0  0  0  0  0  0  0  0
   23.9016  -11.5650    0.0000 C   0  0  0  0  0  0  0  0  0  0  0  0
   23.1888  -11.1597    0.0000 C   0  0  0  0  0  0  0  0  0  0  0  0
   21.7682  -12.8047    0.0000 C   0  0  0  0  0  0  0  0  0  0  0  0
   21.0564  -12.3897    0.0000 C   0  0  0  0  0  0  0  0  0  0  0  0
   20.3488  -12.8012    0.0000 C   0  0  0  0  0  0  0  0  0  0  0  0
   20.3478  -13.6234    0.0000 C   0  0  0  0  0  0  0  0  0  0  0  0
   21.0601  -14.0324    0.0000 C   0  0  0  0  0  0  0  0  0  0  0  0
   21.7689  -13.6227    0.0000 N   0  0  0  0  0  0  0  0  0  0  0  0
   24.6119  -11.1537    0.0000 O   0  0  0  0  0  0  0  0  0  0  0  0
   25.3252  -11.5597    0.0000 C   0  0  0  0  0  0  0  0  0  0  0  0
   25.3250  -12.3786    0.0000 N   0  0  0  0  0  0  0  0  0  0  0  0
   26.0334  -12.7886    0.0000 C   0  0  0  0  0  0  0  0  0  0  0  0
   26.7447  -12.3732    0.0000 C   0  0  0  0  0  0  0  0  0  0  0  0
   26.7389  -11.5476    0.0000 C   0  0  0  0  0  0  0  0  0  0  0  0
   26.0258  -11.1455    0.0000 C   0  0  0  0  0  0  0  0  0  0  0  0
   26.0361  -13.6099    0.0000 C   0  0  0  0  0  0  0  0  0  0  0  0
   26.7493  -14.0162    0.0000 C   0  0  0  0  0  0  0  0  0  0  0  0
   26.7519  -14.8375    0.0000 C   0  0  0  0  0  0  0  0  0  0  0  0
   27.4651  -15.2479    0.0000 N   0  0  0  0  0  0  0  0  0  0  0  0
   26.0456  -15.2526    0.0000 O   0  0  0  0  0  0  0  0  0  0  0  0
   28.1756  -14.8329    0.0000 C   0  0  0  0  0  0  0  0  0  0  0  0
   28.8856  -15.2435    0.0000 C   0  0  0  0  0  0  0  0  0  0  0  0
   29.5956  -14.8291    0.0000 C   0  0  0  0  0  0  0  0  0  0  0  0
   29.5934  -14.0069    0.0000 C   0  0  0  0  0  0  0  0  0  0  0  0
   28.8752  -13.6008    0.0000 C   0  0  0  0  0  0  0  0  0  0  0  0
   28.1681  -14.0134    0.0000 C   0  0  0  0  0  0  0  0  0  0  0  0
   30.3033  -13.5951    0.0000 C   0  0  0  0  0  0  0  0  0  0  0  0
   31.0170  -14.0004    0.0000 C   0  0  0  0  0  0  0  0  0  0  0  0
   31.7228  -13.5885    0.0000 N   0  0  0  0  0  0  0  0  0  0  0  0
   32.4343  -13.9960    0.0000 C   0  0  0  0  0  0  0  0  0  0  0  0
   31.7150  -12.7685    0.0000 C   0  0  0  0  0  0  0  0  0  0  0  0
   33.1391  -13.5850    0.0000 C   0  0  0  0  0  0  0  0  0  0  0  0
   32.4290  -12.3543    0.0000 C   0  0  0  0  0  0  0  0  0  0  0  0
   33.1389  -12.7678    0.0000 C   0  0  0  0  0  0  0  0  0  0  0  0
   33.8483  -12.3573    0.0000 C   0  0  0  0  0  0  0  0  0  0  0  0
   33.8490  -11.5375    0.0000 C   0  0  0  0  0  0  0  0  0  0  0  0
   33.1345  -11.1300    0.0000 C   0  0  0  0  0  0  0  0  0  0  0  0
   32.4280  -11.5388    0.0000 C   0  0  0  0  0  0  0  0  0  0  0  0
   33.1319  -10.3087    0.0000 O   0  0  0  0  0  0  0  0  0  0  0  0
   33.8424   -9.8937    0.0000 C   0  0  0  0  0  0  0  0  0  0  0  0
   34.5605  -11.1282    0.0000 O   0  0  0  0  0  0  0  0  0  0  0  0
   35.2727  -11.5361    0.0000 C   0  0  0  0  0  0  0  0  0  0  0  0
  1  2  2  0
  2  3  1  0
  3  4  2  0
  4  5  1  0
  5  6  2  0
  6  1  1  0
  7  8  2  0
  8  9  1  0
  9 10  2  0
 10 11  1  0
 11 12  2  0
 12  7  1  0
  2  7  1  0
  5 13  1  0
 13 14  1  0
 14 15  2  0
 15 16  1  0
 16 17  2  0
 17 18  1  0
 18 19  2  0
 19 14  1  0
 16 20  1  0
 20 21  2  3
 21 22  1  0
 22 23  1  0
 22 24  2  0
 23 25  1  0
 25 26  2  0
 26 27  1  0
 27 28  2  0
 28 29  1  0
 29 30  2  0
 30 25  1  0
 28 31  1  0
 31 32  1  0
 32 33  1  0
 33 34  1  0
 33 35  1  0
 34 36  1  0
 37 35  1  0
 38 36  1  0
 37 38  2  0
 38 39  1  0
 39 40  2  0
 40 41  1  0
 41 42  2  0
 42 37  1  0
 41 43  1  0
 43 44  1  0
 40 45  1  0
 45 46  1  0
M  END
>  <Classification>  (1008) 
1

>  <pchembl>  (1008) 
6.0

>  <InChI_steorem>  (1008) 
InChI=1S/C38H36N4O4/c1-44-35-24-29-20-23-42(26-30(29)25-36(35)45-2)22-19-27-9-13-32(14-10-27)40-37(43)18-15-31-6-5-8-38(41-31)46-33-16-11-28(12-17-33)34-7-3-4-21-39-34/h3-18,21,24-25H,19-20,22-23,26H2,1-2H3,(H,40,43)

>  <source>  (1008) 
ChEMBL29

>  <source_id>  (1008) 
29

>  <optional_reference>  (1008) 
10.1021/acs.jmedchem.0c00337

>  <optional_origin>  (1008) 
None

>  <target>  (1008) 
MDR1

$$$$

     RDKit          2D

 46 51  0  0  0  0  0  0  0  0999 V2000
    5.1018  -24.0569    0.0000 N   0  0  0  0  0  0  0  0  0  0  0  0
    5.1016  -24.8759    0.0000 C   0  0  0  0  0  0  0  0  0  0  0  0
    5.8100  -25.2859    0.0000 C   0  0  0  0  0  0  0  0  0  0  0  0
    6.5213  -24.8704    0.0000 C   0  0  0  0  0  0  0  0  0  0  0  0
    6.5155  -24.0449    0.0000 C   0  0  0  0  0  0  0  0  0  0  0  0
    5.8024  -23.6427    0.0000 C   0  0  0  0  0  0  0  0  0  0  0  0
    5.8127  -26.1072    0.0000 C   0  0  0  0  0  0  0  0  0  0  0  0
    6.5258  -26.5134    0.0000 C   0  0  0  0  0  0  0  0  0  0  0  0
    6.5285  -27.3348    0.0000 C   0  0  0  0  0  0  0  0  0  0  0  0
    7.2417  -27.7452    0.0000 N   0  0  0  0  0  0  0  0  0  0  0  0
    5.8222  -27.7498    0.0000 O   0  0  0  0  0  0  0  0  0  0  0  0
    7.9522  -27.3301    0.0000 C   0  0  0  0  0  0  0  0  0  0  0  0
    8.6622  -27.7407    0.0000 C   0  0  0  0  0  0  0  0  0  0  0  0
    9.3722  -27.3264    0.0000 C   0  0  0  0  0  0  0  0  0  0  0  0
    9.3699  -26.5042    0.0000 C   0  0  0  0  0  0  0  0  0  0  0  0
    8.6518  -26.0981    0.0000 C   0  0  0  0  0  0  0  0  0  0  0  0
    7.9447  -26.5107    0.0000 C   0  0  0  0  0  0  0  0  0  0  0  0
   10.0799  -26.0923    0.0000 C   0  0  0  0  0  0  0  0  0  0  0  0
   10.7936  -26.4976    0.0000 C   0  0  0  0  0  0  0  0  0  0  0  0
   11.4994  -26.0858    0.0000 N   0  0  0  0  0  0  0  0  0  0  0  0
   12.2108  -26.4933    0.0000 C   0  0  0  0  0  0  0  0  0  0  0  0
   11.4916  -25.2658    0.0000 C   0  0  0  0  0  0  0  0  0  0  0  0
   12.9157  -26.0823    0.0000 C   0  0  0  0  0  0  0  0  0  0  0  0
   12.2056  -24.8516    0.0000 C   0  0  0  0  0  0  0  0  0  0  0  0
   12.9154  -25.2651    0.0000 C   0  0  0  0  0  0  0  0  0  0  0  0
   13.6249  -24.8545    0.0000 C   0  0  0  0  0  0  0  0  0  0  0  0
   13.6256  -24.0347    0.0000 C   0  0  0  0  0  0  0  0  0  0  0  0
   12.9111  -23.6272    0.0000 C   0  0  0  0  0  0  0  0  0  0  0  0
   12.2045  -24.0360    0.0000 C   0  0  0  0  0  0  0  0  0  0  0  0
   12.9085  -22.8059    0.0000 O   0  0  0  0  0  0  0  0  0  0  0  0
   13.6190  -22.3910    0.0000 C   0  0  0  0  0  0  0  0  0  0  0  0
   14.3370  -23.6255    0.0000 O   0  0  0  0  0  0  0  0  0  0  0  0
   15.0493  -24.0334    0.0000 C   0  0  0  0  0  0  0  0  0  0  0  0
    5.7941  -22.8256    0.0000 O   0  0  0  0  0  0  0  0  0  0  0  0
    6.4976  -22.4098    0.0000 C   0  0  0  0  0  0  0  0  0  0  0  0
    7.2057  -22.8137    0.0000 C   0  0  0  0  0  0  0  0  0  0  0  0
    7.9087  -22.3986    0.0000 C   0  0  0  0  0  0  0  0  0  0  0  0
    7.9008  -21.5806    0.0000 C   0  0  0  0  0  0  0  0  0  0  0  0
    7.1840  -21.1795    0.0000 C   0  0  0  0  0  0  0  0  0  0  0  0
    6.4839  -21.5969    0.0000 C   0  0  0  0  0  0  0  0  0  0  0  0
    8.5986  -21.1656    0.0000 C   0  0  0  0  0  0  0  0  0  0  0  0
    9.3113  -21.5677    0.0000 C   0  0  0  0  0  0  0  0  0  0  0  0
   10.0138  -21.1517    0.0000 N   0  0  0  0  0  0  0  0  0  0  0  0
   10.0048  -20.3337    0.0000 C   0  0  0  0  0  0  0  0  0  0  0  0
    9.2875  -19.9335    0.0000 C   0  0  0  0  0  0  0  0  0  0  0  0
    8.5879  -20.3518    0.0000 C   0  0  0  0  0  0  0  0  0  0  0  0
  1  2  2  0
  2  3  1  0
  3  4  2  0
  4  5  1  0
  5  6  2  0
  6  1  1  0
  3  7  1  0
  7  8  2  3
  8  9  1  0
  9 10  1  0
  9 11  2  0
 10 12  1  0
 12 13  2  0
 13 14  1  0
 14 15  2  0
 15 16  1  0
 16 17  2  0
 17 12  1  0
 15 18  1  0
 18 19  1  0
 19 20  1  0
 20 21  1  0
 20 22  1  0
 21 23  1  0
 24 22  1  0
 25 23  1  0
 24 25  2  0
 25 26  1  0
 26 27  2  0
 27 28  1  0
 28 29  2  0
 29 24  1  0
 28 30  1  0
 30 31  1  0
 27 32  1  0
 32 33  1  0
  6 34  1  0
 34 35  1  0
 35 36  2  0
 36 37  1  0
 37 38  2  0
 38 39  1  0
 39 40  2  0
 40 35  1  0
 41 42  2  0
 42 43  1  0
 43 44  2  0
 44 45  1  0
 45 46  2  0
 46 41  1  0
 38 41  1  0
M  END
>  <Classification>  (1009) 
1

>  <pchembl>  (1009) 
6.41

>  <InChI_steorem>  (1009) 
InChI=1S/C38H36N4O4/c1-44-35-22-30-18-21-42(26-32(30)23-36(35)45-2)20-17-27-5-11-33(12-6-27)41-37(43)15-7-28-8-16-38(40-24-28)46-34-13-9-29(10-14-34)31-4-3-19-39-25-31/h3-16,19,22-25H,17-18,20-21,26H2,1-2H3,(H,41,43)

>  <source>  (1009) 
ChEMBL29

>  <source_id>  (1009) 
29

>  <optional_reference>  (1009) 
10.1021/acs.jmedchem.0c00337

>  <optional_origin>  (1009) 
None

>  <target>  (1009) 
MDR1

$$$$

     RDKit          2D

 46 51  0  0  0  0  0  0  0  0999 V2000
    5.1018  -24.0569    0.0000 N   0  0  0  0  0  0  0  0  0  0  0  0
    5.1016  -24.8759    0.0000 C   0  0  0  0  0  0  0  0  0  0  0  0
    5.8100  -25.2859    0.0000 C   0  0  0  0  0  0  0  0  0  0  0  0
    6.5213  -24.8704    0.0000 C   0  0  0  0  0  0  0  0  0  0  0  0
    6.5155  -24.0449    0.0000 C   0  0  0  0  0  0  0  0  0  0  0  0
    5.8024  -23.6427    0.0000 C   0  0  0  0  0  0  0  0  0  0  0  0
    5.8127  -26.1072    0.0000 C   0  0  0  0  0  0  0  0  0  0  0  0
    6.5258  -26.5134    0.0000 C   0  0  0  0  0  0  0  0  0  0  0  0
    6.5285  -27.3348    0.0000 C   0  0  0  0  0  0  0  0  0  0  0  0
    7.2417  -27.7452    0.0000 N   0  0  0  0  0  0  0  0  0  0  0  0
    5.8222  -27.7498    0.0000 O   0  0  0  0  0  0  0  0  0  0  0  0
    7.9522  -27.3301    0.0000 C   0  0  0  0  0  0  0  0  0  0  0  0
    8.6622  -27.7407    0.0000 C   0  0  0  0  0  0  0  0  0  0  0  0
    9.3722  -27.3264    0.0000 C   0  0  0  0  0  0  0  0  0  0  0  0
    9.3699  -26.5042    0.0000 C   0  0  0  0  0  0  0  0  0  0  0  0
    8.6518  -26.0981    0.0000 C   0  0  0  0  0  0  0  0  0  0  0  0
    7.9447  -26.5107    0.0000 C   0  0  0  0  0  0  0  0  0  0  0  0
   10.0799  -26.0923    0.0000 C   0  0  0  0  0  0  0  0  0  0  0  0
   10.7936  -26.4976    0.0000 C   0  0  0  0  0  0  0  0  0  0  0  0
   11.4994  -26.0858    0.0000 N   0  0  0  0  0  0  0  0  0  0  0  0
   12.2108  -26.4933    0.0000 C   0  0  0  0  0  0  0  0  0  0  0  0
   11.4916  -25.2658    0.0000 C   0  0  0  0  0  0  0  0  0  0  0  0
   12.9157  -26.0823    0.0000 C   0  0  0  0  0  0  0  0  0  0  0  0
   12.2056  -24.8516    0.0000 C   0  0  0  0  0  0  0  0  0  0  0  0
   12.9154  -25.2651    0.0000 C   0  0  0  0  0  0  0  0  0  0  0  0
   13.6249  -24.8545    0.0000 C   0  0  0  0  0  0  0  0  0  0  0  0
   13.6256  -24.0347    0.0000 C   0  0  0  0  0  0  0  0  0  0  0  0
   12.9111  -23.6272    0.0000 C   0  0  0  0  0  0  0  0  0  0  0  0
   12.2045  -24.0360    0.0000 C   0  0  0  0  0  0  0  0  0  0  0  0
   12.9085  -22.8059    0.0000 O   0  0  0  0  0  0  0  0  0  0  0  0
   13.6190  -22.3910    0.0000 C   0  0  0  0  0  0  0  0  0  0  0  0
   14.3370  -23.6255    0.0000 O   0  0  0  0  0  0  0  0  0  0  0  0
   15.0493  -24.0334    0.0000 C   0  0  0  0  0  0  0  0  0  0  0  0
    5.7941  -22.8256    0.0000 O   0  0  0  0  0  0  0  0  0  0  0  0
    6.4976  -22.4098    0.0000 C   0  0  0  0  0  0  0  0  0  0  0  0
    7.2057  -22.8137    0.0000 C   0  0  0  0  0  0  0  0  0  0  0  0
    7.9087  -22.3986    0.0000 C   0  0  0  0  0  0  0  0  0  0  0  0
    7.9008  -21.5806    0.0000 C   0  0  0  0  0  0  0  0  0  0  0  0
    7.1840  -21.1795    0.0000 C   0  0  0  0  0  0  0  0  0  0  0  0
    6.4839  -21.5969    0.0000 C   0  0  0  0  0  0  0  0  0  0  0  0
    8.6162  -22.7988    0.0000 C   0  0  0  0  0  0  0  0  0  0  0  0
    8.6228  -23.6171    0.0000 N   0  0  0  0  0  0  0  0  0  0  0  0
    9.3336  -24.0187    0.0000 C   0  0  0  0  0  0  0  0  0  0  0  0
   10.0383  -23.6032    0.0000 C   0  0  0  0  0  0  0  0  0  0  0  0
   10.0277  -22.7818    0.0000 C   0  0  0  0  0  0  0  0  0  0  0  0
    9.3164  -22.3839    0.0000 C   0  0  0  0  0  0  0  0  0  0  0  0
  1  2  2  0
  2  3  1  0
  3  4  2  0
  4  5  1  0
  5  6  2  0
  6  1  1  0
  3  7  1  0
  7  8  2  3
  8  9  1  0
  9 10  1  0
  9 11  2  0
 10 12  1  0
 12 13  2  0
 13 14  1  0
 14 15  2  0
 15 16  1  0
 16 17  2  0
 17 12  1  0
 15 18  1  0
 18 19  1  0
 19 20  1  0
 20 21  1  0
 20 22  1  0
 21 23  1  0
 24 22  1  0
 25 23  1  0
 24 25  2  0
 25 26  1  0
 26 27  2  0
 27 28  1  0
 28 29  2  0
 29 24  1  0
 28 30  1  0
 30 31  1  0
 27 32  1  0
 32 33  1  0
  6 34  1  0
 34 35  1  0
 35 36  2  0
 36 37  1  0
 37 38  2  0
 38 39  1  0
 39 40  2  0
 40 35  1  0
 41 42  2  0
 42 43  1  0
 43 44  2  0
 44 45  1  0
 45 46  2  0
 46 41  1  0
 37 41  1  0
M  END
>  <Classification>  (1010) 
1

>  <pchembl>  (1010) 
6.12

>  <InChI_steorem>  (1010) 
InChI=1S/C38H36N4O4/c1-44-35-23-29-18-21-42(26-31(29)24-36(35)45-2)20-17-27-9-13-32(14-10-27)41-37(43)15-11-28-12-16-38(40-25-28)46-33-7-5-6-30(22-33)34-8-3-4-19-39-34/h3-16,19,22-25H,17-18,20-21,26H2,1-2H3,(H,41,43)

>  <source>  (1010) 
ChEMBL29

>  <source_id>  (1010) 
29

>  <optional_reference>  (1010) 
10.1021/acs.jmedchem.0c00337

>  <optional_origin>  (1010) 
None

>  <target>  (1010) 
MDR1

$$$$

     RDKit          2D

 47 52  0  0  0  0  0  0  0  0999 V2000
   14.4599  -15.1581    0.0000 C   0  0  0  0  0  0  0  0  0  0  0  0
   15.1609  -15.5780    0.0000 N   0  0  0  0  0  0  0  0  0  0  0  0
   15.1468  -16.3978    0.0000 C   0  0  0  0  0  0  0  0  0  0  0  0
   15.8756  -15.1759    0.0000 C   0  0  0  0  0  0  0  0  0  0  0  0
   15.8466  -16.8173    0.0000 C   0  0  0  0  0  0  0  0  0  0  0  0
   16.5827  -15.6019    0.0000 C   0  0  0  0  0  0  0  0  0  0  0  0
   16.5625  -16.4232    0.0000 C   0  0  0  0  0  0  0  0  0  0  0  0
   17.2641  -16.8469    0.0000 C   0  0  0  0  0  0  0  0  0  0  0  0
   17.9828  -16.4525    0.0000 C   0  0  0  0  0  0  0  0  0  0  0  0
   17.9954  -15.6300    0.0000 C   0  0  0  0  0  0  0  0  0  0  0  0
   17.2967  -15.2080    0.0000 C   0  0  0  0  0  0  0  0  0  0  0  0
   18.7138  -15.2319    0.0000 O   0  0  0  0  0  0  0  0  0  0  0  0
   19.4199  -15.6545    0.0000 C   0  0  0  0  0  0  0  0  0  0  0  0
   18.6843  -16.8786    0.0000 O   0  0  0  0  0  0  0  0  0  0  0  0
   18.6701  -17.6992    0.0000 C   0  0  0  0  0  0  0  0  0  0  0  0
   13.7457  -15.5553    0.0000 C   0  0  0  0  0  0  0  0  0  0  0  0
   13.0446  -15.1353    0.0000 C   0  0  0  0  0  0  0  0  0  0  0  0
   13.0631  -14.3181    0.0000 C   0  0  0  0  0  0  0  0  0  0  0  0
   12.3629  -13.8982    0.0000 C   0  0  0  0  0  0  0  0  0  0  0  0
   11.6478  -14.2954    0.0000 C   0  0  0  0  0  0  0  0  0  0  0  0
   11.6372  -15.1168    0.0000 C   0  0  0  0  0  0  0  0  0  0  0  0
   12.3380  -15.5329    0.0000 C   0  0  0  0  0  0  0  0  0  0  0  0
   10.9462  -13.8764    0.0000 N   0  0  0  0  0  0  0  0  0  0  0  0
   10.2325  -14.2745    0.0000 C   0  0  0  0  0  0  0  0  0  0  0  0
    9.5309  -13.8555    0.0000 C   0  0  0  0  0  0  0  0  0  0  0  0
   10.2204  -15.0916    0.0000 O   0  0  0  0  0  0  0  0  0  0  0  0
    8.8172  -14.2536    0.0000 C   0  0  0  0  0  0  0  0  0  0  0  0
    8.1156  -13.8346    0.0000 C   0  0  0  0  0  0  0  0  0  0  0  0
    8.1320  -13.0167    0.0000 C   0  0  0  0  0  0  0  0  0  0  0  0
    7.4312  -12.5978    0.0000 C   0  0  0  0  0  0  0  0  0  0  0  0
    6.7166  -12.9959    0.0000 C   0  0  0  0  0  0  0  0  0  0  0  0
    6.7071  -13.8173    0.0000 N   0  0  0  0  0  0  0  0  0  0  0  0
    7.4085  -14.2325    0.0000 C   0  0  0  0  0  0  0  0  0  0  0  0
    6.0144  -12.5779    0.0000 O   0  0  0  0  0  0  0  0  0  0  0  0
    5.3013  -12.9769    0.0000 C   0  0  0  0  0  0  0  0  0  0  0  0
    4.6014  -12.5548    0.0000 C   0  0  0  0  0  0  0  0  0  0  0  0
    3.8887  -12.9532    0.0000 C   0  0  0  0  0  0  0  0  0  0  0  0
    3.8773  -13.7711    0.0000 C   0  0  0  0  0  0  0  0  0  0  0  0
    4.5844  -14.1891    0.0000 C   0  0  0  0  0  0  0  0  0  0  0  0
    5.2942  -13.7884    0.0000 C   0  0  0  0  0  0  0  0  0  0  0  0
    3.1671  -14.1719    0.0000 C   0  0  0  0  0  0  0  0  0  0  0  0
    2.4641  -13.7531    0.0000 N   0  0  0  0  0  0  0  0  0  0  0  0
    1.7520  -14.1524    0.0000 C   0  0  0  0  0  0  0  0  0  0  0  0
    1.7416  -14.9704    0.0000 C   0  0  0  0  0  0  0  0  0  0  0  0
    2.4493  -15.3874    0.0000 C   0  0  0  0  0  0  0  0  0  0  0  0
    3.1585  -14.9857    0.0000 C   0  0  0  0  0  0  0  0  0  0  0  0
    4.6149  -11.7377    0.0000 C   0  0  0  0  0  0  0  0  0  0  0  0
  1  2  1  0
  2  3  1  0
  2  4  1  0
  3  5  1  0
  6  4  1  0
  7  5  1  0
  6  7  2  0
  7  8  1  0
  8  9  2  0
  9 10  1  0
 10 11  2  0
 11  6  1  0
 10 12  1  0
 12 13  1  0
  9 14  1  0
 14 15  1  0
  1 16  1  0
 16 17  1  0
 17 18  2  0
 18 19  1  0
 19 20  2  0
 20 21  1  0
 21 22  2  0
 22 17  1  0
 20 23  1  0
 23 24  1  0
 24 25  1  0
 24 26  2  0
 25 27  2  3
 27 28  1  0
 28 29  2  0
 29 30  1  0
 30 31  2  0
 31 32  1  0
 32 33  2  0
 33 28  1  0
 31 34  1  0
 34 35  1  0
 35 36  2  0
 36 37  1  0
 37 38  2  0
 38 39  1  0
 39 40  2  0
 40 35  1  0
 41 42  2  0
 42 43  1  0
 43 44  2  0
 44 45  1  0
 45 46  2  0
 46 41  1  0
 38 41  1  0
 36 47  1  0
M  END
>  <Classification>  (1011) 
1

>  <pchembl>  (1011) 
6.13

>  <InChI_steorem>  (1011) 
InChI=1S/C39H38N4O4/c1-27-22-31(34-6-4-5-19-40-34)11-14-35(27)47-39-16-10-29(25-41-39)9-15-38(44)42-33-12-7-28(8-13-33)17-20-43-21-18-30-23-36(45-2)37(46-3)24-32(30)26-43/h4-16,19,22-25H,17-18,20-21,26H2,1-3H3,(H,42,44)

>  <source>  (1011) 
ChEMBL29

>  <source_id>  (1011) 
29

>  <optional_reference>  (1011) 
10.1021/acs.jmedchem.0c00337

>  <optional_origin>  (1011) 
None

>  <target>  (1011) 
MDR1

$$$$

     RDKit          2D

 47 52  0  0  0  0  0  0  0  0999 V2000
   14.5259  -11.0680    0.0000 C   0  0  0  0  0  0  0  0  0  0  0  0
   15.2270  -11.4880    0.0000 N   0  0  0  0  0  0  0  0  0  0  0  0
   15.2128  -12.3077    0.0000 C   0  0  0  0  0  0  0  0  0  0  0  0
   15.9417  -11.0859    0.0000 C   0  0  0  0  0  0  0  0  0  0  0  0
   15.9126  -12.7272    0.0000 C   0  0  0  0  0  0  0  0  0  0  0  0
   16.6487  -11.5119    0.0000 C   0  0  0  0  0  0  0  0  0  0  0  0
   16.6285  -12.3331    0.0000 C   0  0  0  0  0  0  0  0  0  0  0  0
   17.3302  -12.7568    0.0000 C   0  0  0  0  0  0  0  0  0  0  0  0
   18.0488  -12.3624    0.0000 C   0  0  0  0  0  0  0  0  0  0  0  0
   18.0615  -11.5399    0.0000 C   0  0  0  0  0  0  0  0  0  0  0  0
   17.3628  -11.1179    0.0000 C   0  0  0  0  0  0  0  0  0  0  0  0
   18.7799  -11.1418    0.0000 O   0  0  0  0  0  0  0  0  0  0  0  0
   19.4859  -11.5644    0.0000 C   0  0  0  0  0  0  0  0  0  0  0  0
   18.7503  -12.7885    0.0000 O   0  0  0  0  0  0  0  0  0  0  0  0
   18.7362  -13.6091    0.0000 C   0  0  0  0  0  0  0  0  0  0  0  0
   13.8117  -11.4652    0.0000 C   0  0  0  0  0  0  0  0  0  0  0  0
   13.1107  -11.0453    0.0000 C   0  0  0  0  0  0  0  0  0  0  0  0
   13.1292  -10.2280    0.0000 C   0  0  0  0  0  0  0  0  0  0  0  0
   12.4290   -9.8081    0.0000 C   0  0  0  0  0  0  0  0  0  0  0  0
   11.7138  -10.2053    0.0000 C   0  0  0  0  0  0  0  0  0  0  0  0
   11.7032  -11.0267    0.0000 C   0  0  0  0  0  0  0  0  0  0  0  0
   12.4041  -11.4428    0.0000 C   0  0  0  0  0  0  0  0  0  0  0  0
   11.0122   -9.7863    0.0000 N   0  0  0  0  0  0  0  0  0  0  0  0
   10.2985  -10.1844    0.0000 C   0  0  0  0  0  0  0  0  0  0  0  0
    9.5969   -9.7655    0.0000 C   0  0  0  0  0  0  0  0  0  0  0  0
   10.2865  -11.0016    0.0000 O   0  0  0  0  0  0  0  0  0  0  0  0
    8.8833  -10.1636    0.0000 C   0  0  0  0  0  0  0  0  0  0  0  0
    8.1817   -9.7446    0.0000 C   0  0  0  0  0  0  0  0  0  0  0  0
    8.1980   -8.9266    0.0000 C   0  0  0  0  0  0  0  0  0  0  0  0
    7.4972   -8.5077    0.0000 C   0  0  0  0  0  0  0  0  0  0  0  0
    6.7826   -8.9059    0.0000 C   0  0  0  0  0  0  0  0  0  0  0  0
    6.7731   -9.7272    0.0000 N   0  0  0  0  0  0  0  0  0  0  0  0
    7.4745  -10.1424    0.0000 C   0  0  0  0  0  0  0  0  0  0  0  0
    6.0804   -8.4878    0.0000 O   0  0  0  0  0  0  0  0  0  0  0  0
    5.3673   -8.8868    0.0000 C   0  0  0  0  0  0  0  0  0  0  0  0
    4.6674   -8.4647    0.0000 C   0  0  0  0  0  0  0  0  0  0  0  0
    3.9548   -8.8631    0.0000 C   0  0  0  0  0  0  0  0  0  0  0  0
    3.9433   -9.6811    0.0000 C   0  0  0  0  0  0  0  0  0  0  0  0
    4.6505  -10.0990    0.0000 C   0  0  0  0  0  0  0  0  0  0  0  0
    5.3602   -9.6983    0.0000 C   0  0  0  0  0  0  0  0  0  0  0  0
    3.2331  -10.0818    0.0000 C   0  0  0  0  0  0  0  0  0  0  0  0
    2.5301   -9.6630    0.0000 N   0  0  0  0  0  0  0  0  0  0  0  0
    1.8180  -10.0623    0.0000 C   0  0  0  0  0  0  0  0  0  0  0  0
    1.8077  -10.8803    0.0000 C   0  0  0  0  0  0  0  0  0  0  0  0
    2.5153  -11.2973    0.0000 C   0  0  0  0  0  0  0  0  0  0  0  0
    3.2246  -10.8956    0.0000 C   0  0  0  0  0  0  0  0  0  0  0  0
    4.6809   -7.6476    0.0000 I   0  0  0  0  0  0  0  0  0  0  0  0
  1  2  1  0
  2  3  1  0
  2  4  1  0
  3  5  1  0
  6  4  1  0
  7  5  1  0
  6  7  2  0
  7  8  1  0
  8  9  2  0
  9 10  1  0
 10 11  2  0
 11  6  1  0
 10 12  1  0
 12 13  1  0
  9 14  1  0
 14 15  1  0
  1 16  1  0
 16 17  1  0
 17 18  2  0
 18 19  1  0
 19 20  2  0
 20 21  1  0
 21 22  2  0
 22 17  1  0
 20 23  1  0
 23 24  1  0
 24 25  1  0
 24 26  2  0
 25 27  2  3
 27 28  1  0
 28 29  2  0
 29 30  1  0
 30 31  2  0
 31 32  1  0
 32 33  2  0
 33 28  1  0
 31 34  1  0
 34 35  1  0
 35 36  2  0
 36 37  1  0
 37 38  2  0
 38 39  1  0
 39 40  2  0
 40 35  1  0
 41 42  2  0
 42 43  1  0
 43 44  2  0
 44 45  1  0
 45 46  2  0
 46 41  1  0
 38 41  1  0
 36 47  1  0
M  END
>  <Classification>  (1012) 
1

>  <pchembl>  (1012) 
6.12

>  <InChI_steorem>  (1012) 
InChI=1S/C38H35IN4O4/c1-45-35-22-28-17-20-43(25-30(28)23-36(35)46-2)19-16-26-6-11-31(12-7-26)42-37(44)14-8-27-9-15-38(41-24-27)47-34-13-10-29(21-32(34)39)33-5-3-4-18-40-33/h3-15,18,21-24H,16-17,19-20,25H2,1-2H3,(H,42,44)

>  <source>  (1012) 
ChEMBL29

>  <source_id>  (1012) 
29

>  <optional_reference>  (1012) 
10.1021/acs.jmedchem.0c00337

>  <optional_origin>  (1012) 
None

>  <target>  (1012) 
MDR1

$$$$

     RDKit          2D

 47 52  0  0  0  0  0  0  0  0999 V2000
   14.8643  -21.9804    0.0000 C   0  0  0  0  0  0  0  0  0  0  0  0
   15.5654  -22.4004    0.0000 N   0  0  0  0  0  0  0  0  0  0  0  0
   15.5512  -23.2201    0.0000 C   0  0  0  0  0  0  0  0  0  0  0  0
   16.2801  -21.9982    0.0000 C   0  0  0  0  0  0  0  0  0  0  0  0
   16.2511  -23.6396    0.0000 C   0  0  0  0  0  0  0  0  0  0  0  0
   16.9871  -22.4242    0.0000 C   0  0  0  0  0  0  0  0  0  0  0  0
   16.9670  -23.2455    0.0000 C   0  0  0  0  0  0  0  0  0  0  0  0
   17.6686  -23.6692    0.0000 C   0  0  0  0  0  0  0  0  0  0  0  0
   18.3872  -23.2748    0.0000 C   0  0  0  0  0  0  0  0  0  0  0  0
   18.3999  -22.4523    0.0000 C   0  0  0  0  0  0  0  0  0  0  0  0
   17.7012  -22.0303    0.0000 C   0  0  0  0  0  0  0  0  0  0  0  0
   19.1183  -22.0542    0.0000 O   0  0  0  0  0  0  0  0  0  0  0  0
   19.8243  -22.4768    0.0000 C   0  0  0  0  0  0  0  0  0  0  0  0
   19.0887  -23.7009    0.0000 O   0  0  0  0  0  0  0  0  0  0  0  0
   19.0746  -24.5215    0.0000 C   0  0  0  0  0  0  0  0  0  0  0  0
   14.1502  -22.3776    0.0000 C   0  0  0  0  0  0  0  0  0  0  0  0
   13.4491  -21.9577    0.0000 C   0  0  0  0  0  0  0  0  0  0  0  0
   13.4676  -21.1404    0.0000 C   0  0  0  0  0  0  0  0  0  0  0  0
   12.7674  -20.7205    0.0000 C   0  0  0  0  0  0  0  0  0  0  0  0
   12.0522  -21.1177    0.0000 C   0  0  0  0  0  0  0  0  0  0  0  0
   12.0416  -21.9391    0.0000 C   0  0  0  0  0  0  0  0  0  0  0  0
   12.7425  -22.3552    0.0000 C   0  0  0  0  0  0  0  0  0  0  0  0
   11.3506  -20.6987    0.0000 N   0  0  0  0  0  0  0  0  0  0  0  0
   10.6370  -21.0968    0.0000 C   0  0  0  0  0  0  0  0  0  0  0  0
    9.9354  -20.6778    0.0000 C   0  0  0  0  0  0  0  0  0  0  0  0
   10.6249  -21.9139    0.0000 O   0  0  0  0  0  0  0  0  0  0  0  0
    9.2217  -21.0759    0.0000 C   0  0  0  0  0  0  0  0  0  0  0  0
    8.5201  -20.6569    0.0000 C   0  0  0  0  0  0  0  0  0  0  0  0
    8.5364  -19.8390    0.0000 C   0  0  0  0  0  0  0  0  0  0  0  0
    7.8357  -19.4201    0.0000 C   0  0  0  0  0  0  0  0  0  0  0  0
    7.1210  -19.8183    0.0000 C   0  0  0  0  0  0  0  0  0  0  0  0
    7.1115  -20.6396    0.0000 N   0  0  0  0  0  0  0  0  0  0  0  0
    7.8129  -21.0548    0.0000 C   0  0  0  0  0  0  0  0  0  0  0  0
    6.4189  -19.4002    0.0000 O   0  0  0  0  0  0  0  0  0  0  0  0
    5.7057  -19.7992    0.0000 C   0  0  0  0  0  0  0  0  0  0  0  0
    5.0058  -19.3771    0.0000 C   0  0  0  0  0  0  0  0  0  0  0  0
    4.2932  -19.7755    0.0000 C   0  0  0  0  0  0  0  0  0  0  0  0
    4.2818  -20.5935    0.0000 C   0  0  0  0  0  0  0  0  0  0  0  0
    4.9889  -21.0114    0.0000 C   0  0  0  0  0  0  0  0  0  0  0  0
    5.6987  -20.6107    0.0000 C   0  0  0  0  0  0  0  0  0  0  0  0
    3.5715  -20.9942    0.0000 C   0  0  0  0  0  0  0  0  0  0  0  0
    2.8685  -20.5754    0.0000 N   0  0  0  0  0  0  0  0  0  0  0  0
    2.1564  -20.9747    0.0000 C   0  0  0  0  0  0  0  0  0  0  0  0
    2.1461  -21.7927    0.0000 C   0  0  0  0  0  0  0  0  0  0  0  0
    2.8538  -22.2097    0.0000 C   0  0  0  0  0  0  0  0  0  0  0  0
    3.5630  -21.8080    0.0000 C   0  0  0  0  0  0  0  0  0  0  0  0
    3.5913  -19.3571    0.0000 Cl  0  0  0  0  0  0  0  0  0  0  0  0
  1  2  1  0
  2  3  1  0
  2  4  1  0
  3  5  1  0
  6  4  1  0
  7  5  1  0
  6  7  2  0
  7  8  1  0
  8  9  2  0
  9 10  1  0
 10 11  2  0
 11  6  1  0
 10 12  1  0
 12 13  1  0
  9 14  1  0
 14 15  1  0
  1 16  1  0
 16 17  1  0
 17 18  2  0
 18 19  1  0
 19 20  2  0
 20 21  1  0
 21 22  2  0
 22 17  1  0
 20 23  1  0
 23 24  1  0
 24 25  1  0
 24 26  2  0
 25 27  2  3
 27 28  1  0
 28 29  2  0
 29 30  1  0
 30 31  2  0
 31 32  1  0
 32 33  2  0
 33 28  1  0
 31 34  1  0
 34 35  1  0
 35 36  2  0
 36 37  1  0
 37 38  2  0
 38 39  1  0
 39 40  2  0
 40 35  1  0
 41 42  2  0
 42 43  1  0
 43 44  2  0
 44 45  1  0
 45 46  2  0
 46 41  1  0
 38 41  1  0
 37 47  1  0
M  END
>  <Classification>  (1013) 
1

>  <pchembl>  (1013) 
6.25

>  <InChI_steorem>  (1013) 
InChI=1S/C38H35ClN4O4/c1-45-35-21-28-17-20-43(25-29(28)22-36(35)46-2)19-16-26-6-10-30(11-7-26)42-37(44)14-8-27-9-15-38(41-24-27)47-31-12-13-32(33(39)23-31)34-5-3-4-18-40-34/h3-15,18,21-24H,16-17,19-20,25H2,1-2H3,(H,42,44)

>  <source>  (1013) 
ChEMBL29

>  <source_id>  (1013) 
29

>  <optional_reference>  (1013) 
10.1021/acs.jmedchem.0c00337

>  <optional_origin>  (1013) 
None

>  <target>  (1013) 
MDR1

$$$$

     RDKit          2D

 47 52  0  0  0  0  0  0  0  0999 V2000
   15.0831  -28.6913    0.0000 C   0  0  0  0  0  0  0  0  0  0  0  0
   15.7841  -29.1112    0.0000 N   0  0  0  0  0  0  0  0  0  0  0  0
   15.7700  -29.9310    0.0000 C   0  0  0  0  0  0  0  0  0  0  0  0
   16.4988  -28.7091    0.0000 C   0  0  0  0  0  0  0  0  0  0  0  0
   16.4698  -30.3505    0.0000 C   0  0  0  0  0  0  0  0  0  0  0  0
   17.2059  -29.1351    0.0000 C   0  0  0  0  0  0  0  0  0  0  0  0
   17.1857  -29.9564    0.0000 C   0  0  0  0  0  0  0  0  0  0  0  0
   17.8874  -30.3801    0.0000 C   0  0  0  0  0  0  0  0  0  0  0  0
   18.6060  -29.9856    0.0000 C   0  0  0  0  0  0  0  0  0  0  0  0
   18.6186  -29.1632    0.0000 C   0  0  0  0  0  0  0  0  0  0  0  0
   17.9200  -28.7412    0.0000 C   0  0  0  0  0  0  0  0  0  0  0  0
   19.3370  -28.7651    0.0000 O   0  0  0  0  0  0  0  0  0  0  0  0
   20.0431  -29.1876    0.0000 C   0  0  0  0  0  0  0  0  0  0  0  0
   19.3075  -30.4118    0.0000 O   0  0  0  0  0  0  0  0  0  0  0  0
   19.2933  -31.2324    0.0000 C   0  0  0  0  0  0  0  0  0  0  0  0
   14.3689  -29.0885    0.0000 C   0  0  0  0  0  0  0  0  0  0  0  0
   13.6679  -28.6685    0.0000 C   0  0  0  0  0  0  0  0  0  0  0  0
   13.6864  -27.8513    0.0000 C   0  0  0  0  0  0  0  0  0  0  0  0
   12.9861  -27.4314    0.0000 C   0  0  0  0  0  0  0  0  0  0  0  0
   12.2710  -27.8286    0.0000 C   0  0  0  0  0  0  0  0  0  0  0  0
   12.2604  -28.6500    0.0000 C   0  0  0  0  0  0  0  0  0  0  0  0
   12.9612  -29.0661    0.0000 C   0  0  0  0  0  0  0  0  0  0  0  0
   11.5694  -27.4096    0.0000 N   0  0  0  0  0  0  0  0  0  0  0  0
   10.8557  -27.8077    0.0000 C   0  0  0  0  0  0  0  0  0  0  0  0
   10.1541  -27.3887    0.0000 C   0  0  0  0  0  0  0  0  0  0  0  0
   10.8437  -28.6248    0.0000 O   0  0  0  0  0  0  0  0  0  0  0  0
    9.4405  -27.7868    0.0000 C   0  0  0  0  0  0  0  0  0  0  0  0
    8.7389  -27.3678    0.0000 C   0  0  0  0  0  0  0  0  0  0  0  0
    8.7552  -26.5499    0.0000 C   0  0  0  0  0  0  0  0  0  0  0  0
    8.0544  -26.1310    0.0000 C   0  0  0  0  0  0  0  0  0  0  0  0
    7.3398  -26.5291    0.0000 C   0  0  0  0  0  0  0  0  0  0  0  0
    7.3303  -27.3505    0.0000 N   0  0  0  0  0  0  0  0  0  0  0  0
    8.0317  -27.7657    0.0000 C   0  0  0  0  0  0  0  0  0  0  0  0
    6.6376  -26.1111    0.0000 O   0  0  0  0  0  0  0  0  0  0  0  0
    5.9245  -26.5101    0.0000 C   0  0  0  0  0  0  0  0  0  0  0  0
    5.2246  -26.0880    0.0000 C   0  0  0  0  0  0  0  0  0  0  0  0
    4.5120  -26.4863    0.0000 C   0  0  0  0  0  0  0  0  0  0  0  0
    4.5005  -27.3043    0.0000 C   0  0  0  0  0  0  0  0  0  0  0  0
    5.2077  -27.7223    0.0000 C   0  0  0  0  0  0  0  0  0  0  0  0
    5.9174  -27.3215    0.0000 C   0  0  0  0  0  0  0  0  0  0  0  0
    3.7903  -27.7051    0.0000 C   0  0  0  0  0  0  0  0  0  0  0  0
    3.0873  -27.2863    0.0000 N   0  0  0  0  0  0  0  0  0  0  0  0
    2.3752  -27.6856    0.0000 C   0  0  0  0  0  0  0  0  0  0  0  0
    2.3648  -28.5036    0.0000 C   0  0  0  0  0  0  0  0  0  0  0  0
    3.0725  -28.9206    0.0000 C   0  0  0  0  0  0  0  0  0  0  0  0
    3.7817  -28.5189    0.0000 C   0  0  0  0  0  0  0  0  0  0  0  0
    3.8100  -26.0679    0.0000 O   0  0  0  0  0  0  0  0  0  0  0  0
  1  2  1  0
  2  3  1  0
  2  4  1  0
  3  5  1  0
  6  4  1  0
  7  5  1  0
  6  7  2  0
  7  8  1  0
  8  9  2  0
  9 10  1  0
 10 11  2  0
 11  6  1  0
 10 12  1  0
 12 13  1  0
  9 14  1  0
 14 15  1  0
  1 16  1  0
 16 17  1  0
 17 18  2  0
 18 19  1  0
 19 20  2  0
 20 21  1  0
 21 22  2  0
 22 17  1  0
 20 23  1  0
 23 24  1  0
 24 25  1  0
 24 26  2  0
 25 27  2  3
 27 28  1  0
 28 29  2  0
 29 30  1  0
 30 31  2  0
 31 32  1  0
 32 33  2  0
 33 28  1  0
 31 34  1  0
 34 35  1  0
 35 36  2  0
 36 37  1  0
 37 38  2  0
 38 39  1  0
 39 40  2  0
 40 35  1  0
 41 42  2  0
 42 43  1  0
 43 44  2  0
 44 45  1  0
 45 46  2  0
 46 41  1  0
 38 41  1  0
 37 47  1  0
M  END
>  <Classification>  (1014) 
1

>  <pchembl>  (1014) 
6.09

>  <InChI_steorem>  (1014) 
InChI=1S/C38H36N4O5/c1-45-35-21-28-17-20-42(25-29(28)22-36(35)46-2)19-16-26-6-10-30(11-7-26)41-37(44)14-8-27-9-15-38(40-24-27)47-31-12-13-32(34(43)23-31)33-5-3-4-18-39-33/h3-15,18,21-24,43H,16-17,19-20,25H2,1-2H3,(H,41,44)

>  <source>  (1014) 
ChEMBL29

>  <source_id>  (1014) 
29

>  <optional_reference>  (1014) 
10.1021/acs.jmedchem.0c00337

>  <optional_origin>  (1014) 
None

>  <target>  (1014) 
MDR1

$$$$

     RDKit          2D

 47 52  0  0  0  0  0  0  0  0999 V2000
   15.8590  -26.1902    0.0000 C   0  0  0  0  0  0  0  0  0  0  0  0
   16.5600  -26.6101    0.0000 N   0  0  0  0  0  0  0  0  0  0  0  0
   16.5459  -27.4299    0.0000 C   0  0  0  0  0  0  0  0  0  0  0  0
   17.2748  -26.2080    0.0000 C   0  0  0  0  0  0  0  0  0  0  0  0
   17.2457  -27.8494    0.0000 C   0  0  0  0  0  0  0  0  0  0  0  0
   17.9818  -26.6340    0.0000 C   0  0  0  0  0  0  0  0  0  0  0  0
   17.9616  -27.4553    0.0000 C   0  0  0  0  0  0  0  0  0  0  0  0
   18.6633  -27.8790    0.0000 C   0  0  0  0  0  0  0  0  0  0  0  0
   19.3819  -27.4845    0.0000 C   0  0  0  0  0  0  0  0  0  0  0  0
   19.3946  -26.6621    0.0000 C   0  0  0  0  0  0  0  0  0  0  0  0
   18.6959  -26.2401    0.0000 C   0  0  0  0  0  0  0  0  0  0  0  0
   20.1129  -26.2640    0.0000 O   0  0  0  0  0  0  0  0  0  0  0  0
   20.8190  -26.6865    0.0000 C   0  0  0  0  0  0  0  0  0  0  0  0
   20.0834  -27.9107    0.0000 O   0  0  0  0  0  0  0  0  0  0  0  0
   20.0692  -28.7313    0.0000 C   0  0  0  0  0  0  0  0  0  0  0  0
   15.1448  -26.5874    0.0000 C   0  0  0  0  0  0  0  0  0  0  0  0
   14.4438  -26.1674    0.0000 C   0  0  0  0  0  0  0  0  0  0  0  0
   14.4623  -25.3502    0.0000 C   0  0  0  0  0  0  0  0  0  0  0  0
   13.7621  -24.9303    0.0000 C   0  0  0  0  0  0  0  0  0  0  0  0
   13.0469  -25.3275    0.0000 C   0  0  0  0  0  0  0  0  0  0  0  0
   13.0363  -26.1489    0.0000 C   0  0  0  0  0  0  0  0  0  0  0  0
   13.7372  -26.5650    0.0000 C   0  0  0  0  0  0  0  0  0  0  0  0
   12.3453  -24.9085    0.0000 N   0  0  0  0  0  0  0  0  0  0  0  0
   11.6316  -25.3066    0.0000 C   0  0  0  0  0  0  0  0  0  0  0  0
   10.9300  -24.8876    0.0000 C   0  0  0  0  0  0  0  0  0  0  0  0
   11.6196  -26.1237    0.0000 O   0  0  0  0  0  0  0  0  0  0  0  0
   10.2164  -25.2857    0.0000 C   0  0  0  0  0  0  0  0  0  0  0  0
    9.5148  -24.8667    0.0000 C   0  0  0  0  0  0  0  0  0  0  0  0
    9.5311  -24.0488    0.0000 C   0  0  0  0  0  0  0  0  0  0  0  0
    8.8303  -23.6299    0.0000 C   0  0  0  0  0  0  0  0  0  0  0  0
    8.1157  -24.0280    0.0000 C   0  0  0  0  0  0  0  0  0  0  0  0
    8.1062  -24.8494    0.0000 N   0  0  0  0  0  0  0  0  0  0  0  0
    8.8076  -25.2646    0.0000 C   0  0  0  0  0  0  0  0  0  0  0  0
    7.4135  -23.6100    0.0000 O   0  0  0  0  0  0  0  0  0  0  0  0
    6.7004  -24.0090    0.0000 C   0  0  0  0  0  0  0  0  0  0  0  0
    6.0005  -23.5869    0.0000 C   0  0  0  0  0  0  0  0  0  0  0  0
    5.2879  -23.9852    0.0000 C   0  0  0  0  0  0  0  0  0  0  0  0
    5.2764  -24.8032    0.0000 C   0  0  0  0  0  0  0  0  0  0  0  0
    5.9836  -25.2212    0.0000 C   0  0  0  0  0  0  0  0  0  0  0  0
    6.6933  -24.8204    0.0000 C   0  0  0  0  0  0  0  0  0  0  0  0
    4.5662  -25.2040    0.0000 C   0  0  0  0  0  0  0  0  0  0  0  0
    3.8632  -24.7852    0.0000 N   0  0  0  0  0  0  0  0  0  0  0  0
    3.1511  -25.1845    0.0000 C   0  0  0  0  0  0  0  0  0  0  0  0
    3.1408  -26.0025    0.0000 C   0  0  0  0  0  0  0  0  0  0  0  0
    3.8484  -26.4195    0.0000 C   0  0  0  0  0  0  0  0  0  0  0  0
    4.5577  -26.0178    0.0000 C   0  0  0  0  0  0  0  0  0  0  0  0
    4.5859  -23.5668    0.0000 C   0  0  0  0  0  0  0  0  0  0  0  0
  1  2  1  0
  2  3  1  0
  2  4  1  0
  3  5  1  0
  6  4  1  0
  7  5  1  0
  6  7  2  0
  7  8  1  0
  8  9  2  0
  9 10  1  0
 10 11  2  0
 11  6  1  0
 10 12  1  0
 12 13  1  0
  9 14  1  0
 14 15  1  0
  1 16  1  0
 16 17  1  0
 17 18  2  0
 18 19  1  0
 19 20  2  0
 20 21  1  0
 21 22  2  0
 22 17  1  0
 20 23  1  0
 23 24  1  0
 24 25  1  0
 24 26  2  0
 25 27  2  3
 27 28  1  0
 28 29  2  0
 29 30  1  0
 30 31  2  0
 31 32  1  0
 32 33  2  0
 33 28  1  0
 31 34  1  0
 34 35  1  0
 35 36  2  0
 36 37  1  0
 37 38  2  0
 38 39  1  0
 39 40  2  0
 40 35  1  0
 41 42  2  0
 42 43  1  0
 43 44  2  0
 44 45  1  0
 45 46  2  0
 46 41  1  0
 38 41  1  0
 37 47  1  0
M  END
>  <Classification>  (1015) 
1

>  <pchembl>  (1015) 
6.31

>  <InChI_steorem>  (1015) 
InChI=1S/C39H38N4O4/c1-27-22-33(13-14-34(27)35-6-4-5-19-40-35)47-39-16-10-29(25-41-39)9-15-38(44)42-32-11-7-28(8-12-32)17-20-43-21-18-30-23-36(45-2)37(46-3)24-31(30)26-43/h4-16,19,22-25H,17-18,20-21,26H2,1-3H3,(H,42,44)

>  <source>  (1015) 
ChEMBL29

>  <source_id>  (1015) 
29

>  <optional_reference>  (1015) 
10.1021/acs.jmedchem.0c00337

>  <optional_origin>  (1015) 
None

>  <target>  (1015) 
MDR1

$$$$

     RDKit          2D

 47 52  0  0  0  0  0  0  0  0999 V2000
   34.4026  -11.4354    0.0000 C   0  0  0  0  0  0  0  0  0  0  0  0
   35.1037  -11.8553    0.0000 N   0  0  0  0  0  0  0  0  0  0  0  0
   35.0895  -12.6750    0.0000 C   0  0  0  0  0  0  0  0  0  0  0  0
   35.8184  -11.4532    0.0000 C   0  0  0  0  0  0  0  0  0  0  0  0
   35.7894  -13.0945    0.0000 C   0  0  0  0  0  0  0  0  0  0  0  0
   36.5254  -11.8792    0.0000 C   0  0  0  0  0  0  0  0  0  0  0  0
   36.5053  -12.7004    0.0000 C   0  0  0  0  0  0  0  0  0  0  0  0
   37.2069  -13.1241    0.0000 C   0  0  0  0  0  0  0  0  0  0  0  0
   37.9255  -12.7297    0.0000 C   0  0  0  0  0  0  0  0  0  0  0  0
   37.9382  -11.9072    0.0000 C   0  0  0  0  0  0  0  0  0  0  0  0
   37.2395  -11.4852    0.0000 C   0  0  0  0  0  0  0  0  0  0  0  0
   38.6566  -11.5091    0.0000 O   0  0  0  0  0  0  0  0  0  0  0  0
   39.3626  -11.9317    0.0000 C   0  0  0  0  0  0  0  0  0  0  0  0
   38.6270  -13.1558    0.0000 O   0  0  0  0  0  0  0  0  0  0  0  0
   38.6129  -13.9765    0.0000 C   0  0  0  0  0  0  0  0  0  0  0  0
   33.6885  -11.8325    0.0000 C   0  0  0  0  0  0  0  0  0  0  0  0
   32.9874  -11.4126    0.0000 C   0  0  0  0  0  0  0  0  0  0  0  0
   33.0059  -10.5953    0.0000 C   0  0  0  0  0  0  0  0  0  0  0  0
   32.3057  -10.1755    0.0000 C   0  0  0  0  0  0  0  0  0  0  0  0
   31.5905  -10.5727    0.0000 C   0  0  0  0  0  0  0  0  0  0  0  0
   31.5799  -11.3940    0.0000 C   0  0  0  0  0  0  0  0  0  0  0  0
   32.2808  -11.8102    0.0000 C   0  0  0  0  0  0  0  0  0  0  0  0
   30.8889  -10.1537    0.0000 N   0  0  0  0  0  0  0  0  0  0  0  0
   30.1753  -10.5518    0.0000 C   0  0  0  0  0  0  0  0  0  0  0  0
   29.4737  -10.1328    0.0000 C   0  0  0  0  0  0  0  0  0  0  0  0
   30.1632  -11.3689    0.0000 O   0  0  0  0  0  0  0  0  0  0  0  0
   28.7600  -10.5309    0.0000 C   0  0  0  0  0  0  0  0  0  0  0  0
   28.0584  -10.1119    0.0000 C   0  0  0  0  0  0  0  0  0  0  0  0
   28.0747   -9.2939    0.0000 C   0  0  0  0  0  0  0  0  0  0  0  0
   27.3740   -8.8750    0.0000 C   0  0  0  0  0  0  0  0  0  0  0  0
   26.6593   -9.2732    0.0000 C   0  0  0  0  0  0  0  0  0  0  0  0
   26.6498  -10.0946    0.0000 N   0  0  0  0  0  0  0  0  0  0  0  0
   27.3512  -10.5098    0.0000 C   0  0  0  0  0  0  0  0  0  0  0  0
   25.9572   -8.8551    0.0000 O   0  0  0  0  0  0  0  0  0  0  0  0
   25.2440   -9.2542    0.0000 C   0  0  0  0  0  0  0  0  0  0  0  0
   24.5441   -8.8320    0.0000 C   0  0  0  0  0  0  0  0  0  0  0  0
   23.8315   -9.2304    0.0000 C   0  0  0  0  0  0  0  0  0  0  0  0
   23.8201  -10.0484    0.0000 C   0  0  0  0  0  0  0  0  0  0  0  0
   24.5272  -10.4664    0.0000 C   0  0  0  0  0  0  0  0  0  0  0  0
   25.2370  -10.0656    0.0000 C   0  0  0  0  0  0  0  0  0  0  0  0
   23.1098  -10.4492    0.0000 C   0  0  0  0  0  0  0  0  0  0  0  0
   22.4068  -10.0303    0.0000 N   0  0  0  0  0  0  0  0  0  0  0  0
   21.6947  -10.4296    0.0000 C   0  0  0  0  0  0  0  0  0  0  0  0
   21.6844  -11.2476    0.0000 C   0  0  0  0  0  0  0  0  0  0  0  0
   22.3921  -11.6647    0.0000 C   0  0  0  0  0  0  0  0  0  0  0  0
   23.1013  -11.2630    0.0000 C   0  0  0  0  0  0  0  0  0  0  0  0
   24.5576   -8.0149    0.0000 Br  0  0  0  0  0  0  0  0  0  0  0  0
  1  2  1  0
  2  3  1  0
  2  4  1  0
  3  5  1  0
  6  4  1  0
  7  5  1  0
  6  7  2  0
  7  8  1  0
  8  9  2  0
  9 10  1  0
 10 11  2  0
 11  6  1  0
 10 12  1  0
 12 13  1  0
  9 14  1  0
 14 15  1  0
  1 16  1  0
 16 17  1  0
 17 18  2  0
 18 19  1  0
 19 20  2  0
 20 21  1  0
 21 22  2  0
 22 17  1  0
 20 23  1  0
 23 24  1  0
 24 25  1  0
 24 26  2  0
 25 27  2  3
 27 28  1  0
 28 29  2  0
 29 30  1  0
 30 31  2  0
 31 32  1  0
 32 33  2  0
 33 28  1  0
 31 34  1  0
 34 35  1  0
 35 36  2  0
 36 37  1  0
 37 38  2  0
 38 39  1  0
 39 40  2  0
 40 35  1  0
 41 42  2  0
 42 43  1  0
 43 44  2  0
 44 45  1  0
 45 46  2  0
 46 41  1  0
 38 41  1  0
 36 47  1  0
M  END
>  <Classification>  (1016) 
1

>  <pchembl>  (1016) 
6.16

>  <InChI_steorem>  (1016) 
InChI=1S/C38H35BrN4O4/c1-45-35-22-28-17-20-43(25-30(28)23-36(35)46-2)19-16-26-6-11-31(12-7-26)42-37(44)14-8-27-9-15-38(41-24-27)47-34-13-10-29(21-32(34)39)33-5-3-4-18-40-33/h3-15,18,21-24H,16-17,19-20,25H2,1-2H3,(H,42,44)

>  <source>  (1016) 
ChEMBL29

>  <source_id>  (1016) 
29

>  <optional_reference>  (1016) 
10.1021/acs.jmedchem.0c00337

>  <optional_origin>  (1016) 
None

>  <target>  (1016) 
MDR1

$$$$

     RDKit          2D

 47 52  0  0  0  0  0  0  0  0999 V2000
    3.7750  -10.9495    0.0000 C   0  0  0  0  0  0  0  0  0  0  0  0
    3.7739  -11.7690    0.0000 C   0  0  0  0  0  0  0  0  0  0  0  0
    4.4819  -12.1780    0.0000 C   0  0  0  0  0  0  0  0  0  0  0  0
    4.4801  -10.5406    0.0000 C   0  0  0  0  0  0  0  0  0  0  0  0
    5.1887  -10.9459    0.0000 C   0  0  0  0  0  0  0  0  0  0  0  0
    5.1921  -11.7665    0.0000 C   0  0  0  0  0  0  0  0  0  0  0  0
    5.9005  -12.1717    0.0000 C   0  0  0  0  0  0  0  0  0  0  0  0
    6.6102  -11.7607    0.0000 N   0  0  0  0  0  0  0  0  0  0  0  0
    6.6068  -10.9401    0.0000 C   0  0  0  0  0  0  0  0  0  0  0  0
    5.8938  -10.5304    0.0000 C   0  0  0  0  0  0  0  0  0  0  0  0
    7.3190  -12.1674    0.0000 C   0  0  0  0  0  0  0  0  0  0  0  0
    8.0256  -11.7569    0.0000 C   0  0  0  0  0  0  0  0  0  0  0  0
    8.7344  -12.1636    0.0000 C   0  0  0  0  0  0  0  0  0  0  0  0
    8.7327  -12.9812    0.0000 C   0  0  0  0  0  0  0  0  0  0  0  0
    9.4407  -13.3878    0.0000 C   0  0  0  0  0  0  0  0  0  0  0  0
   10.1482  -12.9772    0.0000 C   0  0  0  0  0  0  0  0  0  0  0  0
   10.1434  -12.1558    0.0000 C   0  0  0  0  0  0  0  0  0  0  0  0
    9.4348  -11.7529    0.0000 C   0  0  0  0  0  0  0  0  0  0  0  0
   10.8576  -13.3830    0.0000 N   0  0  0  0  0  0  0  0  0  0  0  0
   11.5636  -12.9715    0.0000 C   0  0  0  0  0  0  0  0  0  0  0  0
   12.2730  -13.3772    0.0000 C   0  0  0  0  0  0  0  0  0  0  0  0
   11.5603  -12.1543    0.0000 O   0  0  0  0  0  0  0  0  0  0  0  0
   12.9791  -12.9658    0.0000 C   0  0  0  0  0  0  0  0  0  0  0  0
   13.6884  -13.3715    0.0000 C   0  0  0  0  0  0  0  0  0  0  0  0
   13.6864  -14.1864    0.0000 C   0  0  0  0  0  0  0  0  0  0  0  0
   14.3950  -14.5920    0.0000 C   0  0  0  0  0  0  0  0  0  0  0  0
   15.1020  -14.1805    0.0000 C   0  0  0  0  0  0  0  0  0  0  0  0
   15.0960  -13.3591    0.0000 C   0  0  0  0  0  0  0  0  0  0  0  0
   14.3870  -12.9572    0.0000 C   0  0  0  0  0  0  0  0  0  0  0  0
   14.3981  -15.4050    0.0000 C   0  0  0  0  0  0  0  0  0  0  0  0
   13.6902  -15.8155    0.0000 N   0  0  0  0  0  0  0  0  0  0  0  0
   13.6928  -16.6320    0.0000 C   0  0  0  0  0  0  0  0  0  0  0  0
   14.4025  -17.0388    0.0000 C   0  0  0  0  0  0  0  0  0  0  0  0
   15.1111  -16.6233    0.0000 C   0  0  0  0  0  0  0  0  0  0  0  0
   15.1050  -15.8083    0.0000 C   0  0  0  0  0  0  0  0  0  0  0  0
   14.3789  -12.1400    0.0000 O   0  0  0  0  0  0  0  0  0  0  0  0
   13.6672  -11.7384    0.0000 C   0  0  0  0  0  0  0  0  0  0  0  0
   13.6639  -10.9207    0.0000 N   0  0  0  0  0  0  0  0  0  0  0  0
   12.9530  -10.5191    0.0000 C   0  0  0  0  0  0  0  0  0  0  0  0
   12.2484  -10.9347    0.0000 C   0  0  0  0  0  0  0  0  0  0  0  0
   12.2591  -11.7561    0.0000 C   0  0  0  0  0  0  0  0  0  0  0  0
   12.9705  -12.1539    0.0000 C   0  0  0  0  0  0  0  0  0  0  0  0
   15.8006  -12.9452    0.0000 C   0  0  0  0  0  0  0  0  0  0  0  0
    3.0672  -10.5411    0.0000 O   0  0  0  0  0  0  0  0  0  0  0  0
    3.0670   -9.7239    0.0000 C   0  0  0  0  0  0  0  0  0  0  0  0
    3.0658  -12.1771    0.0000 O   0  0  0  0  0  0  0  0  0  0  0  0
    2.3584  -11.7679    0.0000 C   0  0  0  0  0  0  0  0  0  0  0  0
  1  2  2  0
  2  3  1  0
  3  6  2  0
  5  4  2  0
  4  1  1  0
  5  6  1  0
  5 10  1  0
  6  7  1  0
  7  8  1  0
  8  9  1  0
  9 10  1  0
  8 11  1  0
 11 12  1  0
 12 13  1  0
 13 14  2  0
 14 15  1  0
 15 16  2  0
 16 17  1  0
 17 18  2  0
 18 13  1  0
 16 19  1  0
 19 20  1  0
 20 21  1  0
 20 22  2  0
 21 23  2  3
 23 24  1  0
 24 25  2  0
 25 26  1  0
 26 27  2  0
 27 28  1  0
 28 29  2  0
 29 24  1  0
 30 31  2  0
 31 32  1  0
 32 33  2  0
 33 34  1  0
 34 35  2  0
 35 30  1  0
 26 30  1  0
 29 36  1  0
 36 37  1  0
 37 38  2  0
 38 39  1  0
 39 40  2  0
 40 41  1  0
 41 42  2  0
 42 37  1  0
 28 43  1  0
  1 44  1  0
 44 45  1  0
  2 46  1  0
 46 47  1  0
M  END
>  <Classification>  (1017) 
1

>  <pchembl>  (1017) 
6.26

>  <InChI_steorem>  (1017) 
InChI=1S/C39H38N4O4/c1-27-22-31(34-8-4-6-18-40-34)23-30(39(27)47-38-9-5-7-19-41-38)12-15-37(44)42-33-13-10-28(11-14-33)16-20-43-21-17-29-24-35(45-2)36(46-3)25-32(29)26-43/h4-15,18-19,22-25H,16-17,20-21,26H2,1-3H3,(H,42,44)

>  <source>  (1017) 
ChEMBL29

>  <source_id>  (1017) 
29

>  <optional_reference>  (1017) 
10.1021/acs.jmedchem.0c00337

>  <optional_origin>  (1017) 
None

>  <target>  (1017) 
MDR1

$$$$

     RDKit          2D

 47 53  0  0  0  0  0  0  0  0999 V2000
   22.8781   -5.3550    0.0000 C   0  0  0  0  0  0  0  0  0  0  0  0
   22.9027   -4.5331    0.0000 C   0  0  0  0  0  0  0  0  0  0  0  0
   22.2030   -4.1045    0.0000 N   0  0  0  0  0  0  0  0  0  0  0  0
   21.4804   -4.4968    0.0000 C   0  0  0  0  0  0  0  0  0  0  0  0
   21.4619   -5.3221    0.0000 C   0  0  0  0  0  0  0  0  0  0  0  0
   22.1623   -5.7471    0.0000 C   0  0  0  0  0  0  0  0  0  0  0  0
   20.7828   -4.0711    0.0000 O   0  0  0  0  0  0  0  0  0  0  0  0
   20.0654   -4.4624    0.0000 C   0  0  0  0  0  0  0  0  0  0  0  0
   19.3711   -4.0326    0.0000 C   0  0  0  0  0  0  0  0  0  0  0  0
   18.6542   -4.4232    0.0000 C   0  0  0  0  0  0  0  0  0  0  0  0
   18.6339   -5.2410    0.0000 C   0  0  0  0  0  0  0  0  0  0  0  0
   19.3364   -5.6666    0.0000 C   0  0  0  0  0  0  0  0  0  0  0  0
   20.0505   -5.2736    0.0000 C   0  0  0  0  0  0  0  0  0  0  0  0
   17.9148   -5.6306    0.0000 C   0  0  0  0  0  0  0  0  0  0  0  0
   17.2164   -5.2041    0.0000 C   0  0  0  0  0  0  0  0  0  0  0  0
   16.5000   -5.5957    0.0000 C   0  0  0  0  0  0  0  0  0  0  0  0
   16.4808   -6.4135    0.0000 C   0  0  0  0  0  0  0  0  0  0  0  0
   17.1839   -6.8382    0.0000 C   0  0  0  0  0  0  0  0  0  0  0  0
   17.8974   -6.4442    0.0000 N   0  0  0  0  0  0  0  0  0  0  0  0
   24.0073   -7.2764    0.0000 C   0  0  0  0  0  0  0  0  0  0  0  0
   24.7205   -7.6868    0.0000 N   0  0  0  0  0  0  0  0  0  0  0  0
   23.3010   -7.6915    0.0000 O   0  0  0  0  0  0  0  0  0  0  0  0
   25.4310   -7.2718    0.0000 C   0  0  0  0  0  0  0  0  0  0  0  0
   26.1410   -7.6824    0.0000 C   0  0  0  0  0  0  0  0  0  0  0  0
   26.8510   -7.2680    0.0000 C   0  0  0  0  0  0  0  0  0  0  0  0
   26.8487   -6.4458    0.0000 C   0  0  0  0  0  0  0  0  0  0  0  0
   26.1306   -6.0398    0.0000 C   0  0  0  0  0  0  0  0  0  0  0  0
   25.4235   -6.4523    0.0000 C   0  0  0  0  0  0  0  0  0  0  0  0
   27.5587   -6.0340    0.0000 C   0  0  0  0  0  0  0  0  0  0  0  0
   28.2724   -6.4393    0.0000 C   0  0  0  0  0  0  0  0  0  0  0  0
   28.9782   -6.0275    0.0000 N   0  0  0  0  0  0  0  0  0  0  0  0
   29.6897   -6.4349    0.0000 C   0  0  0  0  0  0  0  0  0  0  0  0
   28.9704   -5.2074    0.0000 C   0  0  0  0  0  0  0  0  0  0  0  0
   30.3945   -6.0239    0.0000 C   0  0  0  0  0  0  0  0  0  0  0  0
   29.6844   -4.7933    0.0000 C   0  0  0  0  0  0  0  0  0  0  0  0
   30.3943   -5.2067    0.0000 C   0  0  0  0  0  0  0  0  0  0  0  0
   31.1037   -4.7962    0.0000 C   0  0  0  0  0  0  0  0  0  0  0  0
   31.1044   -3.9764    0.0000 C   0  0  0  0  0  0  0  0  0  0  0  0
   30.3899   -3.5689    0.0000 C   0  0  0  0  0  0  0  0  0  0  0  0
   29.6834   -3.9777    0.0000 C   0  0  0  0  0  0  0  0  0  0  0  0
   30.3873   -2.7476    0.0000 O   0  0  0  0  0  0  0  0  0  0  0  0
   31.0978   -2.3326    0.0000 C   0  0  0  0  0  0  0  0  0  0  0  0
   31.8159   -3.5671    0.0000 O   0  0  0  0  0  0  0  0  0  0  0  0
   32.5281   -3.9751    0.0000 C   0  0  0  0  0  0  0  0  0  0  0  0
   24.0036   -6.4592    0.0000 C   0  0  0  0  0  0  0  0  0  0  0  0
   24.4068   -5.7532    0.0000 C   0  0  0  0  0  0  0  0  0  0  0  0
   23.5896   -5.7570    0.0000 C   0  0  0  0  0  0  0  0  0  0  0  0
  1  2  2  0
  2  3  1  0
  3  4  2  0
  4  5  1  0
  5  6  2  0
  6  1  1  0
  4  7  1  0
  7  8  1  0
  8  9  2  0
  9 10  1  0
 10 11  2  0
 11 12  1  0
 12 13  2  0
 13  8  1  0
 14 15  2  0
 15 16  1  0
 16 17  2  0
 17 18  1  0
 18 19  2  0
 19 14  1  0
 11 14  1  0
 20 21  1  0
 20 22  2  0
 21 23  1  0
 23 24  2  0
 24 25  1  0
 25 26  2  0
 26 27  1  0
 27 28  2  0
 28 23  1  0
 26 29  1  0
 29 30  1  0
 30 31  1  0
 31 32  1  0
 31 33  1  0
 32 34  1  0
 35 33  1  0
 36 34  1  0
 35 36  2  0
 36 37  1  0
 37 38  2  0
 38 39  1  0
 39 40  2  0
 40 35  1  0
 39 41  1  0
 41 42  1  0
 38 43  1  0
 43 44  1  0
 20 45  1  0
 46 45  1  0
 47 46  1  0
 45 47  1  0
 47  1  1  0
M  END
>  <Classification>  (1018) 
1

>  <pchembl>  (1018) 
6.12

>  <InChI_steorem>  (1018) 
InChI=1S/C39H38N4O4/c1-45-36-21-28-17-20-43(25-30(28)22-37(36)46-2)19-16-26-6-11-31(12-7-26)42-39(44)34-23-33(34)29-10-15-38(41-24-29)47-32-13-8-27(9-14-32)35-5-3-4-18-40-35/h3-15,18,21-22,24,33-34H,16-17,19-20,23,25H2,1-2H3,(H,42,44)

>  <source>  (1018) 
ChEMBL29

>  <source_id>  (1018) 
29

>  <optional_reference>  (1018) 
10.1021/acs.jmedchem.0c00337

>  <optional_origin>  (1018) 
None

>  <target>  (1018) 
MDR1

$$$$

     RDKit          2D

 48 53  0  0  0  0  0  0  0  0999 V2000
   13.5932   -3.9568    0.0000 C   0  0  0  0  0  0  0  0  0  0  0  0
   14.2942   -4.3767    0.0000 N   0  0  0  0  0  0  0  0  0  0  0  0
   14.2801   -5.1965    0.0000 C   0  0  0  0  0  0  0  0  0  0  0  0
   15.0089   -3.9746    0.0000 C   0  0  0  0  0  0  0  0  0  0  0  0
   14.9799   -5.6160    0.0000 C   0  0  0  0  0  0  0  0  0  0  0  0
   15.7159   -4.4006    0.0000 C   0  0  0  0  0  0  0  0  0  0  0  0
   15.6958   -5.2219    0.0000 C   0  0  0  0  0  0  0  0  0  0  0  0
   16.3974   -5.6456    0.0000 C   0  0  0  0  0  0  0  0  0  0  0  0
   17.1161   -5.2512    0.0000 C   0  0  0  0  0  0  0  0  0  0  0  0
   17.1287   -4.4287    0.0000 C   0  0  0  0  0  0  0  0  0  0  0  0
   16.4300   -4.0067    0.0000 C   0  0  0  0  0  0  0  0  0  0  0  0
   17.8471   -4.0306    0.0000 O   0  0  0  0  0  0  0  0  0  0  0  0
   18.5531   -4.4532    0.0000 C   0  0  0  0  0  0  0  0  0  0  0  0
   17.8176   -5.6773    0.0000 O   0  0  0  0  0  0  0  0  0  0  0  0
   17.8034   -6.4979    0.0000 C   0  0  0  0  0  0  0  0  0  0  0  0
   12.8790   -4.3540    0.0000 C   0  0  0  0  0  0  0  0  0  0  0  0
   12.1779   -3.9340    0.0000 C   0  0  0  0  0  0  0  0  0  0  0  0
   12.1964   -3.1168    0.0000 C   0  0  0  0  0  0  0  0  0  0  0  0
   11.4962   -2.6969    0.0000 C   0  0  0  0  0  0  0  0  0  0  0  0
   10.7810   -3.0941    0.0000 C   0  0  0  0  0  0  0  0  0  0  0  0
   10.7705   -3.9155    0.0000 C   0  0  0  0  0  0  0  0  0  0  0  0
   11.4713   -4.3316    0.0000 C   0  0  0  0  0  0  0  0  0  0  0  0
   10.0794   -2.6751    0.0000 N   0  0  0  0  0  0  0  0  0  0  0  0
    9.3658   -3.0732    0.0000 C   0  0  0  0  0  0  0  0  0  0  0  0
    8.6642   -2.6542    0.0000 C   0  0  0  0  0  0  0  0  0  0  0  0
    9.3537   -3.8903    0.0000 O   0  0  0  0  0  0  0  0  0  0  0  0
    7.9505   -3.0523    0.0000 C   0  0  0  0  0  0  0  0  0  0  0  0
    7.2489   -2.6333    0.0000 C   0  0  0  0  0  0  0  0  0  0  0  0
    7.2653   -1.8154    0.0000 C   0  0  0  0  0  0  0  0  0  0  0  0
    6.5645   -1.3965    0.0000 C   0  0  0  0  0  0  0  0  0  0  0  0
    5.8498   -1.7946    0.0000 C   0  0  0  0  0  0  0  0  0  0  0  0
    5.8403   -2.6160    0.0000 N   0  0  0  0  0  0  0  0  0  0  0  0
    6.5417   -3.0312    0.0000 C   0  0  0  0  0  0  0  0  0  0  0  0
    5.1477   -1.3766    0.0000 O   0  0  0  0  0  0  0  0  0  0  0  0
    4.4346   -1.7756    0.0000 C   0  0  0  0  0  0  0  0  0  0  0  0
    3.7347   -1.3535    0.0000 C   0  0  0  0  0  0  0  0  0  0  0  0
    3.0220   -1.7519    0.0000 C   0  0  0  0  0  0  0  0  0  0  0  0
    3.0106   -2.5699    0.0000 C   0  0  0  0  0  0  0  0  0  0  0  0
    3.7177   -2.9878    0.0000 C   0  0  0  0  0  0  0  0  0  0  0  0
    4.4275   -2.5871    0.0000 C   0  0  0  0  0  0  0  0  0  0  0  0
    2.3003   -2.9706    0.0000 C   0  0  0  0  0  0  0  0  0  0  0  0
    1.5974   -2.5518    0.0000 N   0  0  0  0  0  0  0  0  0  0  0  0
    0.8853   -2.9511    0.0000 C   0  0  0  0  0  0  0  0  0  0  0  0
    0.8749   -3.7691    0.0000 C   0  0  0  0  0  0  0  0  0  0  0  0
    1.5826   -4.1861    0.0000 C   0  0  0  0  0  0  0  0  0  0  0  0
    2.2918   -3.7844    0.0000 C   0  0  0  0  0  0  0  0  0  0  0  0
    2.3201   -1.3335    0.0000 O   0  0  0  0  0  0  0  0  0  0  0  0
    3.7096   -3.8050    0.0000 O   0  0  0  0  0  0  0  0  0  0  0  0
  1  2  1  0
  2  3  1  0
  2  4  1  0
  3  5  1  0
  6  4  1  0
  7  5  1  0
  6  7  2  0
  7  8  1  0
  8  9  2  0
  9 10  1  0
 10 11  2  0
 11  6  1  0
 10 12  1  0
 12 13  1  0
  9 14  1  0
 14 15  1  0
  1 16  1  0
 16 17  1  0
 17 18  2  0
 18 19  1  0
 19 20  2  0
 20 21  1  0
 21 22  2  0
 22 17  1  0
 20 23  1  0
 23 24  1  0
 24 25  1  0
 24 26  2  0
 25 27  2  3
 27 28  1  0
 28 29  2  0
 29 30  1  0
 30 31  2  0
 31 32  1  0
 32 33  2  0
 33 28  1  0
 31 34  1  0
 34 35  1  0
 35 36  2  0
 36 37  1  0
 37 38  2  0
 38 39  1  0
 39 40  2  0
 40 35  1  0
 41 42  2  0
 42 43  1  0
 43 44  2  0
 44 45  1  0
 45 46  2  0
 46 41  1  0
 38 41  1  0
 37 47  1  0
 39 48  1  0
M  END
>  <Classification>  (1019) 
1

>  <pchembl>  (1019) 
6.11

>  <InChI_steorem>  (1019) 
InChI=1S/C38H36N4O6/c1-46-34-19-27-15-18-42(24-28(27)20-35(34)47-2)17-14-25-6-10-29(11-7-25)41-36(45)12-8-26-9-13-37(40-23-26)48-30-21-32(43)38(33(44)22-30)31-5-3-4-16-39-31/h3-13,16,19-23,43-44H,14-15,17-18,24H2,1-2H3,(H,41,45)

>  <source>  (1019) 
ChEMBL29

>  <source_id>  (1019) 
29

>  <optional_reference>  (1019) 
10.1021/acs.jmedchem.0c00337

>  <optional_origin>  (1019) 
None

>  <target>  (1019) 
MDR1

$$$$

     RDKit          2D

 48 53  0  0  0  0  0  0  0  0999 V2000
   14.0595  -17.9976    0.0000 C   0  0  0  0  0  0  0  0  0  0  0  0
   14.7606  -18.4176    0.0000 N   0  0  0  0  0  0  0  0  0  0  0  0
   14.7464  -19.2373    0.0000 C   0  0  0  0  0  0  0  0  0  0  0  0
   15.4753  -18.0155    0.0000 C   0  0  0  0  0  0  0  0  0  0  0  0
   15.4463  -19.6568    0.0000 C   0  0  0  0  0  0  0  0  0  0  0  0
   16.1823  -18.4415    0.0000 C   0  0  0  0  0  0  0  0  0  0  0  0
   16.1622  -19.2627    0.0000 C   0  0  0  0  0  0  0  0  0  0  0  0
   16.8638  -19.6864    0.0000 C   0  0  0  0  0  0  0  0  0  0  0  0
   17.5824  -19.2920    0.0000 C   0  0  0  0  0  0  0  0  0  0  0  0
   17.5951  -18.4695    0.0000 C   0  0  0  0  0  0  0  0  0  0  0  0
   16.8964  -18.0475    0.0000 C   0  0  0  0  0  0  0  0  0  0  0  0
   18.3135  -18.0714    0.0000 O   0  0  0  0  0  0  0  0  0  0  0  0
   19.0195  -18.4940    0.0000 C   0  0  0  0  0  0  0  0  0  0  0  0
   18.2839  -19.7181    0.0000 O   0  0  0  0  0  0  0  0  0  0  0  0
   18.2698  -20.5388    0.0000 C   0  0  0  0  0  0  0  0  0  0  0  0
   13.3453  -18.3948    0.0000 C   0  0  0  0  0  0  0  0  0  0  0  0
   12.6443  -17.9749    0.0000 C   0  0  0  0  0  0  0  0  0  0  0  0
   12.6628  -17.1576    0.0000 C   0  0  0  0  0  0  0  0  0  0  0  0
   11.9626  -16.7378    0.0000 C   0  0  0  0  0  0  0  0  0  0  0  0
   11.2474  -17.1350    0.0000 C   0  0  0  0  0  0  0  0  0  0  0  0
   11.2368  -17.9563    0.0000 C   0  0  0  0  0  0  0  0  0  0  0  0
   11.9377  -18.3725    0.0000 C   0  0  0  0  0  0  0  0  0  0  0  0
   10.5458  -16.7160    0.0000 N   0  0  0  0  0  0  0  0  0  0  0  0
    9.8322  -17.1141    0.0000 C   0  0  0  0  0  0  0  0  0  0  0  0
    9.1306  -16.6951    0.0000 C   0  0  0  0  0  0  0  0  0  0  0  0
    9.8201  -17.9312    0.0000 O   0  0  0  0  0  0  0  0  0  0  0  0
    8.4169  -17.0932    0.0000 C   0  0  0  0  0  0  0  0  0  0  0  0
    7.7153  -16.6742    0.0000 C   0  0  0  0  0  0  0  0  0  0  0  0
    7.7316  -15.8562    0.0000 C   0  0  0  0  0  0  0  0  0  0  0  0
    7.0309  -15.4373    0.0000 C   0  0  0  0  0  0  0  0  0  0  0  0
    6.3162  -15.8355    0.0000 C   0  0  0  0  0  0  0  0  0  0  0  0
    6.3067  -16.6568    0.0000 N   0  0  0  0  0  0  0  0  0  0  0  0
    7.0081  -17.0721    0.0000 C   0  0  0  0  0  0  0  0  0  0  0  0
    5.6141  -15.4174    0.0000 O   0  0  0  0  0  0  0  0  0  0  0  0
    4.9009  -15.8165    0.0000 C   0  0  0  0  0  0  0  0  0  0  0  0
    4.2010  -15.3943    0.0000 C   0  0  0  0  0  0  0  0  0  0  0  0
    3.4884  -15.7927    0.0000 C   0  0  0  0  0  0  0  0  0  0  0  0
    3.4770  -16.6107    0.0000 C   0  0  0  0  0  0  0  0  0  0  0  0
    4.1841  -17.0287    0.0000 C   0  0  0  0  0  0  0  0  0  0  0  0
    4.8939  -16.6279    0.0000 C   0  0  0  0  0  0  0  0  0  0  0  0
    2.7667  -17.0114    0.0000 C   0  0  0  0  0  0  0  0  0  0  0  0
    2.0637  -16.5926    0.0000 N   0  0  0  0  0  0  0  0  0  0  0  0
    1.3516  -16.9919    0.0000 C   0  0  0  0  0  0  0  0  0  0  0  0
    1.3413  -17.8099    0.0000 C   0  0  0  0  0  0  0  0  0  0  0  0
    2.0490  -18.2270    0.0000 C   0  0  0  0  0  0  0  0  0  0  0  0
    2.7582  -17.8252    0.0000 C   0  0  0  0  0  0  0  0  0  0  0  0
    2.7861  -15.3736    0.0000 C   0  0  0  0  0  0  0  0  0  0  0  0
    2.0842  -14.9552    0.0000 N   0  0  0  0  0  0  0  0  0  0  0  0
  1  2  1  0
  2  3  1  0
  2  4  1  0
  3  5  1  0
  6  4  1  0
  7  5  1  0
  6  7  2  0
  7  8  1  0
  8  9  2  0
  9 10  1  0
 10 11  2  0
 11  6  1  0
 10 12  1  0
 12 13  1  0
  9 14  1  0
 14 15  1  0
  1 16  1  0
 16 17  1  0
 17 18  2  0
 18 19  1  0
 19 20  2  0
 20 21  1  0
 21 22  2  0
 22 17  1  0
 20 23  1  0
 23 24  1  0
 24 25  1  0
 24 26  2  0
 25 27  2  3
 27 28  1  0
 28 29  2  0
 29 30  1  0
 30 31  2  0
 31 32  1  0
 32 33  2  0
 33 28  1  0
 31 34  1  0
 34 35  1  0
 35 36  2  0
 36 37  1  0
 37 38  2  0
 38 39  1  0
 39 40  2  0
 40 35  1  0
 41 42  2  0
 42 43  1  0
 43 44  2  0
 44 45  1  0
 45 46  2  0
 46 41  1  0
 38 41  1  0
 47 48  3  0
 37 47  1  0
M  END
>  <Classification>  (1020) 
1

>  <pchembl>  (1020) 
6.21

>  <InChI_steorem>  (1020) 
InChI=1S/C39H35N5O4/c1-46-36-22-29-17-20-44(26-31(29)23-37(36)47-2)19-16-27-6-10-32(11-7-27)43-38(45)14-8-28-9-15-39(42-25-28)48-33-12-13-34(30(21-33)24-40)35-5-3-4-18-41-35/h3-15,18,21-23,25H,16-17,19-20,26H2,1-2H3,(H,43,45)

>  <source>  (1020) 
ChEMBL29

>  <source_id>  (1020) 
29

>  <optional_reference>  (1020) 
10.1021/acs.jmedchem.0c00337

>  <optional_origin>  (1020) 
None

>  <target>  (1020) 
MDR1

$$$$

     RDKit          2D

 48 53  0  0  0  0  0  0  0  0999 V2000
   33.5978   -4.2994    0.0000 C   0  0  0  0  0  0  0  0  0  0  0  0
   34.2989   -4.7193    0.0000 N   0  0  0  0  0  0  0  0  0  0  0  0
   34.2847   -5.5390    0.0000 C   0  0  0  0  0  0  0  0  0  0  0  0
   35.0136   -4.3172    0.0000 C   0  0  0  0  0  0  0  0  0  0  0  0
   34.9846   -5.9585    0.0000 C   0  0  0  0  0  0  0  0  0  0  0  0
   35.7206   -4.7432    0.0000 C   0  0  0  0  0  0  0  0  0  0  0  0
   35.7005   -5.5645    0.0000 C   0  0  0  0  0  0  0  0  0  0  0  0
   36.4021   -5.9882    0.0000 C   0  0  0  0  0  0  0  0  0  0  0  0
   37.1207   -5.5937    0.0000 C   0  0  0  0  0  0  0  0  0  0  0  0
   37.1334   -4.7712    0.0000 C   0  0  0  0  0  0  0  0  0  0  0  0
   36.4347   -4.3492    0.0000 C   0  0  0  0  0  0  0  0  0  0  0  0
   37.8518   -4.3731    0.0000 O   0  0  0  0  0  0  0  0  0  0  0  0
   38.5578   -4.7957    0.0000 C   0  0  0  0  0  0  0  0  0  0  0  0
   37.8222   -6.0198    0.0000 O   0  0  0  0  0  0  0  0  0  0  0  0
   37.8081   -6.8405    0.0000 C   0  0  0  0  0  0  0  0  0  0  0  0
   32.8836   -4.6965    0.0000 C   0  0  0  0  0  0  0  0  0  0  0  0
   32.1826   -4.2766    0.0000 C   0  0  0  0  0  0  0  0  0  0  0  0
   32.2011   -3.4593    0.0000 C   0  0  0  0  0  0  0  0  0  0  0  0
   31.5009   -3.0395    0.0000 C   0  0  0  0  0  0  0  0  0  0  0  0
   30.7857   -3.4367    0.0000 C   0  0  0  0  0  0  0  0  0  0  0  0
   30.7751   -4.2580    0.0000 C   0  0  0  0  0  0  0  0  0  0  0  0
   31.4760   -4.6742    0.0000 C   0  0  0  0  0  0  0  0  0  0  0  0
   30.0841   -3.0177    0.0000 N   0  0  0  0  0  0  0  0  0  0  0  0
   29.3705   -3.4158    0.0000 C   0  0  0  0  0  0  0  0  0  0  0  0
   28.6689   -2.9968    0.0000 C   0  0  0  0  0  0  0  0  0  0  0  0
   29.3584   -4.2329    0.0000 O   0  0  0  0  0  0  0  0  0  0  0  0
   27.9552   -3.3949    0.0000 C   0  0  0  0  0  0  0  0  0  0  0  0
   27.2536   -2.9759    0.0000 C   0  0  0  0  0  0  0  0  0  0  0  0
   27.2699   -2.1580    0.0000 C   0  0  0  0  0  0  0  0  0  0  0  0
   26.5692   -1.7391    0.0000 C   0  0  0  0  0  0  0  0  0  0  0  0
   25.8545   -2.1372    0.0000 C   0  0  0  0  0  0  0  0  0  0  0  0
   25.8450   -2.9586    0.0000 N   0  0  0  0  0  0  0  0  0  0  0  0
   26.5464   -3.3738    0.0000 C   0  0  0  0  0  0  0  0  0  0  0  0
   25.1524   -1.7191    0.0000 O   0  0  0  0  0  0  0  0  0  0  0  0
   24.4392   -2.1182    0.0000 C   0  0  0  0  0  0  0  0  0  0  0  0
   23.7393   -1.6960    0.0000 C   0  0  0  0  0  0  0  0  0  0  0  0
   23.0267   -2.0944    0.0000 C   0  0  0  0  0  0  0  0  0  0  0  0
   23.0153   -2.9124    0.0000 C   0  0  0  0  0  0  0  0  0  0  0  0
   23.7224   -3.3304    0.0000 C   0  0  0  0  0  0  0  0  0  0  0  0
   24.4322   -2.9296    0.0000 C   0  0  0  0  0  0  0  0  0  0  0  0
   22.3050   -3.3132    0.0000 C   0  0  0  0  0  0  0  0  0  0  0  0
   21.6020   -2.8943    0.0000 N   0  0  0  0  0  0  0  0  0  0  0  0
   20.8899   -3.2937    0.0000 C   0  0  0  0  0  0  0  0  0  0  0  0
   20.8796   -4.1117    0.0000 C   0  0  0  0  0  0  0  0  0  0  0  0
   21.5873   -4.5287    0.0000 C   0  0  0  0  0  0  0  0  0  0  0  0
   22.2965   -4.1270    0.0000 C   0  0  0  0  0  0  0  0  0  0  0  0
   23.7528   -0.8790    0.0000 I   0  0  0  0  0  0  0  0  0  0  0  0
   25.1361   -3.3447    0.0000 I   0  0  0  0  0  0  0  0  0  0  0  0
  1  2  1  0
  2  3  1  0
  2  4  1  0
  3  5  1  0
  6  4  1  0
  7  5  1  0
  6  7  2  0
  7  8  1  0
  8  9  2  0
  9 10  1  0
 10 11  2  0
 11  6  1  0
 10 12  1  0
 12 13  1  0
  9 14  1  0
 14 15  1  0
  1 16  1  0
 16 17  1  0
 17 18  2  0
 18 19  1  0
 19 20  2  0
 20 21  1  0
 21 22  2  0
 22 17  1  0
 20 23  1  0
 23 24  1  0
 24 25  1  0
 24 26  2  0
 25 27  2  3
 27 28  1  0
 28 29  2  0
 29 30  1  0
 30 31  2  0
 31 32  1  0
 32 33  2  0
 33 28  1  0
 31 34  1  0
 34 35  1  0
 35 36  2  0
 36 37  1  0
 37 38  2  0
 38 39  1  0
 39 40  2  0
 40 35  1  0
 41 42  2  0
 42 43  1  0
 43 44  2  0
 44 45  1  0
 45 46  2  0
 46 41  1  0
 38 41  1  0
 36 47  1  0
 40 48  1  0
M  END
>  <Classification>  (1021) 
1

>  <pchembl>  (1021) 
5.93

>  <InChI_steorem>  (1021) 
InChI=1S/C38H34I2N4O4/c1-46-34-21-27-15-18-44(24-29(27)22-35(34)47-2)17-14-25-6-10-30(11-7-25)43-36(45)12-8-26-9-13-37(42-23-26)48-38-31(39)19-28(20-32(38)40)33-5-3-4-16-41-33/h3-13,16,19-23H,14-15,17-18,24H2,1-2H3,(H,43,45)

>  <source>  (1021) 
ChEMBL29

>  <source_id>  (1021) 
29

>  <optional_reference>  (1021) 
10.1021/acs.jmedchem.0c00337

>  <optional_origin>  (1021) 
None

>  <target>  (1021) 
MDR1

$$$$

     RDKit          2D

 48 54  0  0  0  0  0  0  0  0999 V2000
   11.3902  -26.1366    0.0000 C   0  0  0  0  0  0  0  0  0  0  0  0
   10.5072  -27.1242    0.0000 N   0  0  0  0  0  0  0  0  0  0  0  0
   11.3060  -26.9520    0.0000 C   0  0  0  0  0  0  0  0  0  0  0  0
   10.0966  -26.4175    0.0000 C   0  0  0  0  0  0  0  0  0  0  0  0
   10.6410  -25.8114    0.0000 C   0  0  0  0  0  0  0  0  0  0  0  0
   10.3879  -25.0389    0.0000 C   0  0  0  0  0  0  0  0  0  0  0  0
    9.5908  -24.8714    0.0000 C   0  0  0  0  0  0  0  0  0  0  0  0
    9.0472  -25.4825    0.0000 C   0  0  0  0  0  0  0  0  0  0  0  0
    9.3032  -26.2527    0.0000 C   0  0  0  0  0  0  0  0  0  0  0  0
   10.1769  -27.8717    0.0000 C   0  0  0  0  0  0  0  0  0  0  0  0
   11.9131  -27.4958    0.0000 C   0  0  0  0  0  0  0  0  0  0  0  0
   11.7436  -28.2963    0.0000 C   0  0  0  0  0  0  0  0  0  0  0  0
   12.3514  -28.8415    0.0000 C   0  0  0  0  0  0  0  0  0  0  0  0
   13.1290  -28.5872    0.0000 C   0  0  0  0  0  0  0  0  0  0  0  0
   13.2953  -27.7828    0.0000 C   0  0  0  0  0  0  0  0  0  0  0  0
   12.6861  -27.2412    0.0000 C   0  0  0  0  0  0  0  0  0  0  0  0
   14.2293  -26.1377    0.0000 C   0  0  0  0  0  0  0  0  0  0  0  0
   14.2281  -26.9614    0.0000 C   0  0  0  0  0  0  0  0  0  0  0  0
   14.9362  -27.3745    0.0000 C   0  0  0  0  0  0  0  0  0  0  0  0
   15.6500  -26.9609    0.0000 C   0  0  0  0  0  0  0  0  0  0  0  0
   15.6471  -26.1341    0.0000 C   0  0  0  0  0  0  0  0  0  0  0  0
   14.9344  -25.7288    0.0000 C   0  0  0  0  0  0  0  0  0  0  0  0
   16.3624  -27.3725    0.0000 C   0  0  0  0  0  0  0  0  0  0  0  0
   17.0736  -26.9587    0.0000 C   0  0  0  0  0  0  0  0  0  0  0  0
   17.7861  -27.3703    0.0000 N   0  0  0  0  0  0  0  0  0  0  0  0
   17.7834  -28.1897    0.0000 C   0  0  0  0  0  0  0  0  0  0  0  0
   18.4918  -28.5971    0.0000 C   0  0  0  0  0  0  0  0  0  0  0  0
   18.4931  -26.9525    0.0000 C   0  0  0  0  0  0  0  0  0  0  0  0
   19.2061  -27.3686    0.0000 C   0  0  0  0  0  0  0  0  0  0  0  0
   19.2015  -28.1872    0.0000 C   0  0  0  0  0  0  0  0  0  0  0  0
   19.9034  -28.5966    0.0000 C   0  0  0  0  0  0  0  0  0  0  0  0
   20.6145  -28.1927    0.0000 C   0  0  0  0  0  0  0  0  0  0  0  0
   20.6152  -27.3710    0.0000 C   0  0  0  0  0  0  0  0  0  0  0  0
   19.9085  -26.9611    0.0000 C   0  0  0  0  0  0  0  0  0  0  0  0
   21.3272  -26.9586    0.0000 O   0  0  0  0  0  0  0  0  0  0  0  0
   22.0389  -27.3716    0.0000 C   0  0  0  0  0  0  0  0  0  0  0  0
   21.3253  -28.6031    0.0000 O   0  0  0  0  0  0  0  0  0  0  0  0
   21.3231  -29.4245    0.0000 C   0  0  0  0  0  0  0  0  0  0  0  0
   13.5173  -25.7293    0.0000 N   0  0  0  0  0  0  0  0  0  0  0  0
   12.8056  -26.1380    0.0000 C   0  0  0  0  0  0  0  0  0  0  0  0
   12.8058  -26.9594    0.0000 O   0  0  0  0  0  0  0  0  0  0  0  0
   12.0983  -25.7287    0.0000 C   0  0  0  0  0  0  0  0  0  0  0  0
   12.0991  -24.9115    0.0000 N   0  0  0  0  0  0  0  0  0  0  0  0
   12.8068  -24.5090    0.0000 C   0  0  0  0  0  0  0  0  0  0  0  0
   12.8095  -23.6954    0.0000 C   0  0  0  0  0  0  0  0  0  0  0  0
   12.1041  -23.2823    0.0000 O   0  0  0  0  0  0  0  0  0  0  0  0
   11.3941  -23.6889    0.0000 C   0  0  0  0  0  0  0  0  0  0  0  0
   11.3897  -24.5087    0.0000 C   0  0  0  0  0  0  0  0  0  0  0  0
  1  5  1  0
  4  2  1  0
  2  3  1  0
  3  1  2  0
  4  5  2  0
  5  6  1  0
  6  7  2  0
  7  8  1  0
  8  9  2  0
  9  4  1  0
  2 10  1  0
 11 12  2  0
 12 13  1  0
 13 14  2  0
 14 15  1  0
 15 16  2  0
 16 11  1  0
  3 11  1  0
 17 18  2  0
 18 19  1  0
 19 20  2  0
 20 21  1  0
 21 22  2  0
 22 17  1  0
 20 23  1  0
 23 24  1  0
 24 25  1  0
 25 26  1  0
 25 28  1  0
 26 27  1  0
 27 30  1  0
 29 28  1  0
 29 30  2  0
 30 31  1  0
 31 32  2  0
 32 33  1  0
 33 34  2  0
 34 29  1  0
 33 35  1  0
 35 36  1  0
 32 37  1  0
 37 38  1  0
 17 39  1  0
 39 40  1  0
 40 41  2  0
 40 42  1  0
 42 43  1  0
 42  1  1  0
 43 44  1  0
 43 48  1  0
 44 45  1  0
 45 46  1  0
 46 47  1  0
 47 48  1  0
M  END
>  <Classification>  (1022) 
1

>  <pchembl>  (1022) 
6.26

>  <InChI_steorem>  (1022) 
InChI=1S/C40H44N4O4/c1-42-34-12-8-7-11-33(34)37(38(42)29-9-5-4-6-10-29)39(44-21-23-48-24-22-44)40(45)41-32-15-13-28(14-16-32)17-19-43-20-18-30-25-35(46-2)36(47-3)26-31(30)27-43/h4-16,25-26,39H,17-24,27H2,1-3H3,(H,41,45)

>  <source>  (1022) 
ChEMBL29

>  <source_id>  (1022) 
29

>  <optional_reference>  (1022) 
10.1021/acs.jmedchem.0c00337

>  <optional_origin>  (1022) 
None

>  <target>  (1022) 
MDR1

$$$$

     RDKit          2D

 21 23  0  0  0  0  0  0  0  0999 V2000
   16.0115  -20.8010    0.0000 C   0  0  0  0  0  0  0  0  0  0  0  0
   15.2968  -20.4022    0.0000 C   0  0  0  0  0  0  0  0  0  0  0  0
   14.5955  -20.8216    0.0000 C   0  0  0  0  0  0  0  0  0  0  0  0
   14.6088  -21.6399    0.0000 C   0  0  0  0  0  0  0  0  0  0  0  0
   15.3213  -22.0352    0.0000 C   0  0  0  0  0  0  0  0  0  0  0  0
   16.0226  -21.6158    0.0000 C   0  0  0  0  0  0  0  0  0  0  0  0
   13.9074  -22.0594    0.0000 N   0  0  0  0  0  0  0  0  0  0  0  0
   14.5852  -24.1141    0.0000 C   0  0  0  0  0  0  0  0  0  0  0  0
   14.5965  -23.2994    0.0000 N   0  0  0  0  0  0  0  0  0  0  0  0
   13.8953  -22.8798    0.0000 C   0  0  0  0  0  0  0  0  0  0  0  0
   13.1827  -23.2749    0.0000 C   0  0  0  0  0  0  0  0  0  0  0  0
   13.1692  -24.0932    0.0000 C   0  0  0  0  0  0  0  0  0  0  0  0
   13.8705  -24.5128    0.0000 N   0  0  0  0  0  0  0  0  0  0  0  0
   15.2864  -24.5337    0.0000 C   0  0  0  0  0  0  0  0  0  0  0  0
   15.2729  -25.3520    0.0000 C   0  0  0  0  0  0  0  0  0  0  0  0
   15.9742  -25.7716    0.0000 C   0  0  0  0  0  0  0  0  0  0  0  0
   16.6889  -25.3729    0.0000 C   0  0  0  0  0  0  0  0  0  0  0  0
   16.7003  -24.5582    0.0000 C   0  0  0  0  0  0  0  0  0  0  0  0
   15.9990  -24.1386    0.0000 C   0  0  0  0  0  0  0  0  0  0  0  0
   12.4545  -24.4919    0.0000 C   0  0  0  0  0  0  0  0  0  0  0  0
   16.7362  -22.0140    0.0000 Br  0  0  0  0  0  0  0  0  0  0  0  0
  1  2  2  0
  2  3  1  0
  3  4  2  0
  4  5  1  0
  5  6  2  0
  1  6  1  0
  8  9  2  0
  9 10  1  0
 10 11  2  0
 11 12  1  0
 12 13  2  0
  8 13  1  0
 14 15  2  0
 15 16  1  0
 16 17  2  0
 17 18  1  0
 18 19  2  0
 14 19  1  0
  8 14  1  0
 12 20  1  0
  7 10  1  0
  4  7  1  0
  6 21  1  0
M  END
>  <Classification>  (1023) 
1

>  <pchembl>  (1023) 
5.15

>  <InChI_steorem>  (1023) 
InChI=1S/C17H14BrN3/c1-12-10-16(20-15-9-5-8-14(18)11-15)21-17(19-12)13-6-3-2-4-7-13/h2-11H,1H3,(H,19,20,21)

>  <source>  (1023) 
ChEMBL30

>  <source_id>  (1023) 
30

>  <optional_reference>  (1023) 
10.1021/acs.jmedchem.0c00961

>  <optional_origin>  (1023) 
None

>  <target>  (1023) 
MDR1

$$$$

     RDKit          2D

 21 23  0  0  0  0  0  0  0  0999 V2000
    9.9816  -21.0445    0.0000 C   0  0  0  0  0  0  0  0  0  0  0  0
    9.2670  -20.6457    0.0000 C   0  0  0  0  0  0  0  0  0  0  0  0
    8.5656  -21.0651    0.0000 C   0  0  0  0  0  0  0  0  0  0  0  0
    8.5789  -21.8834    0.0000 C   0  0  0  0  0  0  0  0  0  0  0  0
    9.2914  -22.2787    0.0000 C   0  0  0  0  0  0  0  0  0  0  0  0
    9.9927  -21.8593    0.0000 C   0  0  0  0  0  0  0  0  0  0  0  0
    7.8776  -22.3029    0.0000 N   0  0  0  0  0  0  0  0  0  0  0  0
    8.5553  -24.3576    0.0000 C   0  0  0  0  0  0  0  0  0  0  0  0
    8.5667  -23.5429    0.0000 N   0  0  0  0  0  0  0  0  0  0  0  0
    7.8654  -23.1233    0.0000 C   0  0  0  0  0  0  0  0  0  0  0  0
    7.1528  -23.5184    0.0000 C   0  0  0  0  0  0  0  0  0  0  0  0
    7.1393  -24.3367    0.0000 C   0  0  0  0  0  0  0  0  0  0  0  0
    7.8406  -24.7563    0.0000 N   0  0  0  0  0  0  0  0  0  0  0  0
    9.2565  -24.7772    0.0000 C   0  0  0  0  0  0  0  0  0  0  0  0
    9.2431  -25.5955    0.0000 C   0  0  0  0  0  0  0  0  0  0  0  0
    9.9443  -26.0151    0.0000 C   0  0  0  0  0  0  0  0  0  0  0  0
   10.6590  -25.6165    0.0000 C   0  0  0  0  0  0  0  0  0  0  0  0
   10.6704  -24.8017    0.0000 C   0  0  0  0  0  0  0  0  0  0  0  0
    9.9691  -24.3821    0.0000 C   0  0  0  0  0  0  0  0  0  0  0  0
    6.4246  -24.7354    0.0000 C   0  0  0  0  0  0  0  0  0  0  0  0
   10.7063  -22.2575    0.0000 Cl  0  0  0  0  0  0  0  0  0  0  0  0
  1  2  2  0
  2  3  1  0
  3  4  2  0
  4  5  1  0
  5  6  2  0
  1  6  1  0
  8  9  2  0
  9 10  1  0
 10 11  2  0
 11 12  1  0
 12 13  2  0
  8 13  1  0
 14 15  2  0
 15 16  1  0
 16 17  2  0
 17 18  1  0
 18 19  2  0
 14 19  1  0
  8 14  1  0
 12 20  1  0
  7 10  1  0
  4  7  1  0
  6 21  1  0
M  END
>  <Classification>  (1024) 
1

>  <pchembl>  (1024) 
5.23

>  <InChI_steorem>  (1024) 
InChI=1S/C17H14ClN3/c1-12-10-16(20-15-9-5-8-14(18)11-15)21-17(19-12)13-6-3-2-4-7-13/h2-11H,1H3,(H,19,20,21)

>  <source>  (1024) 
ChEMBL30

>  <source_id>  (1024) 
30

>  <optional_reference>  (1024) 
10.1021/acs.jmedchem.0c00961

>  <optional_origin>  (1024) 
None

>  <target>  (1024) 
MDR1

$$$$

     RDKit          2D

 22 24  0  0  0  0  0  0  0  0999 V2000
   10.5489   -7.9506    0.0000 C   0  0  0  0  0  0  0  0  0  0  0  0
    9.8492   -8.3711    0.0000 N   0  0  0  0  0  0  0  0  0  0  0  0
    9.1351   -7.9704    0.0000 C   0  0  0  0  0  0  0  0  0  0  0  0
    9.1206   -7.1534    0.0000 C   0  0  0  0  0  0  0  0  0  0  0  0
    9.8244   -6.7370    0.0000 C   0  0  0  0  0  0  0  0  0  0  0  0
   10.5386   -7.1336    0.0000 N   0  0  0  0  0  0  0  0  0  0  0  0
   11.3099   -6.8695    0.0000 N   0  0  0  0  0  0  0  0  0  0  0  0
   11.8009   -7.5218    0.0000 C   0  0  0  0  0  0  0  0  0  0  0  0
   11.3317   -8.1917    0.0000 N   0  0  0  0  0  0  0  0  0  0  0  0
    9.8100   -5.9200    0.0000 N   0  0  0  0  0  0  0  0  0  0  0  0
    8.4313   -8.3909    0.0000 C   0  0  0  0  0  0  0  0  0  0  0  0
    9.1000   -5.5193    0.0000 C   0  0  0  0  0  0  0  0  0  0  0  0
    9.0855   -4.7022    0.0000 C   0  0  0  0  0  0  0  0  0  0  0  0
    8.3714   -4.3057    0.0000 C   0  0  0  0  0  0  0  0  0  0  0  0
    7.6717   -4.7262    0.0000 C   0  0  0  0  0  0  0  0  0  0  0  0
    7.6820   -5.5432    0.0000 C   0  0  0  0  0  0  0  0  0  0  0  0
    8.3962   -5.9398    0.0000 C   0  0  0  0  0  0  0  0  0  0  0  0
    6.9576   -4.3255    0.0000 F   0  0  0  0  0  0  0  0  0  0  0  0
   12.6179   -7.5114    0.0000 S   0  0  0  0  0  0  0  0  0  0  0  0
   13.0384   -8.2111    0.0000 C   0  0  0  0  0  0  0  0  0  0  0  0
   13.8555   -8.2008    0.0000 C   0  0  0  0  0  0  0  0  0  0  0  0
   14.2551   -7.4880    0.0000 C   0  0  0  0  0  0  0  0  0  0  0  0
  1  2  1  0
  2  3  2  0
  3  4  1  0
  4  5  2  0
  5  6  1  0
  1  6  1  0
  7  8  2  0
  8  9  1  0
  6  7  1  0
  1  9  2  0
  5 10  1  0
  3 11  1  0
 12 13  2  0
 13 14  1  0
 14 15  2  0
 15 16  1  0
 16 17  2  0
 12 17  1  0
 15 18  1  0
 10 12  1  0
 20 21  1  0
 19 20  1  0
  8 19  1  0
 21 22  1  0
M  END
>  <Classification>  (1025) 
1

>  <pchembl>  (1025) 
5.45

>  <InChI_steorem>  (1025) 
InChI=1S/C15H16FN5S/c1-3-8-22-15-19-14-17-10(2)9-13(21(14)20-15)18-12-6-4-11(16)5-7-12/h4-7,9,18H,3,8H2,1-2H3

>  <source>  (1025) 
ChEMBL30

>  <source_id>  (1025) 
30

>  <optional_reference>  (1025) 
10.1021/acs.jmedchem.0c01741

>  <optional_origin>  (1025) 
None

>  <target>  (1025) 
MDR1

$$$$

     RDKit          2D

 22 24  0  0  0  0  0  0  0  0999 V2000
   10.5489   -7.9506    0.0000 C   0  0  0  0  0  0  0  0  0  0  0  0
    9.8492   -8.3711    0.0000 N   0  0  0  0  0  0  0  0  0  0  0  0
    9.1351   -7.9704    0.0000 C   0  0  0  0  0  0  0  0  0  0  0  0
    9.1206   -7.1534    0.0000 C   0  0  0  0  0  0  0  0  0  0  0  0
    9.8244   -6.7370    0.0000 C   0  0  0  0  0  0  0  0  0  0  0  0
   10.5386   -7.1336    0.0000 N   0  0  0  0  0  0  0  0  0  0  0  0
   11.3099   -6.8695    0.0000 N   0  0  0  0  0  0  0  0  0  0  0  0
   11.8009   -7.5218    0.0000 C   0  0  0  0  0  0  0  0  0  0  0  0
   11.3317   -8.1917    0.0000 N   0  0  0  0  0  0  0  0  0  0  0  0
    9.8100   -5.9200    0.0000 N   0  0  0  0  0  0  0  0  0  0  0  0
    8.4313   -8.3909    0.0000 C   0  0  0  0  0  0  0  0  0  0  0  0
    9.1000   -5.5193    0.0000 C   0  0  0  0  0  0  0  0  0  0  0  0
    9.0855   -4.7022    0.0000 C   0  0  0  0  0  0  0  0  0  0  0  0
    8.3714   -4.3057    0.0000 C   0  0  0  0  0  0  0  0  0  0  0  0
    7.6717   -4.7262    0.0000 C   0  0  0  0  0  0  0  0  0  0  0  0
    7.6820   -5.5432    0.0000 C   0  0  0  0  0  0  0  0  0  0  0  0
    8.3962   -5.9398    0.0000 C   0  0  0  0  0  0  0  0  0  0  0  0
    6.9576   -4.3255    0.0000 F   0  0  0  0  0  0  0  0  0  0  0  0
   12.6179   -7.5114    0.0000 S   0  0  0  0  0  0  0  0  0  0  0  0
   13.0384   -8.2111    0.0000 C   0  0  0  0  0  0  0  0  0  0  0  0
   13.8555   -8.2008    0.0000 C   0  0  0  0  0  0  0  0  0  0  0  0
   14.2770   -8.9100    0.0000 C   0  0  0  0  0  0  0  0  0  0  0  0
  1  2  1  0
  2  3  2  0
  3  4  1  0
  4  5  2  0
  5  6  1  0
  1  6  1  0
  7  8  2  0
  8  9  1  0
  6  7  1  0
  1  9  2  0
  5 10  1  0
  3 11  1  0
 12 13  2  0
 13 14  1  0
 14 15  2  0
 15 16  1  0
 16 17  2  0
 12 17  1  0
 15 18  1  0
 10 12  1  0
 20 21  1  0
 19 20  1  0
  8 19  1  0
 21 22  2  0
M  END
>  <Classification>  (1026) 
1

>  <pchembl>  (1026) 
5.38

>  <InChI_steorem>  (1026) 
InChI=1S/C15H14FN5S/c1-3-8-22-15-19-14-17-10(2)9-13(21(14)20-15)18-12-6-4-11(16)5-7-12/h3-7,9,18H,1,8H2,2H3

>  <source>  (1026) 
ChEMBL30

>  <source_id>  (1026) 
30

>  <optional_reference>  (1026) 
10.1021/acs.jmedchem.0c01741

>  <optional_origin>  (1026) 
None

>  <target>  (1026) 
MDR1

$$$$

     RDKit          2D

 22 24  0  0  0  0  0  0  0  0999 V2000
   10.5489   -7.9506    0.0000 C   0  0  0  0  0  0  0  0  0  0  0  0
    9.8492   -8.3711    0.0000 N   0  0  0  0  0  0  0  0  0  0  0  0
    9.1351   -7.9704    0.0000 C   0  0  0  0  0  0  0  0  0  0  0  0
    9.1206   -7.1534    0.0000 C   0  0  0  0  0  0  0  0  0  0  0  0
    9.8244   -6.7370    0.0000 C   0  0  0  0  0  0  0  0  0  0  0  0
   10.5386   -7.1336    0.0000 N   0  0  0  0  0  0  0  0  0  0  0  0
   11.3099   -6.8695    0.0000 N   0  0  0  0  0  0  0  0  0  0  0  0
   11.8009   -7.5218    0.0000 C   0  0  0  0  0  0  0  0  0  0  0  0
   11.3317   -8.1917    0.0000 N   0  0  0  0  0  0  0  0  0  0  0  0
    9.8100   -5.9200    0.0000 N   0  0  0  0  0  0  0  0  0  0  0  0
    8.4313   -8.3909    0.0000 C   0  0  0  0  0  0  0  0  0  0  0  0
    9.1000   -5.5193    0.0000 C   0  0  0  0  0  0  0  0  0  0  0  0
    9.0855   -4.7022    0.0000 C   0  0  0  0  0  0  0  0  0  0  0  0
    8.3714   -4.3057    0.0000 C   0  0  0  0  0  0  0  0  0  0  0  0
    7.6717   -4.7262    0.0000 C   0  0  0  0  0  0  0  0  0  0  0  0
    7.6820   -5.5432    0.0000 C   0  0  0  0  0  0  0  0  0  0  0  0
    8.3962   -5.9398    0.0000 C   0  0  0  0  0  0  0  0  0  0  0  0
    6.9576   -4.3255    0.0000 F   0  0  0  0  0  0  0  0  0  0  0  0
   12.6179   -7.5114    0.0000 S   0  0  0  0  0  0  0  0  0  0  0  0
   13.0384   -8.2111    0.0000 C   0  0  0  0  0  0  0  0  0  0  0  0
   13.8555   -8.2008    0.0000 C   0  0  0  0  0  0  0  0  0  0  0  0
   14.6805   -8.2008    0.0000 C   0  0  0  0  0  0  0  0  0  0  0  0
  1  2  1  0
  2  3  2  0
  3  4  1  0
  4  5  2  0
  5  6  1  0
  1  6  1  0
  7  8  2  0
  8  9  1  0
  6  7  1  0
  1  9  2  0
  5 10  1  0
  3 11  1  0
 12 13  2  0
 13 14  1  0
 14 15  2  0
 15 16  1  0
 16 17  2  0
 12 17  1  0
 15 18  1  0
 10 12  1  0
 20 21  1  0
 19 20  1  0
  8 19  1  0
 21 22  3  0
M  END
>  <Classification>  (1027) 
1

>  <pchembl>  (1027) 
5.47

>  <InChI_steorem>  (1027) 
InChI=1S/C15H12FN5S/c1-3-8-22-15-19-14-17-10(2)9-13(21(14)20-15)18-12-6-4-11(16)5-7-12/h1,4-7,9,18H,8H2,2H3

>  <source>  (1027) 
ChEMBL30

>  <source_id>  (1027) 
30

>  <optional_reference>  (1027) 
10.1021/acs.jmedchem.0c01741

>  <optional_origin>  (1027) 
None

>  <target>  (1027) 
MDR1

$$$$

     RDKit          2D

 22 24  0  0  0  0  0  0  0  0999 V2000
   19.5072  -14.3873    0.0000 C   0  0  0  0  0  0  0  0  0  0  0  0
   18.7926  -13.9885    0.0000 C   0  0  0  0  0  0  0  0  0  0  0  0
   18.0913  -14.4079    0.0000 C   0  0  0  0  0  0  0  0  0  0  0  0
   18.1045  -15.2262    0.0000 C   0  0  0  0  0  0  0  0  0  0  0  0
   18.8170  -15.6215    0.0000 C   0  0  0  0  0  0  0  0  0  0  0  0
   19.5184  -15.2021    0.0000 C   0  0  0  0  0  0  0  0  0  0  0  0
   17.4032  -15.6456    0.0000 N   0  0  0  0  0  0  0  0  0  0  0  0
   18.0809  -17.7004    0.0000 C   0  0  0  0  0  0  0  0  0  0  0  0
   18.0923  -16.8857    0.0000 N   0  0  0  0  0  0  0  0  0  0  0  0
   17.3911  -16.4661    0.0000 C   0  0  0  0  0  0  0  0  0  0  0  0
   16.6785  -16.8612    0.0000 C   0  0  0  0  0  0  0  0  0  0  0  0
   16.6650  -17.6795    0.0000 C   0  0  0  0  0  0  0  0  0  0  0  0
   17.3662  -18.0991    0.0000 N   0  0  0  0  0  0  0  0  0  0  0  0
   18.7822  -18.1200    0.0000 C   0  0  0  0  0  0  0  0  0  0  0  0
   18.7687  -18.9383    0.0000 C   0  0  0  0  0  0  0  0  0  0  0  0
   19.4699  -19.3579    0.0000 C   0  0  0  0  0  0  0  0  0  0  0  0
   20.1847  -18.9592    0.0000 C   0  0  0  0  0  0  0  0  0  0  0  0
   20.1960  -18.1445    0.0000 C   0  0  0  0  0  0  0  0  0  0  0  0
   19.4948  -17.7249    0.0000 C   0  0  0  0  0  0  0  0  0  0  0  0
   15.9503  -18.0782    0.0000 C   0  0  0  0  0  0  0  0  0  0  0  0
   20.2320  -15.6003    0.0000 O   0  0  0  0  0  0  0  0  0  0  0  0
   20.2438  -16.4174    0.0000 C   0  0  0  0  0  0  0  0  0  0  0  0
  1  2  2  0
  2  3  1  0
  3  4  2  0
  4  5  1  0
  5  6  2  0
  1  6  1  0
  8  9  2  0
  9 10  1  0
 10 11  2  0
 11 12  1  0
 12 13  2  0
  8 13  1  0
 14 15  2  0
 15 16  1  0
 16 17  2  0
 17 18  1  0
 18 19  2  0
 14 19  1  0
  8 14  1  0
 12 20  1  0
  7 10  1  0
  4  7  1  0
  6 21  1  0
 21 22  1  0
M  END
>  <Classification>  (1028) 
0

>  <pchembl>  (1028) 
4.87

>  <InChI_steorem>  (1028) 
InChI=1S/C18H17N3O/c1-13-11-17(20-15-9-6-10-16(12-15)22-2)21-18(19-13)14-7-4-3-5-8-14/h3-12H,1-2H3,(H,19,20,21)

>  <source>  (1028) 
ChEMBL30

>  <source_id>  (1028) 
30

>  <optional_reference>  (1028) 
10.1021/acs.jmedchem.0c00961

>  <optional_origin>  (1028) 
None

>  <target>  (1028) 
MDR1

$$$$

     RDKit          2D

 23 25  0  0  0  0  0  0  0  0999 V2000
   12.8583   -8.2666    0.0000 C   0  0  0  0  0  0  0  0  0  0  0  0
   12.1436   -7.8678    0.0000 C   0  0  0  0  0  0  0  0  0  0  0  0
   11.4423   -8.2872    0.0000 C   0  0  0  0  0  0  0  0  0  0  0  0
   11.4556   -9.1055    0.0000 C   0  0  0  0  0  0  0  0  0  0  0  0
   12.1681   -9.5008    0.0000 C   0  0  0  0  0  0  0  0  0  0  0  0
   12.8694   -9.0814    0.0000 C   0  0  0  0  0  0  0  0  0  0  0  0
   10.7542   -9.5250    0.0000 N   0  0  0  0  0  0  0  0  0  0  0  0
   11.4320  -11.5797    0.0000 C   0  0  0  0  0  0  0  0  0  0  0  0
   11.4433  -10.7650    0.0000 N   0  0  0  0  0  0  0  0  0  0  0  0
   10.7421  -10.3454    0.0000 C   0  0  0  0  0  0  0  0  0  0  0  0
   10.0295  -10.7405    0.0000 C   0  0  0  0  0  0  0  0  0  0  0  0
   10.0160  -11.5588    0.0000 C   0  0  0  0  0  0  0  0  0  0  0  0
   10.7173  -11.9784    0.0000 N   0  0  0  0  0  0  0  0  0  0  0  0
   12.1332  -11.9993    0.0000 C   0  0  0  0  0  0  0  0  0  0  0  0
   12.1197  -12.8176    0.0000 C   0  0  0  0  0  0  0  0  0  0  0  0
   12.8210  -13.2372    0.0000 C   0  0  0  0  0  0  0  0  0  0  0  0
   13.5357  -12.8386    0.0000 C   0  0  0  0  0  0  0  0  0  0  0  0
   13.5471  -12.0238    0.0000 C   0  0  0  0  0  0  0  0  0  0  0  0
   12.8458  -11.6042    0.0000 C   0  0  0  0  0  0  0  0  0  0  0  0
    9.3013  -11.9575    0.0000 C   0  0  0  0  0  0  0  0  0  0  0  0
   13.5830   -9.4796    0.0000 F   0  0  0  0  0  0  0  0  0  0  0  0
   13.5601   -7.8481    0.0000 O   0  0  0  0  0  0  0  0  0  0  0  0
   14.2735   -8.2467    0.0000 C   0  0  0  0  0  0  0  0  0  0  0  0
  1  2  2  0
  2  3  1  0
  3  4  2  0
  4  5  1  0
  5  6  2  0
  1  6  1  0
  8  9  2  0
  9 10  1  0
 10 11  2  0
 11 12  1  0
 12 13  2  0
  8 13  1  0
 14 15  2  0
 15 16  1  0
 16 17  2  0
 17 18  1  0
 18 19  2  0
 14 19  1  0
  8 14  1  0
 12 20  1  0
  7 10  1  0
  4  7  1  0
  6 21  1  0
  1 22  1  0
 22 23  1  0
M  END
>  <Classification>  (1029) 
1

>  <pchembl>  (1029) 
5.05

>  <InChI_steorem>  (1029) 
InChI=1S/C18H16FN3O/c1-12-10-17(21-14-8-9-16(23-2)15(19)11-14)22-18(20-12)13-6-4-3-5-7-13/h3-11H,1-2H3,(H,20,21,22)

>  <source>  (1029) 
ChEMBL30

>  <source_id>  (1029) 
30

>  <optional_reference>  (1029) 
10.1021/acs.jmedchem.0c00961

>  <optional_origin>  (1029) 
None

>  <target>  (1029) 
MDR1

$$$$

     RDKit          2D

 23 25  0  0  0  0  0  0  0  0999 V2000
   14.2863   -7.8415    0.0000 C   0  0  0  0  0  0  0  0  0  0  0  0
   13.5716   -7.4427    0.0000 C   0  0  0  0  0  0  0  0  0  0  0  0
   12.8703   -7.8621    0.0000 C   0  0  0  0  0  0  0  0  0  0  0  0
   12.8836   -8.6804    0.0000 C   0  0  0  0  0  0  0  0  0  0  0  0
   13.5961   -9.0757    0.0000 C   0  0  0  0  0  0  0  0  0  0  0  0
   14.2974   -8.6563    0.0000 C   0  0  0  0  0  0  0  0  0  0  0  0
   12.1823   -9.0999    0.0000 N   0  0  0  0  0  0  0  0  0  0  0  0
   12.8600  -11.1546    0.0000 C   0  0  0  0  0  0  0  0  0  0  0  0
   12.8714  -10.3399    0.0000 N   0  0  0  0  0  0  0  0  0  0  0  0
   12.1701   -9.9203    0.0000 C   0  0  0  0  0  0  0  0  0  0  0  0
   11.4575  -10.3154    0.0000 C   0  0  0  0  0  0  0  0  0  0  0  0
   11.4440  -11.1337    0.0000 C   0  0  0  0  0  0  0  0  0  0  0  0
   12.1453  -11.5533    0.0000 N   0  0  0  0  0  0  0  0  0  0  0  0
   13.5612  -11.5742    0.0000 C   0  0  0  0  0  0  0  0  0  0  0  0
   13.5478  -12.3925    0.0000 C   0  0  0  0  0  0  0  0  0  0  0  0
   14.2490  -12.8121    0.0000 C   0  0  0  0  0  0  0  0  0  0  0  0
   14.9637  -12.4134    0.0000 C   0  0  0  0  0  0  0  0  0  0  0  0
   14.9751  -11.5987    0.0000 C   0  0  0  0  0  0  0  0  0  0  0  0
   14.2738  -11.1791    0.0000 C   0  0  0  0  0  0  0  0  0  0  0  0
   10.7293  -11.5324    0.0000 C   0  0  0  0  0  0  0  0  0  0  0  0
   14.9872   -7.4260    0.0000 C   0  0  0  0  0  0  0  0  0  0  0  0
   15.6995   -7.8264    0.0000 C   0  0  0  0  0  0  0  0  0  0  0  0
   16.4090   -8.2237    0.0000 N   0  0  0  0  0  0  0  0  0  0  0  0
  1  2  2  0
  2  3  1  0
  3  4  2  0
  4  5  1  0
  5  6  2  0
  1  6  1  0
  8  9  2  0
  9 10  1  0
 10 11  2  0
 11 12  1  0
 12 13  2  0
  8 13  1  0
 14 15  2  0
 15 16  1  0
 16 17  2  0
 17 18  1  0
 18 19  2  0
 14 19  1  0
  8 14  1  0
 12 20  1  0
  7 10  1  0
  4  7  1  0
  1 21  1  0
 21 22  1  0
 22 23  3  0
M  END
>  <Classification>  (1030) 
0

>  <pchembl>  (1030) 
4.8

>  <InChI_steorem>  (1030) 
InChI=1S/C19H16N4/c1-14-13-18(22-17-9-7-15(8-10-17)11-12-20)23-19(21-14)16-5-3-2-4-6-16/h2-10,13H,11H2,1H3,(H,21,22,23)

>  <source>  (1030) 
ChEMBL30

>  <source_id>  (1030) 
30

>  <optional_reference>  (1030) 
10.1021/acs.jmedchem.0c00961

>  <optional_origin>  (1030) 
None

>  <target>  (1030) 
MDR1

$$$$

     RDKit          2D

 23 25  0  0  0  0  0  0  0  0999 V2000
   23.0327   -4.0697    0.0000 C   0  0  0  0  0  0  0  0  0  0  0  0
   23.0315   -4.8977    0.0000 C   0  0  0  0  0  0  0  0  0  0  0  0
   23.7469   -5.3109    0.0000 C   0  0  0  0  0  0  0  0  0  0  0  0
   24.4639   -4.8972    0.0000 C   0  0  0  0  0  0  0  0  0  0  0  0
   24.4610   -4.0660    0.0000 C   0  0  0  0  0  0  0  0  0  0  0  0
   23.7451   -3.6567    0.0000 C   0  0  0  0  0  0  0  0  0  0  0  0
   22.3162   -5.3099    0.0000 N   0  0  0  0  0  0  0  0  0  0  0  0
   22.3156   -6.1356    0.0000 C   0  0  0  0  0  0  0  0  0  0  0  0
   21.6001   -6.5463    0.0000 C   0  0  0  0  0  0  0  0  0  0  0  0
   21.5991   -7.3711    0.0000 C   0  0  0  0  0  0  0  0  0  0  0  0
   22.3144   -7.7853    0.0000 N   0  0  0  0  0  0  0  0  0  0  0  0
   23.0320   -7.3687    0.0000 C   0  0  0  0  0  0  0  0  0  0  0  0
   23.0295   -6.5452    0.0000 N   0  0  0  0  0  0  0  0  0  0  0  0
   23.7457   -7.7767    0.0000 C   0  0  0  0  0  0  0  0  0  0  0  0
   23.7466   -8.6035    0.0000 C   0  0  0  0  0  0  0  0  0  0  0  0
   24.4619   -9.0142    0.0000 C   0  0  0  0  0  0  0  0  0  0  0  0
   25.1768   -8.5994    0.0000 C   0  0  0  0  0  0  0  0  0  0  0  0
   25.1719   -7.7695    0.0000 C   0  0  0  0  0  0  0  0  0  0  0  0
   24.4560   -7.3625    0.0000 C   0  0  0  0  0  0  0  0  0  0  0  0
   25.1723   -3.6494    0.0000 C   0  0  0  0  0  0  0  0  0  0  0  0
   25.8856   -3.2338    0.0000 N   0  0  0  0  0  0  0  0  0  0  0  0
   20.8835   -7.7830    0.0000 N   0  0  0  0  0  0  0  0  0  0  0  0
   20.1690   -7.3693    0.0000 C   0  0  0  0  0  0  0  0  0  0  0  0
  1  2  2  0
  2  3  1  0
  3  4  2  0
  4  5  1  0
  5  6  2  0
  6  1  1  0
  2  7  1  0
  7  8  1  0
  8  9  2  0
  9 10  1  0
 10 11  2  0
 11 12  1  0
 12 13  2  0
 13  8  1  0
 14 15  2  0
 15 16  1  0
 16 17  2  0
 17 18  1  0
 18 19  2  0
 19 14  1  0
 12 14  1  0
 20 21  3  0
  5 20  1  0
 10 22  1  0
 22 23  1  0
M  END
>  <Classification>  (1031) 
0

>  <pchembl>  (1031) 
4.59

>  <InChI_steorem>  (1031) 
InChI=1S/C18H15N5/c1-20-16-11-17(21-15-9-7-13(12-19)8-10-15)23-18(22-16)14-5-3-2-4-6-14/h2-11H,1H3,(H2,20,21,22,23)

>  <source>  (1031) 
ChEMBL30

>  <source_id>  (1031) 
30

>  <optional_reference>  (1031) 
10.1016/j.ejmech.2020.113045

>  <optional_origin>  (1031) 
None

>  <target>  (1031) 
MDR1

$$$$

     RDKit          2D

 23 25  0  0  0  0  0  0  0  0999 V2000
    3.6422  -14.6638    0.0000 C   0  0  0  0  0  0  0  0  0  0  0  0
    2.9275  -14.2650    0.0000 C   0  0  0  0  0  0  0  0  0  0  0  0
    2.2262  -14.6844    0.0000 C   0  0  0  0  0  0  0  0  0  0  0  0
    2.2395  -15.5027    0.0000 C   0  0  0  0  0  0  0  0  0  0  0  0
    2.9520  -15.8980    0.0000 C   0  0  0  0  0  0  0  0  0  0  0  0
    3.6533  -15.4786    0.0000 C   0  0  0  0  0  0  0  0  0  0  0  0
    1.5381  -15.9222    0.0000 N   0  0  0  0  0  0  0  0  0  0  0  0
    2.2159  -17.9769    0.0000 C   0  0  0  0  0  0  0  0  0  0  0  0
    2.2272  -17.1622    0.0000 N   0  0  0  0  0  0  0  0  0  0  0  0
    1.5260  -16.7426    0.0000 C   0  0  0  0  0  0  0  0  0  0  0  0
    0.8134  -17.1377    0.0000 C   0  0  0  0  0  0  0  0  0  0  0  0
    0.7999  -17.9560    0.0000 C   0  0  0  0  0  0  0  0  0  0  0  0
    1.5012  -18.3756    0.0000 N   0  0  0  0  0  0  0  0  0  0  0  0
    2.9171  -18.3966    0.0000 C   0  0  0  0  0  0  0  0  0  0  0  0
    2.9036  -19.2148    0.0000 C   0  0  0  0  0  0  0  0  0  0  0  0
    3.6049  -19.6344    0.0000 C   0  0  0  0  0  0  0  0  0  0  0  0
    4.3196  -19.2358    0.0000 C   0  0  0  0  0  0  0  0  0  0  0  0
    4.3310  -18.4210    0.0000 C   0  0  0  0  0  0  0  0  0  0  0  0
    3.6297  -18.0014    0.0000 C   0  0  0  0  0  0  0  0  0  0  0  0
    0.0852  -18.3547    0.0000 C   0  0  0  0  0  0  0  0  0  0  0  0
    4.3464  -14.2429    0.0000 N   0  0  0  0  0  0  0  0  0  0  0  0
    4.3349  -13.4257    0.0000 O   0  0  0  0  0  0  0  0  0  0  0  0
    5.0598  -14.6414    0.0000 O   0  0  0  0  0  0  0  0  0  0  0  0
  1  2  2  0
  2  3  1  0
  3  4  2  0
  4  5  1  0
  5  6  2  0
  1  6  1  0
  8  9  2  0
  9 10  1  0
 10 11  2  0
 11 12  1  0
 12 13  2  0
  8 13  1  0
 14 15  2  0
 15 16  1  0
 16 17  2  0
 17 18  1  0
 18 19  2  0
 14 19  1  0
  8 14  1  0
 12 20  1  0
  7 10  1  0
  4  7  1  0
 21 22  2  0
 21 23  1  0
  1 21  1  0
M  CHG  2  21   1  23  -1
M  END
>  <Classification>  (1032) 
0

>  <pchembl>  (1032) 
4.95

>  <InChI_steorem>  (1032) 
InChI=1S/C17H14N4O2/c1-12-11-16(19-14-7-9-15(10-8-14)21(22)23)20-17(18-12)13-5-3-2-4-6-13/h2-11H,1H3,(H,18,19,20)

>  <source>  (1032) 
ChEMBL30

>  <source_id>  (1032) 
30

>  <optional_reference>  (1032) 
10.1021/acs.jmedchem.0c00961

>  <optional_origin>  (1032) 
None

>  <target>  (1032) 
MDR1

$$$$

     RDKit          2D

 23 25  0  0  0  0  0  0  0  0999 V2000
    8.7145   -8.2955    0.0000 C   0  0  0  0  0  0  0  0  0  0  0  0
    7.9999   -7.8967    0.0000 C   0  0  0  0  0  0  0  0  0  0  0  0
    7.2986   -8.3161    0.0000 C   0  0  0  0  0  0  0  0  0  0  0  0
    7.3118   -9.1344    0.0000 C   0  0  0  0  0  0  0  0  0  0  0  0
    8.0243   -9.5297    0.0000 C   0  0  0  0  0  0  0  0  0  0  0  0
    8.7257   -9.1103    0.0000 C   0  0  0  0  0  0  0  0  0  0  0  0
    6.6105   -9.5539    0.0000 N   0  0  0  0  0  0  0  0  0  0  0  0
    7.2882  -11.6086    0.0000 C   0  0  0  0  0  0  0  0  0  0  0  0
    7.2996  -10.7939    0.0000 N   0  0  0  0  0  0  0  0  0  0  0  0
    6.5984  -10.3743    0.0000 C   0  0  0  0  0  0  0  0  0  0  0  0
    5.8858  -10.7694    0.0000 C   0  0  0  0  0  0  0  0  0  0  0  0
    5.8723  -11.5877    0.0000 C   0  0  0  0  0  0  0  0  0  0  0  0
    6.5735  -12.0073    0.0000 N   0  0  0  0  0  0  0  0  0  0  0  0
    7.9895  -12.0282    0.0000 C   0  0  0  0  0  0  0  0  0  0  0  0
    7.9760  -12.8465    0.0000 C   0  0  0  0  0  0  0  0  0  0  0  0
    8.6772  -13.2661    0.0000 C   0  0  0  0  0  0  0  0  0  0  0  0
    9.3920  -12.8674    0.0000 C   0  0  0  0  0  0  0  0  0  0  0  0
    9.4033  -12.0527    0.0000 C   0  0  0  0  0  0  0  0  0  0  0  0
    8.7021  -11.6331    0.0000 C   0  0  0  0  0  0  0  0  0  0  0  0
    5.1576  -11.9864    0.0000 C   0  0  0  0  0  0  0  0  0  0  0  0
    9.4393   -9.5085    0.0000 O   0  0  0  0  0  0  0  0  0  0  0  0
    9.4511  -10.3256    0.0000 C   0  0  0  0  0  0  0  0  0  0  0  0
    9.4164   -7.8770    0.0000 Br  0  0  0  0  0  0  0  0  0  0  0  0
  1  2  2  0
  2  3  1  0
  3  4  2  0
  4  5  1  0
  5  6  2  0
  1  6  1  0
  8  9  2  0
  9 10  1  0
 10 11  2  0
 11 12  1  0
 12 13  2  0
  8 13  1  0
 14 15  2  0
 15 16  1  0
 16 17  2  0
 17 18  1  0
 18 19  2  0
 14 19  1  0
  8 14  1  0
 12 20  1  0
  7 10  1  0
  4  7  1  0
  6 21  1  0
 21 22  1  0
  1 23  1  0
M  END
>  <Classification>  (1033) 
1

>  <pchembl>  (1033) 
5.3

>  <InChI_steorem>  (1033) 
InChI=1S/C18H16BrN3O/c1-12-10-17(21-14-8-9-15(19)16(11-14)23-2)22-18(20-12)13-6-4-3-5-7-13/h3-11H,1-2H3,(H,20,21,22)

>  <source>  (1033) 
ChEMBL30

>  <source_id>  (1033) 
30

>  <optional_reference>  (1033) 
10.1021/acs.jmedchem.0c00961

>  <optional_origin>  (1033) 
None

>  <target>  (1033) 
MDR1

$$$$

     RDKit          2D

 23 26  0  0  0  0  0  0  0  0999 V2000
   13.4599   -9.3192    0.0000 S   0  0  0  0  0  0  0  0  0  0  0  0
    9.2133   -6.1134    0.0000 C   0  0  0  0  0  0  0  0  0  0  0  0
   11.3805   -8.9413    0.0000 N   0  0  0  0  0  0  0  0  0  0  0  0
    7.7995   -6.1332    0.0000 F   0  0  0  0  0  0  0  0  0  0  0  0
    9.9626   -8.9611    0.0000 C   0  0  0  0  0  0  0  0  0  0  0  0
   12.1737   -9.9994    0.0000 N   0  0  0  0  0  0  0  0  0  0  0  0
   14.6974  -10.0085    0.0000 C   0  0  0  0  0  0  0  0  0  0  0  0
    9.9419   -7.3270    0.0000 C   0  0  0  0  0  0  0  0  0  0  0  0
    8.5240   -7.3509    0.0000 C   0  0  0  0  0  0  0  0  0  0  0  0
    9.9770   -9.7782    0.0000 C   0  0  0  0  0  0  0  0  0  0  0  0
    9.9275   -6.5099    0.0000 C   0  0  0  0  0  0  0  0  0  0  0  0
   12.1519   -8.6773    0.0000 N   0  0  0  0  0  0  0  0  0  0  0  0
    9.2732  -10.1986    0.0000 C   0  0  0  0  0  0  0  0  0  0  0  0
    9.2381   -7.7475    0.0000 C   0  0  0  0  0  0  0  0  0  0  0  0
   11.3908   -9.7583    0.0000 C   0  0  0  0  0  0  0  0  0  0  0  0
   10.6912  -10.1788    0.0000 N   0  0  0  0  0  0  0  0  0  0  0  0
   10.6664   -8.5447    0.0000 C   0  0  0  0  0  0  0  0  0  0  0  0
    8.5137   -6.5339    0.0000 C   0  0  0  0  0  0  0  0  0  0  0  0
   12.6428   -9.3295    0.0000 C   0  0  0  0  0  0  0  0  0  0  0  0
   10.6519   -7.7277    0.0000 N   0  0  0  0  0  0  0  0  0  0  0  0
   13.8804  -10.0188    0.0000 C   0  0  0  0  0  0  0  0  0  0  0  0
   15.4120  -10.4039    0.0000 C   0  0  0  0  0  0  0  0  0  0  0  0
   15.4017   -9.5869    0.0000 C   0  0  0  0  0  0  0  0  0  0  0  0
 17  3  1  0
 20  8  1  0
  5 17  2  0
  3 12  1  0
  9 14  1  0
  1 21  1  0
 17 20  1  0
 19  1  1  0
 12 19  2  0
 11  2  2  0
 15  6  2  0
  2 18  1  0
 18  9  2  0
 15  3  1  0
 18  4  1  0
  8 14  2  0
 21  7  1  0
 16 10  2  0
  8 11  1  0
 15 16  1  0
 10  5  1  0
 19  6  1  0
 10 13  1  0
 22  7  1  0
 23 22  1  0
  7 23  1  0
M  END
>  <Classification>  (1034) 
1

>  <pchembl>  (1034) 
5.39

>  <InChI_steorem>  (1034) 
InChI=1S/C16H16FN5S/c1-10-8-14(19-13-6-4-12(17)5-7-13)22-15(18-10)20-16(21-22)23-9-11-2-3-11/h4-8,11,19H,2-3,9H2,1H3

>  <source>  (1034) 
ChEMBL30

>  <source_id>  (1034) 
30

>  <optional_reference>  (1034) 
10.1021/acs.jmedchem.0c01741

>  <optional_origin>  (1034) 
None

>  <target>  (1034) 
MDR1

$$$$

     RDKit          2D

 24 27  0  0  0  0  0  0  0  0999 V2000
   14.2724  -22.4713    0.0000 C   0  0  0  0  0  0  0  0  0  0  0  0
   13.5669  -22.0636    0.0000 N   0  0  0  0  0  0  0  0  0  0  0  0
   13.5658  -21.2464    0.0000 C   0  0  0  0  0  0  0  0  0  0  0  0
   14.2744  -20.8369    0.0000 C   0  0  0  0  0  0  0  0  0  0  0  0
   14.9799  -21.2445    0.0000 C   0  0  0  0  0  0  0  0  0  0  0  0
   14.9810  -22.0617    0.0000 N   0  0  0  0  0  0  0  0  0  0  0  0
   12.8603  -20.8346    0.0000 N   0  0  0  0  0  0  0  0  0  0  0  0
   14.2735  -23.2885    0.0000 C   0  0  0  0  0  0  0  0  0  0  0  0
   14.9831  -23.6961    0.0000 C   0  0  0  0  0  0  0  0  0  0  0  0
   14.9842  -24.5133    0.0000 C   0  0  0  0  0  0  0  0  0  0  0  0
   14.2756  -24.9228    0.0000 C   0  0  0  0  0  0  0  0  0  0  0  0
   13.5701  -24.5152    0.0000 C   0  0  0  0  0  0  0  0  0  0  0  0
   13.5691  -23.6980    0.0000 C   0  0  0  0  0  0  0  0  0  0  0  0
   15.6884  -20.8350    0.0000 C   0  0  0  0  0  0  0  0  0  0  0  0
   12.8560  -17.5658    0.0000 O   0  0  0  0  0  0  0  0  0  0  0  0
   12.8571  -18.3830    0.0000 C   0  0  0  0  0  0  0  0  0  0  0  0
   13.5626  -18.7907    0.0000 C   0  0  0  0  0  0  0  0  0  0  0  0
   14.2712  -18.3812    0.0000 O   0  0  0  0  0  0  0  0  0  0  0  0
   14.2701  -17.5640    0.0000 C   0  0  0  0  0  0  0  0  0  0  0  0
   13.5646  -17.1563    0.0000 C   0  0  0  0  0  0  0  0  0  0  0  0
   13.5637  -19.6079    0.0000 C   0  0  0  0  0  0  0  0  0  0  0  0
   12.8593  -20.0174    0.0000 C   0  0  0  0  0  0  0  0  0  0  0  0
   12.1496  -19.6098    0.0000 C   0  0  0  0  0  0  0  0  0  0  0  0
   12.1486  -18.7926    0.0000 C   0  0  0  0  0  0  0  0  0  0  0  0
  1  2  2  0
  2  3  1  0
  3  4  2  0
  4  5  1  0
  5  6  2  0
  1  6  1  0
  3  7  1  0
  8  9  2  0
  9 10  1  0
 10 11  2  0
 11 12  1  0
 12 13  2  0
  8 13  1  0
  1  8  1  0
  5 14  1  0
 15 16  1  0
 16 17  2  0
 17 18  1  0
 18 19  1  0
 19 20  1  0
 15 20  1  0
 21 22  2  0
 22 23  1  0
 23 24  2  0
 16 24  1  0
 17 21  1  0
  7 22  1  0
M  END
>  <Classification>  (1035) 
0

>  <pchembl>  (1035) 
4.88

>  <InChI_steorem>  (1035) 
InChI=1S/C19H17N3O2/c1-13-11-18(22-19(20-13)14-5-3-2-4-6-14)21-15-7-8-16-17(12-15)24-10-9-23-16/h2-8,11-12H,9-10H2,1H3,(H,20,21,22)

>  <source>  (1035) 
ChEMBL30

>  <source_id>  (1035) 
30

>  <optional_reference>  (1035) 
10.1021/acs.jmedchem.0c00961

>  <optional_origin>  (1035) 
None

>  <target>  (1035) 
MDR1

$$$$

     RDKit          2D

 24 27  0  0  0  0  0  0  0  0999 V2000
    6.6402  -16.5025    0.0000 N   0  0  0  0  0  0  0  0  0  0  0  0
    6.6377  -15.6853    0.0000 C   0  0  0  0  0  0  0  0  0  0  0  0
    5.9335  -15.2753    0.0000 C   0  0  0  0  0  0  0  0  0  0  0  0
    5.2236  -15.6825    0.0000 C   0  0  0  0  0  0  0  0  0  0  0  0
    5.2220  -16.4997    0.0000 C   0  0  0  0  0  0  0  0  0  0  0  0
    4.5162  -16.9069    0.0000 C   0  0  0  0  0  0  0  0  0  0  0  0
    4.5146  -17.7241    0.0000 C   0  0  0  0  0  0  0  0  0  0  0  0
    5.2228  -18.1341    0.0000 C   0  0  0  0  0  0  0  0  0  0  0  0
    5.9286  -17.7269    0.0000 C   0  0  0  0  0  0  0  0  0  0  0  0
    5.9302  -16.9097    0.0000 C   0  0  0  0  0  0  0  0  0  0  0  0
    3.8047  -18.1312    0.0000 N   0  0  0  0  0  0  0  0  0  0  0  0
    3.0956  -20.1728    0.0000 C   0  0  0  0  0  0  0  0  0  0  0  0
    3.0972  -19.3556    0.0000 N   0  0  0  0  0  0  0  0  0  0  0  0
    3.8030  -18.9484    0.0000 C   0  0  0  0  0  0  0  0  0  0  0  0
    4.5113  -19.3584    0.0000 C   0  0  0  0  0  0  0  0  0  0  0  0
    4.5096  -20.1756    0.0000 C   0  0  0  0  0  0  0  0  0  0  0  0
    3.8039  -20.5828    0.0000 N   0  0  0  0  0  0  0  0  0  0  0  0
    2.3857  -20.5800    0.0000 C   0  0  0  0  0  0  0  0  0  0  0  0
    2.3841  -21.3972    0.0000 C   0  0  0  0  0  0  0  0  0  0  0  0
    1.6783  -21.8043    0.0000 C   0  0  0  0  0  0  0  0  0  0  0  0
    0.9700  -21.3985    0.0000 C   0  0  0  0  0  0  0  0  0  0  0  0
    0.9716  -20.5813    0.0000 C   0  0  0  0  0  0  0  0  0  0  0  0
    1.6815  -20.1700    0.0000 C   0  0  0  0  0  0  0  0  0  0  0  0
    5.2179  -20.5856    0.0000 C   0  0  0  0  0  0  0  0  0  0  0  0
  1  2  2  0
  2  3  1  0
  3  4  2  0
  4  5  1  0
  5  6  2  0
  6  7  1  0
  7  8  2  0
  8  9  1  0
  9 10  2  0
  1 10  1  0
  5 10  1  0
  7 11  1  0
 12 13  2  0
 13 14  1  0
 14 15  2  0
 15 16  1  0
 16 17  2  0
 12 17  1  0
 18 19  2  0
 19 20  1  0
 20 21  2  0
 21 22  1  0
 22 23  2  0
 18 23  1  0
 12 18  1  0
 16 24  1  0
 11 14  1  0
M  END
>  <Classification>  (1036) 
1

>  <pchembl>  (1036) 
5.29

>  <InChI_steorem>  (1036) 
InChI=1S/C20H16N4/c1-14-12-19(24-20(22-14)15-6-3-2-4-7-15)23-17-9-10-18-16(13-17)8-5-11-21-18/h2-13H,1H3,(H,22,23,24)

>  <source>  (1036) 
ChEMBL30

>  <source_id>  (1036) 
30

>  <optional_reference>  (1036) 
10.1021/acs.jmedchem.0c00961

>  <optional_origin>  (1036) 
None

>  <target>  (1036) 
MDR1

$$$$

     RDKit          2D

 24 27  0  0  0  0  0  0  0  0999 V2000
    9.6435  -16.8512    0.0000 N   0  0  0  0  0  0  0  0  0  0  0  0
   10.3531  -16.4394    0.0000 C   0  0  0  0  0  0  0  0  0  0  0  0
   11.0575  -16.8488    0.0000 C   0  0  0  0  0  0  0  0  0  0  0  0
   11.0607  -17.6660    0.0000 N   0  0  0  0  0  0  0  0  0  0  0  0
   10.3511  -18.0737    0.0000 C   0  0  0  0  0  0  0  0  0  0  0  0
   10.3501  -18.8909    0.0000 C   0  0  0  0  0  0  0  0  0  0  0  0
    9.6447  -19.3028    0.0000 C   0  0  0  0  0  0  0  0  0  0  0  0
    8.9361  -18.8934    0.0000 C   0  0  0  0  0  0  0  0  0  0  0  0
    8.9370  -18.0762    0.0000 C   0  0  0  0  0  0  0  0  0  0  0  0
    9.6425  -17.6684    0.0000 C   0  0  0  0  0  0  0  0  0  0  0  0
    9.6437  -20.1200    0.0000 N   0  0  0  0  0  0  0  0  0  0  0  0
   11.0558  -21.7561    0.0000 C   0  0  0  0  0  0  0  0  0  0  0  0
   10.3472  -21.3466    0.0000 N   0  0  0  0  0  0  0  0  0  0  0  0
   10.3481  -20.5294    0.0000 C   0  0  0  0  0  0  0  0  0  0  0  0
   11.0577  -20.1217    0.0000 C   0  0  0  0  0  0  0  0  0  0  0  0
   11.7663  -20.5311    0.0000 C   0  0  0  0  0  0  0  0  0  0  0  0
   11.7653  -21.3483    0.0000 N   0  0  0  0  0  0  0  0  0  0  0  0
   11.0548  -22.5733    0.0000 C   0  0  0  0  0  0  0  0  0  0  0  0
   11.7634  -22.9827    0.0000 C   0  0  0  0  0  0  0  0  0  0  0  0
   11.7624  -23.7999    0.0000 C   0  0  0  0  0  0  0  0  0  0  0  0
   11.0528  -24.2077    0.0000 C   0  0  0  0  0  0  0  0  0  0  0  0
   10.3483  -23.7982    0.0000 C   0  0  0  0  0  0  0  0  0  0  0  0
   10.3493  -22.9810    0.0000 C   0  0  0  0  0  0  0  0  0  0  0  0
   12.4718  -20.1234    0.0000 C   0  0  0  0  0  0  0  0  0  0  0  0
  1  2  2  0
  2  3  1  0
  3  4  2  0
  4  5  1  0
  5  6  2  0
  6  7  1  0
  7  8  2  0
  8  9  1  0
  9 10  2  0
  1 10  1  0
  5 10  1  0
  7 11  1  0
 12 13  2  0
 13 14  1  0
 14 15  2  0
 15 16  1  0
 16 17  2  0
 12 17  1  0
 18 19  2  0
 19 20  1  0
 20 21  2  0
 21 22  1  0
 22 23  2  0
 18 23  1  0
 12 18  1  0
 16 24  1  0
 11 14  1  0
M  END
>  <Classification>  (1037) 
0

>  <pchembl>  (1037) 
4.87

>  <InChI_steorem>  (1037) 
InChI=1S/C19H15N5/c1-13-11-18(24-19(22-13)14-5-3-2-4-6-14)23-15-7-8-16-17(12-15)21-10-9-20-16/h2-12H,1H3,(H,22,23,24)

>  <source>  (1037) 
ChEMBL30

>  <source_id>  (1037) 
30

>  <optional_reference>  (1037) 
10.1021/acs.jmedchem.0c00961

>  <optional_origin>  (1037) 
None

>  <target>  (1037) 
MDR1

$$$$

     RDKit          2D

 25 27  0  0  0  0  0  0  0  0999 V2000
   32.4995   -4.2835    0.0000 C   0  0  0  0  0  0  0  0  0  0  0  0
   32.4982   -5.1108    0.0000 C   0  0  0  0  0  0  0  0  0  0  0  0
   33.2131   -5.5237    0.0000 C   0  0  0  0  0  0  0  0  0  0  0  0
   33.9295   -5.1103    0.0000 C   0  0  0  0  0  0  0  0  0  0  0  0
   33.9267   -4.2798    0.0000 C   0  0  0  0  0  0  0  0  0  0  0  0
   33.2113   -3.8706    0.0000 C   0  0  0  0  0  0  0  0  0  0  0  0
   31.7835   -5.5227    0.0000 N   0  0  0  0  0  0  0  0  0  0  0  0
   31.7828   -6.3477    0.0000 C   0  0  0  0  0  0  0  0  0  0  0  0
   31.0679   -6.7581    0.0000 C   0  0  0  0  0  0  0  0  0  0  0  0
   31.0669   -7.5824    0.0000 C   0  0  0  0  0  0  0  0  0  0  0  0
   31.7815   -7.9963    0.0000 N   0  0  0  0  0  0  0  0  0  0  0  0
   32.4987   -7.5799    0.0000 C   0  0  0  0  0  0  0  0  0  0  0  0
   32.4962   -6.7570    0.0000 N   0  0  0  0  0  0  0  0  0  0  0  0
   33.2119   -7.9877    0.0000 C   0  0  0  0  0  0  0  0  0  0  0  0
   33.2128   -8.8139    0.0000 C   0  0  0  0  0  0  0  0  0  0  0  0
   33.9276   -9.2242    0.0000 C   0  0  0  0  0  0  0  0  0  0  0  0
   34.6420   -8.8098    0.0000 C   0  0  0  0  0  0  0  0  0  0  0  0
   34.6370   -7.9805    0.0000 C   0  0  0  0  0  0  0  0  0  0  0  0
   33.9217   -7.5738    0.0000 C   0  0  0  0  0  0  0  0  0  0  0  0
   34.6373   -3.8634    0.0000 C   0  0  0  0  0  0  0  0  0  0  0  0
   35.3503   -3.4481    0.0000 N   0  0  0  0  0  0  0  0  0  0  0  0
   30.3519   -7.9940    0.0000 N   0  0  0  0  0  0  0  0  0  0  0  0
   29.6379   -7.5805    0.0000 C   0  0  0  0  0  0  0  0  0  0  0  0
   29.6389   -6.7555    0.0000 C   0  0  0  0  0  0  0  0  0  0  0  0
   28.9229   -7.9922    0.0000 C   0  0  0  0  0  0  0  0  0  0  0  0
  1  2  2  0
  2  3  1  0
  3  4  2  0
  4  5  1  0
  5  6  2  0
  6  1  1  0
  2  7  1  0
  7  8  1  0
  8  9  2  0
  9 10  1  0
 10 11  2  0
 11 12  1  0
 12 13  2  0
 13  8  1  0
 14 15  2  0
 15 16  1  0
 16 17  2  0
 17 18  1  0
 18 19  2  0
 19 14  1  0
 12 14  1  0
 20 21  3  0
  5 20  1  0
 10 22  1  0
 22 23  1  0
 23 24  1  0
 23 25  1  0
M  END
>  <Classification>  (1038) 
1

>  <pchembl>  (1038) 
5.19

>  <InChI_steorem>  (1038) 
InChI=1S/C20H19N5/c1-14(2)22-18-12-19(23-17-10-8-15(13-21)9-11-17)25-20(24-18)16-6-4-3-5-7-16/h3-12,14H,1-2H3,(H2,22,23,24,25)

>  <source>  (1038) 
ChEMBL30

>  <source_id>  (1038) 
30

>  <optional_reference>  (1038) 
10.1016/j.ejmech.2020.113045

>  <optional_origin>  (1038) 
None

>  <target>  (1038) 
MDR1

$$$$

     RDKit          2D

 25 27  0  0  0  0  0  0  0  0999 V2000
   41.5522   -4.6790    0.0000 C   0  0  0  0  0  0  0  0  0  0  0  0
   41.5511   -5.5065    0.0000 C   0  0  0  0  0  0  0  0  0  0  0  0
   42.2659   -5.9193    0.0000 C   0  0  0  0  0  0  0  0  0  0  0  0
   42.9824   -5.5060    0.0000 C   0  0  0  0  0  0  0  0  0  0  0  0
   42.9795   -4.6754    0.0000 C   0  0  0  0  0  0  0  0  0  0  0  0
   42.2641   -4.2663    0.0000 C   0  0  0  0  0  0  0  0  0  0  0  0
   40.8364   -5.9184    0.0000 N   0  0  0  0  0  0  0  0  0  0  0  0
   40.8357   -6.7434    0.0000 C   0  0  0  0  0  0  0  0  0  0  0  0
   40.1208   -7.1537    0.0000 C   0  0  0  0  0  0  0  0  0  0  0  0
   40.1198   -7.9779    0.0000 C   0  0  0  0  0  0  0  0  0  0  0  0
   40.8345   -8.3918    0.0000 N   0  0  0  0  0  0  0  0  0  0  0  0
   41.5516   -7.9755    0.0000 C   0  0  0  0  0  0  0  0  0  0  0  0
   41.5491   -7.1526    0.0000 N   0  0  0  0  0  0  0  0  0  0  0  0
   42.2648   -8.3833    0.0000 C   0  0  0  0  0  0  0  0  0  0  0  0
   42.2657   -9.2094    0.0000 C   0  0  0  0  0  0  0  0  0  0  0  0
   42.9804   -9.6197    0.0000 C   0  0  0  0  0  0  0  0  0  0  0  0
   43.6947   -9.2052    0.0000 C   0  0  0  0  0  0  0  0  0  0  0  0
   43.6899   -8.3760    0.0000 C   0  0  0  0  0  0  0  0  0  0  0  0
   42.9745   -7.9693    0.0000 C   0  0  0  0  0  0  0  0  0  0  0  0
   43.6902   -4.2591    0.0000 C   0  0  0  0  0  0  0  0  0  0  0  0
   44.4031   -3.8438    0.0000 N   0  0  0  0  0  0  0  0  0  0  0  0
   39.4047   -8.3895    0.0000 N   0  0  0  0  0  0  0  0  0  0  0  0
   38.6909   -7.9761    0.0000 C   0  0  0  0  0  0  0  0  0  0  0  0
   37.9758   -8.3877    0.0000 C   0  0  0  0  0  0  0  0  0  0  0  0
   37.9748   -9.2127    0.0000 C   0  0  0  0  0  0  0  0  0  0  0  0
  1  2  2  0
  2  3  1  0
  3  4  2  0
  4  5  1  0
  5  6  2  0
  6  1  1  0
  2  7  1  0
  7  8  1  0
  8  9  2  0
  9 10  1  0
 10 11  2  0
 11 12  1  0
 12 13  2  0
 13  8  1  0
 14 15  2  0
 15 16  1  0
 16 17  2  0
 17 18  1  0
 18 19  2  0
 19 14  1  0
 12 14  1  0
 20 21  3  0
  5 20  1  0
 10 22  1  0
 22 23  1  0
 23 24  1  0
 24 25  1  0
M  END
>  <Classification>  (1039) 
1

>  <pchembl>  (1039) 
5.23

>  <InChI_steorem>  (1039) 
InChI=1S/C20H19N5/c1-2-12-22-18-13-19(23-17-10-8-15(14-21)9-11-17)25-20(24-18)16-6-4-3-5-7-16/h3-11,13H,2,12H2,1H3,(H2,22,23,24,25)

>  <source>  (1039) 
ChEMBL30

>  <source_id>  (1039) 
30

>  <optional_reference>  (1039) 
10.1016/j.ejmech.2020.113045

>  <optional_origin>  (1039) 
None

>  <target>  (1039) 
MDR1

$$$$

     RDKit          2D

 25 28  0  0  0  0  0  0  0  0999 V2000
   21.6077  -21.8905    0.0000 C   0  0  0  0  0  0  0  0  0  0  0  0
   22.0878  -22.5538    0.0000 N   0  0  0  0  0  0  0  0  0  0  0  0
   21.6077  -23.2129    0.0000 C   0  0  0  0  0  0  0  0  0  0  0  0
   20.8304  -22.9624    0.0000 C   0  0  0  0  0  0  0  0  0  0  0  0
   20.1214  -23.3710    0.0000 C   0  0  0  0  0  0  0  0  0  0  0  0
   19.4164  -22.9624    0.0000 C   0  0  0  0  0  0  0  0  0  0  0  0
   19.4164  -22.1452    0.0000 C   0  0  0  0  0  0  0  0  0  0  0  0
   20.1214  -21.7366    0.0000 C   0  0  0  0  0  0  0  0  0  0  0  0
   20.8304  -22.1452    0.0000 C   0  0  0  0  0  0  0  0  0  0  0  0
   21.8582  -21.1133    0.0000 O   0  0  0  0  0  0  0  0  0  0  0  0
   21.8582  -23.9901    0.0000 O   0  0  0  0  0  0  0  0  0  0  0  0
   18.7073  -23.3710    0.0000 N   0  0  0  0  0  0  0  0  0  0  0  0
   17.2891  -21.7366    0.0000 C   0  0  0  0  0  0  0  0  0  0  0  0
   17.9982  -22.1452    0.0000 N   0  0  0  0  0  0  0  0  0  0  0  0
   17.9982  -22.9624    0.0000 C   0  0  0  0  0  0  0  0  0  0  0  0
   17.2891  -23.3710    0.0000 C   0  0  0  0  0  0  0  0  0  0  0  0
   16.5842  -22.9624    0.0000 C   0  0  0  0  0  0  0  0  0  0  0  0
   16.5842  -22.1452    0.0000 N   0  0  0  0  0  0  0  0  0  0  0  0
   17.2891  -20.9194    0.0000 C   0  0  0  0  0  0  0  0  0  0  0  0
   16.5842  -20.5067    0.0000 C   0  0  0  0  0  0  0  0  0  0  0  0
   16.5842  -19.6895    0.0000 C   0  0  0  0  0  0  0  0  0  0  0  0
   17.2891  -19.2809    0.0000 C   0  0  0  0  0  0  0  0  0  0  0  0
   17.9982  -19.6895    0.0000 C   0  0  0  0  0  0  0  0  0  0  0  0
   17.9982  -20.5067    0.0000 C   0  0  0  0  0  0  0  0  0  0  0  0
   15.8751  -23.3710    0.0000 C   0  0  0  0  0  0  0  0  0  0  0  0
  1  2  1  0
  2  3  1  0
  3  4  1  0
  4  5  2  0
  5  6  1  0
  6  7  2  0
  7  8  1  0
  8  9  2  0
  1  9  1  0
  4  9  1  0
  1 10  2  0
  3 11  2  0
 13 14  2  0
 14 15  1  0
 15 16  2  0
 16 17  1  0
 17 18  2  0
 13 18  1  0
 19 20  2  0
 20 21  1  0
 21 22  2  0
 22 23  1  0
 23 24  2  0
 19 24  1  0
 13 19  1  0
 17 25  1  0
 12 15  1  0
  6 12  1  0
M  END
>  <Classification>  (1040) 
0

>  <pchembl>  (1040) 
4.75

>  <InChI_steorem>  (1040) 
InChI=1S/C19H14N4O2/c1-11-9-16(22-17(20-11)12-5-3-2-4-6-12)21-13-7-8-14-15(10-13)19(25)23-18(14)24/h2-10H,1H3,(H,20,21,22)(H,23,24,25)

>  <source>  (1040) 
ChEMBL30

>  <source_id>  (1040) 
30

>  <optional_reference>  (1040) 
10.1021/acs.jmedchem.0c00961

>  <optional_origin>  (1040) 
None

>  <target>  (1040) 
MDR1

$$$$

     RDKit          2D

 26 28  0  0  0  0  0  0  0  0999 V2000
   19.5754   -8.8034    0.0000 F   0  0  0  0  0  0  0  0  0  0  0  0
   18.9976   -9.3853    0.0000 C   0  0  0  0  0  0  0  0  0  0  0  0
   19.7905   -9.5947    0.0000 F   0  0  0  0  0  0  0  0  0  0  0  0
   18.2732   -8.1758    0.0000 C   0  0  0  0  0  0  0  0  0  0  0  0
   17.5586   -7.7770    0.0000 C   0  0  0  0  0  0  0  0  0  0  0  0
   16.8572   -8.1964    0.0000 C   0  0  0  0  0  0  0  0  0  0  0  0
   16.8705   -9.0147    0.0000 C   0  0  0  0  0  0  0  0  0  0  0  0
   17.5830   -9.4100    0.0000 C   0  0  0  0  0  0  0  0  0  0  0  0
   18.2843   -8.9906    0.0000 C   0  0  0  0  0  0  0  0  0  0  0  0
   16.1692   -9.4342    0.0000 N   0  0  0  0  0  0  0  0  0  0  0  0
   16.8469  -11.4889    0.0000 C   0  0  0  0  0  0  0  0  0  0  0  0
   16.8583  -10.6742    0.0000 N   0  0  0  0  0  0  0  0  0  0  0  0
   16.1570  -10.2546    0.0000 C   0  0  0  0  0  0  0  0  0  0  0  0
   15.4444  -10.6497    0.0000 C   0  0  0  0  0  0  0  0  0  0  0  0
   15.4310  -11.4680    0.0000 C   0  0  0  0  0  0  0  0  0  0  0  0
   16.1322  -11.8876    0.0000 N   0  0  0  0  0  0  0  0  0  0  0  0
   17.5481  -11.9085    0.0000 C   0  0  0  0  0  0  0  0  0  0  0  0
   17.5347  -12.7268    0.0000 C   0  0  0  0  0  0  0  0  0  0  0  0
   18.2359  -13.1464    0.0000 C   0  0  0  0  0  0  0  0  0  0  0  0
   18.9506  -12.7478    0.0000 C   0  0  0  0  0  0  0  0  0  0  0  0
   18.9620  -11.9330    0.0000 C   0  0  0  0  0  0  0  0  0  0  0  0
   18.2607  -11.5134    0.0000 C   0  0  0  0  0  0  0  0  0  0  0  0
   14.7162  -11.8667    0.0000 C   0  0  0  0  0  0  0  0  0  0  0  0
   19.0098  -10.2059    0.0000 F   0  0  0  0  0  0  0  0  0  0  0  0
   18.9750   -7.7573    0.0000 O   0  0  0  0  0  0  0  0  0  0  0  0
   19.6885   -8.1559    0.0000 C   0  0  0  0  0  0  0  0  0  0  0  0
  2  1  1  0
  3  2  1  0
  4  5  2  0
  5  6  1  0
  6  7  2  0
  7  8  1  0
  8  9  2  0
  4  9  1  0
 11 12  2  0
 12 13  1  0
 13 14  2  0
 14 15  1  0
 15 16  2  0
 11 16  1  0
 17 18  2  0
 18 19  1  0
 19 20  2  0
 20 21  1  0
 21 22  2  0
 17 22  1  0
 11 17  1  0
 15 23  1  0
 10 13  1  0
  7 10  1  0
  9  2  1  0
  2 24  1  0
  4 25  1  0
 25 26  1  0
M  END
>  <Classification>  (1041) 
1

>  <pchembl>  (1041) 
5.14

>  <InChI_steorem>  (1041) 
InChI=1S/C19H16F3N3O/c1-12-10-17(25-18(23-12)13-6-4-3-5-7-13)24-14-8-9-16(26-2)15(11-14)19(20,21)22/h3-11H,1-2H3,(H,23,24,25)

>  <source>  (1041) 
ChEMBL30

>  <source_id>  (1041) 
30

>  <optional_reference>  (1041) 
10.1021/acs.jmedchem.0c00961

>  <optional_origin>  (1041) 
None

>  <target>  (1041) 
MDR1

$$$$

     RDKit          2D

 26 28  0  0  0  0  0  0  0  0999 V2000
    6.0446  -13.0503    0.0000 C   0  0  0  0  0  0  0  0  0  0  0  0
    6.0434  -13.8777    0.0000 C   0  0  0  0  0  0  0  0  0  0  0  0
    6.7582  -14.2905    0.0000 C   0  0  0  0  0  0  0  0  0  0  0  0
    7.4747  -13.8772    0.0000 C   0  0  0  0  0  0  0  0  0  0  0  0
    7.4718  -13.0466    0.0000 C   0  0  0  0  0  0  0  0  0  0  0  0
    6.7564  -12.6375    0.0000 C   0  0  0  0  0  0  0  0  0  0  0  0
    5.3286  -14.2896    0.0000 N   0  0  0  0  0  0  0  0  0  0  0  0
    5.3280  -15.1147    0.0000 C   0  0  0  0  0  0  0  0  0  0  0  0
    4.6130  -15.5251    0.0000 C   0  0  0  0  0  0  0  0  0  0  0  0
    4.6120  -16.3493    0.0000 C   0  0  0  0  0  0  0  0  0  0  0  0
    5.3268  -16.7632    0.0000 N   0  0  0  0  0  0  0  0  0  0  0  0
    6.0439  -16.3468    0.0000 C   0  0  0  0  0  0  0  0  0  0  0  0
    6.0413  -15.5239    0.0000 N   0  0  0  0  0  0  0  0  0  0  0  0
    6.7570  -16.7546    0.0000 C   0  0  0  0  0  0  0  0  0  0  0  0
    6.7579  -17.5808    0.0000 C   0  0  0  0  0  0  0  0  0  0  0  0
    7.4727  -17.9912    0.0000 C   0  0  0  0  0  0  0  0  0  0  0  0
    8.1871  -17.5766    0.0000 C   0  0  0  0  0  0  0  0  0  0  0  0
    8.1822  -16.7474    0.0000 C   0  0  0  0  0  0  0  0  0  0  0  0
    7.4669  -16.3407    0.0000 C   0  0  0  0  0  0  0  0  0  0  0  0
    8.1826  -12.6303    0.0000 C   0  0  0  0  0  0  0  0  0  0  0  0
    8.8954  -12.2150    0.0000 N   0  0  0  0  0  0  0  0  0  0  0  0
    3.8970  -16.7609    0.0000 N   0  0  0  0  0  0  0  0  0  0  0  0
    3.1830  -16.3475    0.0000 C   0  0  0  0  0  0  0  0  0  0  0  0
    2.4680  -16.7591    0.0000 C   0  0  0  0  0  0  0  0  0  0  0  0
    1.7540  -16.3456    0.0000 C   0  0  0  0  0  0  0  0  0  0  0  0
    1.0391  -16.7572    0.0000 C   0  0  0  0  0  0  0  0  0  0  0  0
  1  2  2  0
  2  3  1  0
  3  4  2  0
  4  5  1  0
  5  6  2  0
  6  1  1  0
  2  7  1  0
  7  8  1  0
  8  9  2  0
  9 10  1  0
 10 11  2  0
 11 12  1  0
 12 13  2  0
 13  8  1  0
 14 15  2  0
 15 16  1  0
 16 17  2  0
 17 18  1  0
 18 19  2  0
 19 14  1  0
 12 14  1  0
 20 21  3  0
  5 20  1  0
 10 22  1  0
 22 23  1  0
 23 24  1  0
 24 25  1  0
 25 26  1  0
M  END
>  <Classification>  (1042) 
1

>  <pchembl>  (1042) 
5.18

>  <InChI_steorem>  (1042) 
InChI=1S/C21H21N5/c1-2-3-13-23-19-14-20(24-18-11-9-16(15-22)10-12-18)26-21(25-19)17-7-5-4-6-8-17/h4-12,14H,2-3,13H2,1H3,(H2,23,24,25,26)

>  <source>  (1042) 
ChEMBL30

>  <source_id>  (1042) 
30

>  <optional_reference>  (1042) 
10.1016/j.ejmech.2020.113045

>  <optional_origin>  (1042) 
None

>  <target>  (1042) 
MDR1

$$$$

     RDKit          2D

 26 29  0  0  0  0  0  0  0  0999 V2000
    3.2550  -20.5963    0.0000 C   0  0  0  0  0  0  0  0  0  0  0  0
    2.5482  -21.0108    0.0000 C   0  0  0  0  0  0  0  0  0  0  0  0
    2.5569  -21.8334    0.0000 C   0  0  0  0  0  0  0  0  0  0  0  0
    3.2683  -22.2336    0.0000 N   0  0  0  0  0  0  0  0  0  0  0  0
    3.9659  -21.0003    0.0000 N   0  0  0  0  0  0  0  0  0  0  0  0
    3.9696  -21.8242    0.0000 C   0  0  0  0  0  0  0  0  0  0  0  0
    4.7543  -22.0753    0.0000 N   0  0  0  0  0  0  0  0  0  0  0  0
    5.2357  -21.4066    0.0000 C   0  0  0  0  0  0  0  0  0  0  0  0
    4.7484  -20.7423    0.0000 N   0  0  0  0  0  0  0  0  0  0  0  0
    6.0529  -21.4029    0.0000 S   0  0  0  0  0  0  0  0  0  0  0  0
    6.4583  -20.6933    0.0000 C   0  0  0  0  0  0  0  0  0  0  0  0
    7.2754  -20.6896    0.0000 C   0  0  0  0  0  0  0  0  0  0  0  0
    7.6842  -21.3939    0.0000 C   0  0  0  0  0  0  0  0  0  0  0  0
    8.5006  -21.3906    0.0000 C   0  0  0  0  0  0  0  0  0  0  0  0
    8.9068  -20.6805    0.0000 C   0  0  0  0  0  0  0  0  0  0  0  0
    8.4906  -19.9723    0.0000 C   0  0  0  0  0  0  0  0  0  0  0  0
    7.6755  -19.9792    0.0000 C   0  0  0  0  0  0  0  0  0  0  0  0
    1.8536  -22.2496    0.0000 C   0  0  0  0  0  0  0  0  0  0  0  0
    3.2494  -19.7792    0.0000 N   0  0  0  0  0  0  0  0  0  0  0  0
    3.9543  -19.3658    0.0000 C   0  0  0  0  0  0  0  0  0  0  0  0
    4.6635  -19.7725    0.0000 C   0  0  0  0  0  0  0  0  0  0  0  0
    5.3679  -19.3597    0.0000 C   0  0  0  0  0  0  0  0  0  0  0  0
    5.3628  -18.5417    0.0000 C   0  0  0  0  0  0  0  0  0  0  0  0
    4.6473  -18.1381    0.0000 C   0  0  0  0  0  0  0  0  0  0  0  0
    3.9458  -18.5532    0.0000 C   0  0  0  0  0  0  0  0  0  0  0  0
    6.0671  -18.1273    0.0000 F   0  0  0  0  0  0  0  0  0  0  0  0
  5  1  1  0
  1  2  2  0
  2  3  1  0
  3  4  2  0
  4  6  1  0
  5  6  1  0
  6  7  2  0
  7  8  1  0
  8  9  2  0
  9  5  1  0
  8 10  1  0
 10 11  1  0
 11 12  1  0
 12 13  2  0
 13 14  1  0
 14 15  2  0
 15 16  1  0
 16 17  2  0
 17 12  1  0
  3 18  1  0
  1 19  1  0
 19 20  1  0
 20 21  2  0
 21 22  1  0
 22 23  2  0
 23 24  1  0
 24 25  2  0
 25 20  1  0
 23 26  1  0
M  END
>  <Classification>  (1043) 
1

>  <pchembl>  (1043) 
5.98

>  <InChI_steorem>  (1043) 
InChI=1S/C19H16FN5S/c1-13-11-17(22-16-9-7-15(20)8-10-16)25-18(21-13)23-19(24-25)26-12-14-5-3-2-4-6-14/h2-11,22H,12H2,1H3

>  <source>  (1043) 
ChEMBL30

>  <source_id>  (1043) 
30

>  <optional_reference>  (1043) 
10.1021/acs.jmedchem.0c01741

>  <optional_origin>  (1043) 
None

>  <target>  (1043) 
MDR1

$$$$

     RDKit          2D

 27 30  0  0  0  0  0  0  0  0999 V2000
   10.5489   -7.9506    0.0000 C   0  0  0  0  0  0  0  0  0  0  0  0
    9.8492   -8.3711    0.0000 N   0  0  0  0  0  0  0  0  0  0  0  0
    9.1351   -7.9704    0.0000 C   0  0  0  0  0  0  0  0  0  0  0  0
    9.1206   -7.1534    0.0000 C   0  0  0  0  0  0  0  0  0  0  0  0
    9.8244   -6.7370    0.0000 C   0  0  0  0  0  0  0  0  0  0  0  0
   10.5386   -7.1336    0.0000 N   0  0  0  0  0  0  0  0  0  0  0  0
   11.3099   -6.8695    0.0000 N   0  0  0  0  0  0  0  0  0  0  0  0
   11.8009   -7.5218    0.0000 C   0  0  0  0  0  0  0  0  0  0  0  0
   11.3317   -8.1917    0.0000 N   0  0  0  0  0  0  0  0  0  0  0  0
    9.8100   -5.9200    0.0000 N   0  0  0  0  0  0  0  0  0  0  0  0
    8.4313   -8.3909    0.0000 C   0  0  0  0  0  0  0  0  0  0  0  0
    9.1000   -5.5193    0.0000 C   0  0  0  0  0  0  0  0  0  0  0  0
    9.0855   -4.7022    0.0000 C   0  0  0  0  0  0  0  0  0  0  0  0
    8.3714   -4.3057    0.0000 C   0  0  0  0  0  0  0  0  0  0  0  0
    7.6717   -4.7262    0.0000 C   0  0  0  0  0  0  0  0  0  0  0  0
    7.6820   -5.5432    0.0000 C   0  0  0  0  0  0  0  0  0  0  0  0
    8.3962   -5.9398    0.0000 C   0  0  0  0  0  0  0  0  0  0  0  0
    6.9576   -4.3255    0.0000 F   0  0  0  0  0  0  0  0  0  0  0  0
   12.6179   -7.5114    0.0000 S   0  0  0  0  0  0  0  0  0  0  0  0
   13.0384   -8.2111    0.0000 C   0  0  0  0  0  0  0  0  0  0  0  0
   13.8555   -8.2008    0.0000 C   0  0  0  0  0  0  0  0  0  0  0  0
   14.2551   -7.4880    0.0000 C   0  0  0  0  0  0  0  0  0  0  0  0
   15.0722   -7.4800    0.0000 C   0  0  0  0  0  0  0  0  0  0  0  0
   15.4717   -6.7681    0.0000 C   0  0  0  0  0  0  0  0  0  0  0  0
   15.0541   -6.0646    0.0000 C   0  0  0  0  0  0  0  0  0  0  0  0
   14.2328   -6.0776    0.0000 C   0  0  0  0  0  0  0  0  0  0  0  0
   13.8370   -6.7901    0.0000 C   0  0  0  0  0  0  0  0  0  0  0  0
  1  2  1  0
  2  3  2  0
  3  4  1  0
  4  5  2  0
  5  6  1  0
  1  6  1  0
  7  8  2  0
  8  9  1  0
  6  7  1  0
  1  9  2  0
  5 10  1  0
  3 11  1  0
 12 13  2  0
 13 14  1  0
 14 15  2  0
 15 16  1  0
 16 17  2  0
 12 17  1  0
 15 18  1  0
 10 12  1  0
 20 21  1  0
 19 20  1  0
  8 19  1  0
 21 22  1  0
 22 23  2  0
 23 24  1  0
 24 25  2  0
 25 26  1  0
 26 27  2  0
 27 22  1  0
M  END
>  <Classification>  (1044) 
1

>  <pchembl>  (1044) 
5.81

>  <InChI_steorem>  (1044) 
InChI=1S/C20H18FN5S/c1-14-13-18(23-17-9-7-16(21)8-10-17)26-19(22-14)24-20(25-26)27-12-11-15-5-3-2-4-6-15/h2-10,13,23H,11-12H2,1H3

>  <source>  (1044) 
ChEMBL30

>  <source_id>  (1044) 
30

>  <optional_reference>  (1044) 
10.1021/acs.jmedchem.0c01741

>  <optional_origin>  (1044) 
None

>  <target>  (1044) 
MDR1

$$$$

     RDKit          2D

 27 30  0  0  0  0  0  0  0  0999 V2000
   11.5931   -8.4748    0.0000 C   0  0  0  0  0  0  0  0  0  0  0  0
   10.8934   -8.8953    0.0000 N   0  0  0  0  0  0  0  0  0  0  0  0
   10.1793   -8.4946    0.0000 C   0  0  0  0  0  0  0  0  0  0  0  0
   10.1648   -7.6775    0.0000 C   0  0  0  0  0  0  0  0  0  0  0  0
   10.8686   -7.2612    0.0000 C   0  0  0  0  0  0  0  0  0  0  0  0
   11.5828   -7.6577    0.0000 N   0  0  0  0  0  0  0  0  0  0  0  0
   12.3541   -7.3937    0.0000 N   0  0  0  0  0  0  0  0  0  0  0  0
   12.8451   -8.0459    0.0000 C   0  0  0  0  0  0  0  0  0  0  0  0
   12.3759   -8.7159    0.0000 N   0  0  0  0  0  0  0  0  0  0  0  0
   10.8542   -6.4441    0.0000 N   0  0  0  0  0  0  0  0  0  0  0  0
    9.4755   -8.9151    0.0000 C   0  0  0  0  0  0  0  0  0  0  0  0
   10.1442   -6.0434    0.0000 C   0  0  0  0  0  0  0  0  0  0  0  0
   10.1297   -5.2264    0.0000 C   0  0  0  0  0  0  0  0  0  0  0  0
    9.4156   -4.8298    0.0000 C   0  0  0  0  0  0  0  0  0  0  0  0
    8.7159   -5.2503    0.0000 C   0  0  0  0  0  0  0  0  0  0  0  0
    8.7262   -6.0674    0.0000 C   0  0  0  0  0  0  0  0  0  0  0  0
    9.4404   -6.4639    0.0000 C   0  0  0  0  0  0  0  0  0  0  0  0
    8.0018   -4.8496    0.0000 F   0  0  0  0  0  0  0  0  0  0  0  0
   13.6621   -8.0356    0.0000 S   0  0  0  0  0  0  0  0  0  0  0  0
   14.0826   -8.7353    0.0000 C   0  0  0  0  0  0  0  0  0  0  0  0
   14.8997   -8.7249    0.0000 C   0  0  0  0  0  0  0  0  0  0  0  0
   15.3202   -9.4246    0.0000 C   0  0  0  0  0  0  0  0  0  0  0  0
   16.1372   -9.4143    0.0000 C   0  0  0  0  0  0  0  0  0  0  0  0
   16.5338   -8.7002    0.0000 C   0  0  0  0  0  0  0  0  0  0  0  0
   16.1133   -7.9963    0.0000 C   0  0  0  0  0  0  0  0  0  0  0  0
   15.2962   -8.0108    0.0000 C   0  0  0  0  0  0  0  0  0  0  0  0
   17.3509   -8.6872    0.0000 C   0  0  0  0  0  0  0  0  0  0  0  0
  1  2  1  0
  2  3  2  0
  3  4  1  0
  4  5  2  0
  5  6  1  0
  1  6  1  0
  7  8  2  0
  8  9  1  0
  6  7  1  0
  1  9  2  0
  5 10  1  0
  3 11  1  0
 12 13  2  0
 13 14  1  0
 14 15  2  0
 15 16  1  0
 16 17  2  0
 12 17  1  0
 15 18  1  0
 10 12  1  0
 20 21  1  0
 21 22  2  0
 22 23  1  0
 23 24  2  0
 24 25  1  0
 25 26  2  0
 21 26  1  0
 19 20  1  0
  8 19  1  0
 24 27  1  0
M  END
>  <Classification>  (1045) 
1

>  <pchembl>  (1045) 
5.69

>  <InChI_steorem>  (1045) 
InChI=1S/C20H18FN5S/c1-13-3-5-15(6-4-13)12-27-20-24-19-22-14(2)11-18(26(19)25-20)23-17-9-7-16(21)8-10-17/h3-11,23H,12H2,1-2H3

>  <source>  (1045) 
ChEMBL30

>  <source_id>  (1045) 
30

>  <optional_reference>  (1045) 
10.1021/acs.jmedchem.0c01741

>  <optional_origin>  (1045) 
None

>  <target>  (1045) 
MDR1

$$$$

     RDKit          2D

 27 30  0  0  0  0  0  0  0  0999 V2000
   12.0628   -7.7186    0.0000 C   0  0  0  0  0  0  0  0  0  0  0  0
   11.3518   -8.1280    0.0000 N   0  0  0  0  0  0  0  0  0  0  0  0
   10.6487   -7.7162    0.0000 C   0  0  0  0  0  0  0  0  0  0  0  0
   10.6484   -6.8990    0.0000 C   0  0  0  0  0  0  0  0  0  0  0  0
   11.3594   -6.4937    0.0000 C   0  0  0  0  0  0  0  0  0  0  0  0
   12.0666   -6.9014    0.0000 N   0  0  0  0  0  0  0  0  0  0  0  0
   12.8408   -6.6544    0.0000 N   0  0  0  0  0  0  0  0  0  0  0  0
   13.3220   -7.3158    0.0000 C   0  0  0  0  0  0  0  0  0  0  0  0
   12.8388   -7.9768    0.0000 N   0  0  0  0  0  0  0  0  0  0  0  0
   11.3590   -5.6765    0.0000 N   0  0  0  0  0  0  0  0  0  0  0  0
    9.9378   -8.1215    0.0000 C   0  0  0  0  0  0  0  0  0  0  0  0
   10.6560   -5.2646    0.0000 C   0  0  0  0  0  0  0  0  0  0  0  0
   10.6556   -4.4474    0.0000 C   0  0  0  0  0  0  0  0  0  0  0  0
    9.9525   -4.0356    0.0000 C   0  0  0  0  0  0  0  0  0  0  0  0
    9.2416   -4.4450    0.0000 C   0  0  0  0  0  0  0  0  0  0  0  0
    9.2378   -5.2622    0.0000 C   0  0  0  0  0  0  0  0  0  0  0  0
    9.9450   -5.6699    0.0000 C   0  0  0  0  0  0  0  0  0  0  0  0
    8.5344   -4.0331    0.0000 F   0  0  0  0  0  0  0  0  0  0  0  0
   14.1392   -7.3196    0.0000 S   0  0  0  0  0  0  0  0  0  0  0  0
   14.5445   -8.0264    0.0000 C   0  0  0  0  0  0  0  0  0  0  0  0
   15.3617   -8.0302    0.0000 C   0  0  0  0  0  0  0  0  0  0  0  0
   15.7671   -8.7412    0.0000 C   0  0  0  0  0  0  0  0  0  0  0  0
   16.5842   -8.7408    0.0000 C   0  0  0  0  0  0  0  0  0  0  0  0
   16.9961   -8.0336    0.0000 C   0  0  0  0  0  0  0  0  0  0  0  0
   16.5908   -7.3268    0.0000 C   0  0  0  0  0  0  0  0  0  0  0  0
   15.7736   -7.3230    0.0000 C   0  0  0  0  0  0  0  0  0  0  0  0
   15.3567   -9.4479    0.0000 Br  0  0  0  0  0  0  0  0  0  0  0  0
  1  2  1  0
  2  3  2  0
  3  4  1  0
  4  5  2  0
  5  6  1  0
  1  6  1  0
  7  8  2  0
  8  9  1  0
  6  7  1  0
  1  9  2  0
  5 10  1  0
  3 11  1  0
 12 13  2  0
 13 14  1  0
 14 15  2  0
 15 16  1  0
 16 17  2  0
 12 17  1  0
 15 18  1  0
 10 12  1  0
 20 21  1  0
 21 22  2  0
 22 23  1  0
 23 24  2  0
 24 25  1  0
 25 26  2  0
 21 26  1  0
 19 20  1  0
  8 19  1  0
 22 27  1  0
M  END
>  <Classification>  (1046) 
1

>  <pchembl>  (1046) 
5.79

>  <InChI_steorem>  (1046) 
InChI=1S/C19H15BrFN5S/c1-12-10-17(23-15-8-6-14(21)7-9-15)26-18(22-12)24-19(25-26)27-11-13-4-2-3-5-16(13)20/h2-10,23H,11H2,1H3

>  <source>  (1046) 
ChEMBL30

>  <source_id>  (1046) 
30

>  <optional_reference>  (1046) 
10.1021/acs.jmedchem.0c01741

>  <optional_origin>  (1046) 
None

>  <target>  (1046) 
MDR1

$$$$

     RDKit          2D

 27 30  0  0  0  0  0  0  0  0999 V2000
   12.0628   -7.7186    0.0000 C   0  0  0  0  0  0  0  0  0  0  0  0
   11.3518   -8.1280    0.0000 N   0  0  0  0  0  0  0  0  0  0  0  0
   10.6487   -7.7162    0.0000 C   0  0  0  0  0  0  0  0  0  0  0  0
   10.6484   -6.8990    0.0000 C   0  0  0  0  0  0  0  0  0  0  0  0
   11.3594   -6.4937    0.0000 C   0  0  0  0  0  0  0  0  0  0  0  0
   12.0666   -6.9014    0.0000 N   0  0  0  0  0  0  0  0  0  0  0  0
   12.8408   -6.6544    0.0000 N   0  0  0  0  0  0  0  0  0  0  0  0
   13.3220   -7.3158    0.0000 C   0  0  0  0  0  0  0  0  0  0  0  0
   12.8388   -7.9768    0.0000 N   0  0  0  0  0  0  0  0  0  0  0  0
   11.3590   -5.6765    0.0000 N   0  0  0  0  0  0  0  0  0  0  0  0
    9.9378   -8.1215    0.0000 C   0  0  0  0  0  0  0  0  0  0  0  0
   10.6560   -5.2646    0.0000 C   0  0  0  0  0  0  0  0  0  0  0  0
   10.6556   -4.4474    0.0000 C   0  0  0  0  0  0  0  0  0  0  0  0
    9.9525   -4.0356    0.0000 C   0  0  0  0  0  0  0  0  0  0  0  0
    9.2416   -4.4450    0.0000 C   0  0  0  0  0  0  0  0  0  0  0  0
    9.2378   -5.2622    0.0000 C   0  0  0  0  0  0  0  0  0  0  0  0
    9.9450   -5.6699    0.0000 C   0  0  0  0  0  0  0  0  0  0  0  0
    8.5344   -4.0331    0.0000 F   0  0  0  0  0  0  0  0  0  0  0  0
   14.1392   -7.3196    0.0000 S   0  0  0  0  0  0  0  0  0  0  0  0
   14.5445   -8.0264    0.0000 C   0  0  0  0  0  0  0  0  0  0  0  0
   15.3617   -8.0302    0.0000 C   0  0  0  0  0  0  0  0  0  0  0  0
   15.7671   -8.7412    0.0000 C   0  0  0  0  0  0  0  0  0  0  0  0
   16.5842   -8.7408    0.0000 C   0  0  0  0  0  0  0  0  0  0  0  0
   16.9961   -8.0336    0.0000 C   0  0  0  0  0  0  0  0  0  0  0  0
   16.5908   -7.3268    0.0000 C   0  0  0  0  0  0  0  0  0  0  0  0
   15.7736   -7.3230    0.0000 C   0  0  0  0  0  0  0  0  0  0  0  0
   16.9917   -9.4492    0.0000 Br  0  0  0  0  0  0  0  0  0  0  0  0
  1  2  1  0
  2  3  2  0
  3  4  1  0
  4  5  2  0
  5  6  1  0
  1  6  1  0
  7  8  2  0
  8  9  1  0
  6  7  1  0
  1  9  2  0
  5 10  1  0
  3 11  1  0
 12 13  2  0
 13 14  1  0
 14 15  2  0
 15 16  1  0
 16 17  2  0
 12 17  1  0
 15 18  1  0
 10 12  1  0
 20 21  1  0
 21 22  2  0
 22 23  1  0
 23 24  2  0
 24 25  1  0
 25 26  2  0
 21 26  1  0
 19 20  1  0
  8 19  1  0
 23 27  1  0
M  END
>  <Classification>  (1047) 
1

>  <pchembl>  (1047) 
5.69

>  <InChI_steorem>  (1047) 
InChI=1S/C19H15BrFN5S/c1-12-9-17(23-16-7-5-15(21)6-8-16)26-18(22-12)24-19(25-26)27-11-13-3-2-4-14(20)10-13/h2-10,23H,11H2,1H3

>  <source>  (1047) 
ChEMBL30

>  <source_id>  (1047) 
30

>  <optional_reference>  (1047) 
10.1021/acs.jmedchem.0c01741

>  <optional_origin>  (1047) 
None

>  <target>  (1047) 
MDR1

$$$$

     RDKit          2D

 27 30  0  0  0  0  0  0  0  0999 V2000
   12.0628   -7.7186    0.0000 C   0  0  0  0  0  0  0  0  0  0  0  0
   11.3518   -8.1280    0.0000 N   0  0  0  0  0  0  0  0  0  0  0  0
   10.6487   -7.7162    0.0000 C   0  0  0  0  0  0  0  0  0  0  0  0
   10.6484   -6.8990    0.0000 C   0  0  0  0  0  0  0  0  0  0  0  0
   11.3594   -6.4937    0.0000 C   0  0  0  0  0  0  0  0  0  0  0  0
   12.0666   -6.9014    0.0000 N   0  0  0  0  0  0  0  0  0  0  0  0
   12.8408   -6.6544    0.0000 N   0  0  0  0  0  0  0  0  0  0  0  0
   13.3220   -7.3158    0.0000 C   0  0  0  0  0  0  0  0  0  0  0  0
   12.8388   -7.9768    0.0000 N   0  0  0  0  0  0  0  0  0  0  0  0
   11.3590   -5.6765    0.0000 N   0  0  0  0  0  0  0  0  0  0  0  0
    9.9378   -8.1215    0.0000 C   0  0  0  0  0  0  0  0  0  0  0  0
   10.6560   -5.2646    0.0000 C   0  0  0  0  0  0  0  0  0  0  0  0
   10.6556   -4.4474    0.0000 C   0  0  0  0  0  0  0  0  0  0  0  0
    9.9525   -4.0356    0.0000 C   0  0  0  0  0  0  0  0  0  0  0  0
    9.2416   -4.4450    0.0000 C   0  0  0  0  0  0  0  0  0  0  0  0
    9.2378   -5.2622    0.0000 C   0  0  0  0  0  0  0  0  0  0  0  0
    9.9450   -5.6699    0.0000 C   0  0  0  0  0  0  0  0  0  0  0  0
    8.5344   -4.0331    0.0000 F   0  0  0  0  0  0  0  0  0  0  0  0
   14.1392   -7.3196    0.0000 S   0  0  0  0  0  0  0  0  0  0  0  0
   14.5445   -8.0264    0.0000 C   0  0  0  0  0  0  0  0  0  0  0  0
   15.3617   -8.0302    0.0000 C   0  0  0  0  0  0  0  0  0  0  0  0
   15.7671   -8.7412    0.0000 C   0  0  0  0  0  0  0  0  0  0  0  0
   16.5842   -8.7408    0.0000 C   0  0  0  0  0  0  0  0  0  0  0  0
   16.9961   -8.0336    0.0000 C   0  0  0  0  0  0  0  0  0  0  0  0
   16.5908   -7.3268    0.0000 C   0  0  0  0  0  0  0  0  0  0  0  0
   15.7736   -7.3230    0.0000 C   0  0  0  0  0  0  0  0  0  0  0  0
   17.8133   -8.0364    0.0000 Br  0  0  0  0  0  0  0  0  0  0  0  0
  1  2  1  0
  2  3  2  0
  3  4  1  0
  4  5  2  0
  5  6  1  0
  1  6  1  0
  7  8  2  0
  8  9  1  0
  6  7  1  0
  1  9  2  0
  5 10  1  0
  3 11  1  0
 12 13  2  0
 13 14  1  0
 14 15  2  0
 15 16  1  0
 16 17  2  0
 12 17  1  0
 15 18  1  0
 10 12  1  0
 20 21  1  0
 21 22  2  0
 22 23  1  0
 23 24  2  0
 24 25  1  0
 25 26  2  0
 21 26  1  0
 19 20  1  0
  8 19  1  0
 24 27  1  0
M  END
>  <Classification>  (1048) 
1

>  <pchembl>  (1048) 
5.86

>  <InChI_steorem>  (1048) 
InChI=1S/C19H15BrFN5S/c1-12-10-17(23-16-8-6-15(21)7-9-16)26-18(22-12)24-19(25-26)27-11-13-2-4-14(20)5-3-13/h2-10,23H,11H2,1H3

>  <source>  (1048) 
ChEMBL30

>  <source_id>  (1048) 
30

>  <optional_reference>  (1048) 
10.1021/acs.jmedchem.0c01741

>  <optional_origin>  (1048) 
None

>  <target>  (1048) 
MDR1

$$$$

     RDKit          2D

 27 30  0  0  0  0  0  0  0  0999 V2000
   12.0628   -7.7186    0.0000 C   0  0  0  0  0  0  0  0  0  0  0  0
   11.3518   -8.1280    0.0000 N   0  0  0  0  0  0  0  0  0  0  0  0
   10.6487   -7.7162    0.0000 C   0  0  0  0  0  0  0  0  0  0  0  0
   10.6484   -6.8990    0.0000 C   0  0  0  0  0  0  0  0  0  0  0  0
   11.3594   -6.4937    0.0000 C   0  0  0  0  0  0  0  0  0  0  0  0
   12.0666   -6.9014    0.0000 N   0  0  0  0  0  0  0  0  0  0  0  0
   12.8408   -6.6544    0.0000 N   0  0  0  0  0  0  0  0  0  0  0  0
   13.3220   -7.3158    0.0000 C   0  0  0  0  0  0  0  0  0  0  0  0
   12.8388   -7.9768    0.0000 N   0  0  0  0  0  0  0  0  0  0  0  0
   11.3590   -5.6765    0.0000 N   0  0  0  0  0  0  0  0  0  0  0  0
    9.9378   -8.1215    0.0000 C   0  0  0  0  0  0  0  0  0  0  0  0
   10.6560   -5.2646    0.0000 C   0  0  0  0  0  0  0  0  0  0  0  0
   10.6556   -4.4474    0.0000 C   0  0  0  0  0  0  0  0  0  0  0  0
    9.9525   -4.0356    0.0000 C   0  0  0  0  0  0  0  0  0  0  0  0
    9.2416   -4.4450    0.0000 C   0  0  0  0  0  0  0  0  0  0  0  0
    9.2378   -5.2622    0.0000 C   0  0  0  0  0  0  0  0  0  0  0  0
    9.9450   -5.6699    0.0000 C   0  0  0  0  0  0  0  0  0  0  0  0
    8.5344   -4.0331    0.0000 F   0  0  0  0  0  0  0  0  0  0  0  0
   14.1392   -7.3196    0.0000 S   0  0  0  0  0  0  0  0  0  0  0  0
   14.5445   -8.0264    0.0000 C   0  0  0  0  0  0  0  0  0  0  0  0
   15.3617   -8.0302    0.0000 C   0  0  0  0  0  0  0  0  0  0  0  0
   15.7671   -8.7412    0.0000 C   0  0  0  0  0  0  0  0  0  0  0  0
   16.5842   -8.7408    0.0000 C   0  0  0  0  0  0  0  0  0  0  0  0
   16.9961   -8.0336    0.0000 C   0  0  0  0  0  0  0  0  0  0  0  0
   16.5908   -7.3268    0.0000 C   0  0  0  0  0  0  0  0  0  0  0  0
   15.7736   -7.3230    0.0000 C   0  0  0  0  0  0  0  0  0  0  0  0
   17.8133   -8.0364    0.0000 Cl  0  0  0  0  0  0  0  0  0  0  0  0
  1  2  1  0
  2  3  2  0
  3  4  1  0
  4  5  2  0
  5  6  1  0
  1  6  1  0
  7  8  2  0
  8  9  1  0
  6  7  1  0
  1  9  2  0
  5 10  1  0
  3 11  1  0
 12 13  2  0
 13 14  1  0
 14 15  2  0
 15 16  1  0
 16 17  2  0
 12 17  1  0
 15 18  1  0
 10 12  1  0
 20 21  1  0
 21 22  2  0
 22 23  1  0
 23 24  2  0
 24 25  1  0
 25 26  2  0
 21 26  1  0
 19 20  1  0
  8 19  1  0
 24 27  1  0
M  END
>  <Classification>  (1049) 
1

>  <pchembl>  (1049) 
5.72

>  <InChI_steorem>  (1049) 
InChI=1S/C19H15ClFN5S/c1-12-10-17(23-16-8-6-15(21)7-9-16)26-18(22-12)24-19(25-26)27-11-13-2-4-14(20)5-3-13/h2-10,23H,11H2,1H3

>  <source>  (1049) 
ChEMBL30

>  <source_id>  (1049) 
30

>  <optional_reference>  (1049) 
10.1021/acs.jmedchem.0c01741

>  <optional_origin>  (1049) 
None

>  <target>  (1049) 
MDR1

$$$$

     RDKit          2D

 27 30  0  0  0  0  0  0  0  0999 V2000
   12.0628   -7.7186    0.0000 C   0  0  0  0  0  0  0  0  0  0  0  0
   11.3518   -8.1280    0.0000 N   0  0  0  0  0  0  0  0  0  0  0  0
   10.6487   -7.7162    0.0000 C   0  0  0  0  0  0  0  0  0  0  0  0
   10.6484   -6.8990    0.0000 C   0  0  0  0  0  0  0  0  0  0  0  0
   11.3594   -6.4937    0.0000 C   0  0  0  0  0  0  0  0  0  0  0  0
   12.0666   -6.9014    0.0000 N   0  0  0  0  0  0  0  0  0  0  0  0
   12.8408   -6.6544    0.0000 N   0  0  0  0  0  0  0  0  0  0  0  0
   13.3220   -7.3158    0.0000 C   0  0  0  0  0  0  0  0  0  0  0  0
   12.8388   -7.9768    0.0000 N   0  0  0  0  0  0  0  0  0  0  0  0
   11.3590   -5.6765    0.0000 N   0  0  0  0  0  0  0  0  0  0  0  0
    9.9378   -8.1215    0.0000 C   0  0  0  0  0  0  0  0  0  0  0  0
   10.6560   -5.2646    0.0000 C   0  0  0  0  0  0  0  0  0  0  0  0
   10.6556   -4.4474    0.0000 C   0  0  0  0  0  0  0  0  0  0  0  0
    9.9525   -4.0356    0.0000 C   0  0  0  0  0  0  0  0  0  0  0  0
    9.2416   -4.4450    0.0000 C   0  0  0  0  0  0  0  0  0  0  0  0
    9.2378   -5.2622    0.0000 C   0  0  0  0  0  0  0  0  0  0  0  0
    9.9450   -5.6699    0.0000 C   0  0  0  0  0  0  0  0  0  0  0  0
    8.5344   -4.0331    0.0000 F   0  0  0  0  0  0  0  0  0  0  0  0
   14.1392   -7.3196    0.0000 S   0  0  0  0  0  0  0  0  0  0  0  0
   14.5445   -8.0264    0.0000 C   0  0  0  0  0  0  0  0  0  0  0  0
   15.3617   -8.0302    0.0000 C   0  0  0  0  0  0  0  0  0  0  0  0
   15.7671   -8.7412    0.0000 C   0  0  0  0  0  0  0  0  0  0  0  0
   16.5842   -8.7408    0.0000 C   0  0  0  0  0  0  0  0  0  0  0  0
   16.9961   -8.0336    0.0000 C   0  0  0  0  0  0  0  0  0  0  0  0
   16.5908   -7.3268    0.0000 C   0  0  0  0  0  0  0  0  0  0  0  0
   15.7736   -7.3230    0.0000 C   0  0  0  0  0  0  0  0  0  0  0  0
   17.8133   -8.0364    0.0000 F   0  0  0  0  0  0  0  0  0  0  0  0
  1  2  1  0
  2  3  2  0
  3  4  1  0
  4  5  2  0
  5  6  1  0
  1  6  1  0
  7  8  2  0
  8  9  1  0
  6  7  1  0
  1  9  2  0
  5 10  1  0
  3 11  1  0
 12 13  2  0
 13 14  1  0
 14 15  2  0
 15 16  1  0
 16 17  2  0
 12 17  1  0
 15 18  1  0
 10 12  1  0
 20 21  1  0
 21 22  2  0
 22 23  1  0
 23 24  2  0
 24 25  1  0
 25 26  2  0
 21 26  1  0
 19 20  1  0
  8 19  1  0
 24 27  1  0
M  END
>  <Classification>  (1050) 
1

>  <pchembl>  (1050) 
5.9

>  <InChI_steorem>  (1050) 
InChI=1S/C19H15F2N5S/c1-12-10-17(23-16-8-6-15(21)7-9-16)26-18(22-12)24-19(25-26)27-11-13-2-4-14(20)5-3-13/h2-10,23H,11H2,1H3

>  <source>  (1050) 
ChEMBL30

>  <source_id>  (1050) 
30

>  <optional_reference>  (1050) 
10.1021/acs.jmedchem.0c01741

>  <optional_origin>  (1050) 
None

>  <target>  (1050) 
MDR1

$$$$

     RDKit          2D

 27 30  0  0  0  0  0  0  0  0999 V2000
   12.3393   -8.4285    0.0000 C   0  0  0  0  0  0  0  0  0  0  0  0
   11.6283   -8.8379    0.0000 N   0  0  0  0  0  0  0  0  0  0  0  0
   10.9253   -8.4261    0.0000 C   0  0  0  0  0  0  0  0  0  0  0  0
   10.9249   -7.6089    0.0000 C   0  0  0  0  0  0  0  0  0  0  0  0
   11.6359   -7.2035    0.0000 C   0  0  0  0  0  0  0  0  0  0  0  0
   12.3431   -7.6113    0.0000 N   0  0  0  0  0  0  0  0  0  0  0  0
   13.1174   -7.3643    0.0000 N   0  0  0  0  0  0  0  0  0  0  0  0
   13.5986   -8.0257    0.0000 C   0  0  0  0  0  0  0  0  0  0  0  0
   13.1154   -8.6867    0.0000 N   0  0  0  0  0  0  0  0  0  0  0  0
   11.6355   -6.3864    0.0000 N   0  0  0  0  0  0  0  0  0  0  0  0
   10.2143   -8.8314    0.0000 C   0  0  0  0  0  0  0  0  0  0  0  0
   10.9325   -5.9745    0.0000 C   0  0  0  0  0  0  0  0  0  0  0  0
   10.9321   -5.1573    0.0000 C   0  0  0  0  0  0  0  0  0  0  0  0
   10.2291   -4.7454    0.0000 C   0  0  0  0  0  0  0  0  0  0  0  0
    9.5181   -5.1549    0.0000 C   0  0  0  0  0  0  0  0  0  0  0  0
    9.5143   -5.9721    0.0000 C   0  0  0  0  0  0  0  0  0  0  0  0
   10.2215   -6.3798    0.0000 C   0  0  0  0  0  0  0  0  0  0  0  0
    8.8109   -4.7430    0.0000 F   0  0  0  0  0  0  0  0  0  0  0  0
   14.4158   -8.0295    0.0000 S   0  0  0  0  0  0  0  0  0  0  0  0
   14.8211   -8.7363    0.0000 C   0  0  0  0  0  0  0  0  0  0  0  0
   15.6383   -8.7401    0.0000 C   0  0  0  0  0  0  0  0  0  0  0  0
   16.0436   -9.4511    0.0000 C   0  0  0  0  0  0  0  0  0  0  0  0
   16.8608   -9.4507    0.0000 C   0  0  0  0  0  0  0  0  0  0  0  0
   17.2726   -8.7435    0.0000 C   0  0  0  0  0  0  0  0  0  0  0  0
   16.8673   -8.0367    0.0000 C   0  0  0  0  0  0  0  0  0  0  0  0
   16.0501   -8.0329    0.0000 C   0  0  0  0  0  0  0  0  0  0  0  0
    9.5088   -8.4189    0.0000 C   0  0  0  0  0  0  0  0  0  0  0  0
  1  2  1  0
  2  3  2  0
  3  4  1  0
  4  5  2  0
  5  6  1  0
  1  6  1  0
  7  8  2  0
  8  9  1  0
  6  7  1  0
  1  9  2  0
  5 10  1  0
  3 11  1  0
 12 13  2  0
 13 14  1  0
 14 15  2  0
 15 16  1  0
 16 17  2  0
 12 17  1  0
 15 18  1  0
 10 12  1  0
 20 21  1  0
 21 22  2  0
 22 23  1  0
 23 24  2  0
 24 25  1  0
 25 26  2  0
 21 26  1  0
 19 20  1  0
  8 19  1  0
 11 27  1  0
M  END
>  <Classification>  (1051) 
1

>  <pchembl>  (1051) 
5.79

>  <InChI_steorem>  (1051) 
InChI=1S/C20H18FN5S/c1-2-16-12-18(22-17-10-8-15(21)9-11-17)26-19(23-16)24-20(25-26)27-13-14-6-4-3-5-7-14/h3-12,22H,2,13H2,1H3

>  <source>  (1051) 
ChEMBL30

>  <source_id>  (1051) 
30

>  <optional_reference>  (1051) 
10.1021/acs.jmedchem.0c01741

>  <optional_origin>  (1051) 
None

>  <target>  (1051) 
MDR1

$$$$

     RDKit          2D

 28 31  0  0  0  0  0  0  0  0999 V2000
   10.5489   -7.9506    0.0000 C   0  0  0  0  0  0  0  0  0  0  0  0
    9.8492   -8.3711    0.0000 N   0  0  0  0  0  0  0  0  0  0  0  0
    9.1351   -7.9704    0.0000 C   0  0  0  0  0  0  0  0  0  0  0  0
    9.1206   -7.1534    0.0000 C   0  0  0  0  0  0  0  0  0  0  0  0
    9.8244   -6.7370    0.0000 C   0  0  0  0  0  0  0  0  0  0  0  0
   10.5386   -7.1336    0.0000 N   0  0  0  0  0  0  0  0  0  0  0  0
   11.3099   -6.8695    0.0000 N   0  0  0  0  0  0  0  0  0  0  0  0
   11.8009   -7.5218    0.0000 C   0  0  0  0  0  0  0  0  0  0  0  0
   11.3317   -8.1917    0.0000 N   0  0  0  0  0  0  0  0  0  0  0  0
    9.8100   -5.9200    0.0000 N   0  0  0  0  0  0  0  0  0  0  0  0
    8.4313   -8.3909    0.0000 C   0  0  0  0  0  0  0  0  0  0  0  0
    9.1000   -5.5193    0.0000 C   0  0  0  0  0  0  0  0  0  0  0  0
    9.0855   -4.7022    0.0000 C   0  0  0  0  0  0  0  0  0  0  0  0
    8.3714   -4.3057    0.0000 C   0  0  0  0  0  0  0  0  0  0  0  0
    7.6717   -4.7262    0.0000 C   0  0  0  0  0  0  0  0  0  0  0  0
    7.6820   -5.5432    0.0000 C   0  0  0  0  0  0  0  0  0  0  0  0
    8.3962   -5.9398    0.0000 C   0  0  0  0  0  0  0  0  0  0  0  0
    6.9576   -4.3255    0.0000 F   0  0  0  0  0  0  0  0  0  0  0  0
   12.6179   -7.5114    0.0000 S   0  0  0  0  0  0  0  0  0  0  0  0
   13.0384   -8.2111    0.0000 C   0  0  0  0  0  0  0  0  0  0  0  0
   13.8555   -8.2008    0.0000 C   0  0  0  0  0  0  0  0  0  0  0  0
   14.2551   -7.4880    0.0000 C   0  0  0  0  0  0  0  0  0  0  0  0
   15.0722   -7.4776    0.0000 C   0  0  0  0  0  0  0  0  0  0  0  0
   15.4866   -8.1795    0.0000 C   0  0  0  0  0  0  0  0  0  0  0  0
   16.3030   -8.1695    0.0000 C   0  0  0  0  0  0  0  0  0  0  0  0
   16.7034   -7.4561    0.0000 C   0  0  0  0  0  0  0  0  0  0  0  0
   16.2815   -6.7514    0.0000 C   0  0  0  0  0  0  0  0  0  0  0  0
   15.4665   -6.7648    0.0000 C   0  0  0  0  0  0  0  0  0  0  0  0
  1  2  1  0
  2  3  2  0
  3  4  1  0
  4  5  2  0
  5  6  1  0
  1  6  1  0
  7  8  2  0
  8  9  1  0
  6  7  1  0
  1  9  2  0
  5 10  1  0
  3 11  1  0
 12 13  2  0
 13 14  1  0
 14 15  2  0
 15 16  1  0
 16 17  2  0
 12 17  1  0
 15 18  1  0
 10 12  1  0
 20 21  1  0
 19 20  1  0
  8 19  1  0
 21 22  1  0
 22 23  1  0
 23 24  2  0
 24 25  1  0
 25 26  2  0
 26 27  1  0
 27 28  2  0
 28 23  1  0
M  END
>  <Classification>  (1052) 
1

>  <pchembl>  (1052) 
5.38

>  <InChI_steorem>  (1052) 
InChI=1S/C21H20FN5S/c1-15-14-19(24-18-11-9-17(22)10-12-18)27-20(23-15)25-21(26-27)28-13-5-8-16-6-3-2-4-7-16/h2-4,6-7,9-12,14,24H,5,8,13H2,1H3

>  <source>  (1052) 
ChEMBL30

>  <source_id>  (1052) 
30

>  <optional_reference>  (1052) 
10.1021/acs.jmedchem.0c01741

>  <optional_origin>  (1052) 
None

>  <target>  (1052) 
MDR1

$$$$

     RDKit          2D

 28 31  0  0  0  0  0  0  0  0999 V2000
   11.5931   -8.4748    0.0000 C   0  0  0  0  0  0  0  0  0  0  0  0
   10.8934   -8.8953    0.0000 N   0  0  0  0  0  0  0  0  0  0  0  0
   10.1793   -8.4946    0.0000 C   0  0  0  0  0  0  0  0  0  0  0  0
   10.1648   -7.6775    0.0000 C   0  0  0  0  0  0  0  0  0  0  0  0
   10.8686   -7.2612    0.0000 C   0  0  0  0  0  0  0  0  0  0  0  0
   11.5828   -7.6577    0.0000 N   0  0  0  0  0  0  0  0  0  0  0  0
   12.3541   -7.3937    0.0000 N   0  0  0  0  0  0  0  0  0  0  0  0
   12.8451   -8.0459    0.0000 C   0  0  0  0  0  0  0  0  0  0  0  0
   12.3759   -8.7159    0.0000 N   0  0  0  0  0  0  0  0  0  0  0  0
   10.8542   -6.4441    0.0000 N   0  0  0  0  0  0  0  0  0  0  0  0
    9.4755   -8.9151    0.0000 C   0  0  0  0  0  0  0  0  0  0  0  0
   10.1442   -6.0434    0.0000 C   0  0  0  0  0  0  0  0  0  0  0  0
   10.1297   -5.2264    0.0000 C   0  0  0  0  0  0  0  0  0  0  0  0
    9.4156   -4.8298    0.0000 C   0  0  0  0  0  0  0  0  0  0  0  0
    8.7159   -5.2503    0.0000 C   0  0  0  0  0  0  0  0  0  0  0  0
    8.7262   -6.0674    0.0000 C   0  0  0  0  0  0  0  0  0  0  0  0
    9.4404   -6.4639    0.0000 C   0  0  0  0  0  0  0  0  0  0  0  0
    8.0018   -4.8496    0.0000 F   0  0  0  0  0  0  0  0  0  0  0  0
   13.6621   -8.0356    0.0000 S   0  0  0  0  0  0  0  0  0  0  0  0
   14.0826   -8.7353    0.0000 C   0  0  0  0  0  0  0  0  0  0  0  0
   14.8997   -8.7249    0.0000 C   0  0  0  0  0  0  0  0  0  0  0  0
   15.3202   -9.4246    0.0000 C   0  0  0  0  0  0  0  0  0  0  0  0
   16.1372   -9.4143    0.0000 C   0  0  0  0  0  0  0  0  0  0  0  0
   16.5338   -8.7002    0.0000 C   0  0  0  0  0  0  0  0  0  0  0  0
   16.1133   -7.9963    0.0000 C   0  0  0  0  0  0  0  0  0  0  0  0
   15.2962   -8.0108    0.0000 C   0  0  0  0  0  0  0  0  0  0  0  0
   14.8757   -7.3111    0.0000 Cl  0  0  0  0  0  0  0  0  0  0  0  0
   14.9195  -10.1387    0.0000 Cl  0  0  0  0  0  0  0  0  0  0  0  0
  1  2  1  0
  2  3  2  0
  3  4  1  0
  4  5  2  0
  5  6  1  0
  1  6  1  0
  7  8  2  0
  8  9  1  0
  6  7  1  0
  1  9  2  0
  5 10  1  0
  3 11  1  0
 12 13  2  0
 13 14  1  0
 14 15  2  0
 15 16  1  0
 16 17  2  0
 12 17  1  0
 15 18  1  0
 10 12  1  0
 20 21  1  0
 21 22  2  0
 22 23  1  0
 23 24  2  0
 24 25  1  0
 25 26  2  0
 21 26  1  0
 26 27  1  0
 22 28  1  0
 19 20  1  0
  8 19  1  0
M  END
>  <Classification>  (1053) 
1

>  <pchembl>  (1053) 
5.71

>  <InChI_steorem>  (1053) 
InChI=1S/C19H14Cl2FN5S/c1-11-9-17(24-13-7-5-12(22)6-8-13)27-18(23-11)25-19(26-27)28-10-14-15(20)3-2-4-16(14)21/h2-9,24H,10H2,1H3

>  <source>  (1053) 
ChEMBL30

>  <source_id>  (1053) 
30

>  <optional_reference>  (1053) 
10.1021/acs.jmedchem.0c01741

>  <optional_origin>  (1053) 
None

>  <target>  (1053) 
MDR1

$$$$

     RDKit          2D

 28 31  0  0  0  0  0  0  0  0999 V2000
   11.5931   -8.4748    0.0000 C   0  0  0  0  0  0  0  0  0  0  0  0
   10.8934   -8.8953    0.0000 N   0  0  0  0  0  0  0  0  0  0  0  0
   10.1793   -8.4946    0.0000 C   0  0  0  0  0  0  0  0  0  0  0  0
   10.1648   -7.6775    0.0000 C   0  0  0  0  0  0  0  0  0  0  0  0
   10.8686   -7.2612    0.0000 C   0  0  0  0  0  0  0  0  0  0  0  0
   11.5828   -7.6577    0.0000 N   0  0  0  0  0  0  0  0  0  0  0  0
   12.3541   -7.3937    0.0000 N   0  0  0  0  0  0  0  0  0  0  0  0
   12.8451   -8.0459    0.0000 C   0  0  0  0  0  0  0  0  0  0  0  0
   12.3759   -8.7159    0.0000 N   0  0  0  0  0  0  0  0  0  0  0  0
   10.8542   -6.4441    0.0000 N   0  0  0  0  0  0  0  0  0  0  0  0
    9.4755   -8.9151    0.0000 C   0  0  0  0  0  0  0  0  0  0  0  0
   10.1442   -6.0434    0.0000 C   0  0  0  0  0  0  0  0  0  0  0  0
   10.1297   -5.2264    0.0000 C   0  0  0  0  0  0  0  0  0  0  0  0
    9.4156   -4.8298    0.0000 C   0  0  0  0  0  0  0  0  0  0  0  0
    8.7159   -5.2503    0.0000 C   0  0  0  0  0  0  0  0  0  0  0  0
    8.7262   -6.0674    0.0000 C   0  0  0  0  0  0  0  0  0  0  0  0
    9.4404   -6.4639    0.0000 C   0  0  0  0  0  0  0  0  0  0  0  0
    8.0018   -4.8496    0.0000 F   0  0  0  0  0  0  0  0  0  0  0  0
   13.6621   -8.0356    0.0000 S   0  0  0  0  0  0  0  0  0  0  0  0
   14.0826   -8.7353    0.0000 C   0  0  0  0  0  0  0  0  0  0  0  0
   14.8997   -8.7249    0.0000 C   0  0  0  0  0  0  0  0  0  0  0  0
   15.3202   -9.4246    0.0000 C   0  0  0  0  0  0  0  0  0  0  0  0
   16.1372   -9.4143    0.0000 C   0  0  0  0  0  0  0  0  0  0  0  0
   16.5338   -8.7002    0.0000 C   0  0  0  0  0  0  0  0  0  0  0  0
   16.1133   -7.9963    0.0000 C   0  0  0  0  0  0  0  0  0  0  0  0
   15.2962   -8.0108    0.0000 C   0  0  0  0  0  0  0  0  0  0  0  0
   17.3453   -8.6893    0.0000 O   0  0  0  0  0  0  0  0  0  0  0  0
   17.7426   -7.9752    0.0000 C   0  0  0  0  0  0  0  0  0  0  0  0
  1  2  1  0
  2  3  2  0
  3  4  1  0
  4  5  2  0
  5  6  1  0
  1  6  1  0
  7  8  2  0
  8  9  1  0
  6  7  1  0
  1  9  2  0
  5 10  1  0
  3 11  1  0
 12 13  2  0
 13 14  1  0
 14 15  2  0
 15 16  1  0
 16 17  2  0
 12 17  1  0
 15 18  1  0
 10 12  1  0
 20 21  1  0
 21 22  2  0
 22 23  1  0
 23 24  2  0
 24 25  1  0
 25 26  2  0
 21 26  1  0
 19 20  1  0
  8 19  1  0
 27 28  1  0
 24 27  1  0
M  END
>  <Classification>  (1054) 
1

>  <pchembl>  (1054) 
5.71

>  <InChI_steorem>  (1054) 
InChI=1S/C20H18FN5OS/c1-13-11-18(23-16-7-5-15(21)6-8-16)26-19(22-13)24-20(25-26)28-12-14-3-9-17(27-2)10-4-14/h3-11,23H,12H2,1-2H3

>  <source>  (1054) 
ChEMBL30

>  <source_id>  (1054) 
30

>  <optional_reference>  (1054) 
10.1021/acs.jmedchem.0c01741

>  <optional_origin>  (1054) 
None

>  <target>  (1054) 
MDR1

$$$$

     RDKit          2D

 28 31  0  0  0  0  0  0  0  0999 V2000
   12.0628   -7.7186    0.0000 C   0  0  0  0  0  0  0  0  0  0  0  0
   11.3518   -8.1280    0.0000 N   0  0  0  0  0  0  0  0  0  0  0  0
   10.6487   -7.7162    0.0000 C   0  0  0  0  0  0  0  0  0  0  0  0
   10.6484   -6.8990    0.0000 C   0  0  0  0  0  0  0  0  0  0  0  0
   11.3594   -6.4937    0.0000 C   0  0  0  0  0  0  0  0  0  0  0  0
   12.0666   -6.9014    0.0000 N   0  0  0  0  0  0  0  0  0  0  0  0
   12.8408   -6.6544    0.0000 N   0  0  0  0  0  0  0  0  0  0  0  0
   13.3220   -7.3158    0.0000 C   0  0  0  0  0  0  0  0  0  0  0  0
   12.8388   -7.9768    0.0000 N   0  0  0  0  0  0  0  0  0  0  0  0
   11.3590   -5.6765    0.0000 N   0  0  0  0  0  0  0  0  0  0  0  0
    9.9378   -8.1215    0.0000 C   0  0  0  0  0  0  0  0  0  0  0  0
   10.6560   -5.2646    0.0000 C   0  0  0  0  0  0  0  0  0  0  0  0
   10.6556   -4.4474    0.0000 C   0  0  0  0  0  0  0  0  0  0  0  0
    9.9525   -4.0356    0.0000 C   0  0  0  0  0  0  0  0  0  0  0  0
    9.2416   -4.4450    0.0000 C   0  0  0  0  0  0  0  0  0  0  0  0
    9.2378   -5.2622    0.0000 C   0  0  0  0  0  0  0  0  0  0  0  0
    9.9450   -5.6699    0.0000 C   0  0  0  0  0  0  0  0  0  0  0  0
    8.5344   -4.0331    0.0000 F   0  0  0  0  0  0  0  0  0  0  0  0
   14.1392   -7.3196    0.0000 S   0  0  0  0  0  0  0  0  0  0  0  0
   14.5445   -8.0264    0.0000 C   0  0  0  0  0  0  0  0  0  0  0  0
   15.3617   -8.0302    0.0000 C   0  0  0  0  0  0  0  0  0  0  0  0
   15.7671   -8.7412    0.0000 C   0  0  0  0  0  0  0  0  0  0  0  0
   16.5842   -8.7408    0.0000 C   0  0  0  0  0  0  0  0  0  0  0  0
   16.9961   -8.0336    0.0000 C   0  0  0  0  0  0  0  0  0  0  0  0
   16.5908   -7.3268    0.0000 C   0  0  0  0  0  0  0  0  0  0  0  0
   15.7736   -7.3230    0.0000 C   0  0  0  0  0  0  0  0  0  0  0  0
    9.2323   -7.7090    0.0000 C   0  0  0  0  0  0  0  0  0  0  0  0
    9.9333   -8.9387    0.0000 C   0  0  0  0  0  0  0  0  0  0  0  0
  1  2  1  0
  2  3  2  0
  3  4  1  0
  4  5  2  0
  5  6  1  0
  1  6  1  0
  7  8  2  0
  8  9  1  0
  6  7  1  0
  1  9  2  0
  5 10  1  0
  3 11  1  0
 12 13  2  0
 13 14  1  0
 14 15  2  0
 15 16  1  0
 16 17  2  0
 12 17  1  0
 15 18  1  0
 10 12  1  0
 20 21  1  0
 21 22  2  0
 22 23  1  0
 23 24  2  0
 24 25  1  0
 25 26  2  0
 21 26  1  0
 19 20  1  0
  8 19  1  0
 11 27  1  0
 11 28  1  0
M  END
>  <Classification>  (1055) 
1

>  <pchembl>  (1055) 
5.84

>  <InChI_steorem>  (1055) 
InChI=1S/C21H20FN5S/c1-14(2)18-12-19(23-17-10-8-16(22)9-11-17)27-20(24-18)25-21(26-27)28-13-15-6-4-3-5-7-15/h3-12,14,23H,13H2,1-2H3

>  <source>  (1055) 
ChEMBL30

>  <source_id>  (1055) 
30

>  <optional_reference>  (1055) 
10.1021/acs.jmedchem.0c01741

>  <optional_origin>  (1055) 
None

>  <target>  (1055) 
MDR1

$$$$

     RDKit          2D

 28 31  0  0  0  0  0  0  0  0999 V2000
   15.2062  -11.0690    0.0000 C   0  0  0  0  0  0  0  0  0  0  0  0
   14.3890  -11.0655    0.0000 C   0  0  0  0  0  0  0  0  0  0  0  0
   15.6137  -10.3616    0.0000 O   0  0  0  0  0  0  0  0  0  0  0  0
   15.6118  -11.7757    0.0000 C   0  0  0  0  0  0  0  0  0  0  0  0
   15.2002  -12.4830    0.0000 C   0  0  0  0  0  0  0  0  0  0  0  0
   15.6058  -13.1938    0.0000 C   0  0  0  0  0  0  0  0  0  0  0  0
   16.4230  -13.1932    0.0000 C   0  0  0  0  0  0  0  0  0  0  0  0
   16.8346  -12.4858    0.0000 C   0  0  0  0  0  0  0  0  0  0  0  0
   16.4290  -11.7791    0.0000 C   0  0  0  0  0  0  0  0  0  0  0  0
   13.9793  -10.3547    0.0000 S   0  0  0  0  0  0  0  0  0  0  0  0
   11.9030  -10.7585    0.0000 C   0  0  0  0  0  0  0  0  0  0  0  0
   11.1963  -11.1641    0.0000 N   0  0  0  0  0  0  0  0  0  0  0  0
   10.4890  -10.7525    0.0000 C   0  0  0  0  0  0  0  0  0  0  0  0
   10.4925   -9.9353    0.0000 C   0  0  0  0  0  0  0  0  0  0  0  0
   11.1992   -9.5298    0.0000 C   0  0  0  0  0  0  0  0  0  0  0  0
   11.9065   -9.9414    0.0000 N   0  0  0  0  0  0  0  0  0  0  0  0
   12.6848   -9.6900    0.0000 N   0  0  0  0  0  0  0  0  0  0  0  0
   13.1621  -10.3512    0.0000 C   0  0  0  0  0  0  0  0  0  0  0  0
   12.6792  -11.0124    0.0000 N   0  0  0  0  0  0  0  0  0  0  0  0
    9.7823  -11.1622    0.0000 C   0  0  0  0  0  0  0  0  0  0  0  0
   11.2026   -8.7126    0.0000 N   0  0  0  0  0  0  0  0  0  0  0  0
   10.4953   -8.3010    0.0000 C   0  0  0  0  0  0  0  0  0  0  0  0
   10.4988   -7.4838    0.0000 C   0  0  0  0  0  0  0  0  0  0  0  0
    9.7914   -7.0763    0.0000 C   0  0  0  0  0  0  0  0  0  0  0  0
    9.0847   -7.4819    0.0000 C   0  0  0  0  0  0  0  0  0  0  0  0
    9.0813   -8.2991    0.0000 C   0  0  0  0  0  0  0  0  0  0  0  0
    9.7886   -8.7107    0.0000 C   0  0  0  0  0  0  0  0  0  0  0  0
    8.3774   -7.0703    0.0000 F   0  0  0  0  0  0  0  0  0  0  0  0
  1  2  1  0
  1  3  2  0
  4  5  2  0
  5  6  1  0
  6  7  2  0
  7  8  1  0
  8  9  2  0
  4  9  1  0
  1  4  1  0
 11 12  1  0
 12 13  2  0
 13 14  1  0
 14 15  2  0
 15 16  1  0
 11 16  1  0
 17 18  2  0
 18 19  1  0
 16 17  1  0
 11 19  2  0
 13 20  1  0
 22 23  2  0
 23 24  1  0
 24 25  2  0
 25 26  1  0
 26 27  2  0
 22 27  1  0
 25 28  1  0
 21 22  1  0
 15 21  1  0
 10 18  1  0
  2 10  1  0
M  END
>  <Classification>  (1056) 
1

>  <pchembl>  (1056) 
5.9

>  <InChI_steorem>  (1056) 
InChI=1S/C20H16FN5OS/c1-13-11-18(23-16-9-7-15(21)8-10-16)26-19(22-13)24-20(25-26)28-12-17(27)14-5-3-2-4-6-14/h2-11,23H,12H2,1H3

>  <source>  (1056) 
ChEMBL30

>  <source_id>  (1056) 
30

>  <optional_reference>  (1056) 
10.1021/acs.jmedchem.0c01741

>  <optional_origin>  (1056) 
None

>  <target>  (1056) 
MDR1

$$$$

     RDKit          2D

 28 31  0  0  0  0  0  0  0  0999 V2000
   21.8192  -12.5839    0.0000 C   0  0  0  0  0  0  0  0  0  0  0  0
   21.8181  -13.4034    0.0000 C   0  0  0  0  0  0  0  0  0  0  0  0
   22.5261  -13.8124    0.0000 C   0  0  0  0  0  0  0  0  0  0  0  0
   23.2358  -13.4029    0.0000 C   0  0  0  0  0  0  0  0  0  0  0  0
   23.2330  -12.5803    0.0000 C   0  0  0  0  0  0  0  0  0  0  0  0
   22.5244  -12.1750    0.0000 C   0  0  0  0  0  0  0  0  0  0  0  0
   21.1101  -13.8115    0.0000 N   0  0  0  0  0  0  0  0  0  0  0  0
   21.1094  -14.6286    0.0000 C   0  0  0  0  0  0  0  0  0  0  0  0
   20.4013  -15.0351    0.0000 C   0  0  0  0  0  0  0  0  0  0  0  0
   20.4003  -15.8516    0.0000 C   0  0  0  0  0  0  0  0  0  0  0  0
   21.1082  -16.2615    0.0000 N   0  0  0  0  0  0  0  0  0  0  0  0
   21.8186  -15.8491    0.0000 C   0  0  0  0  0  0  0  0  0  0  0  0
   21.8161  -15.0340    0.0000 N   0  0  0  0  0  0  0  0  0  0  0  0
   22.5250  -16.2530    0.0000 C   0  0  0  0  0  0  0  0  0  0  0  0
   22.5259  -17.0713    0.0000 C   0  0  0  0  0  0  0  0  0  0  0  0
   23.2339  -17.4779    0.0000 C   0  0  0  0  0  0  0  0  0  0  0  0
   23.9415  -17.0673    0.0000 C   0  0  0  0  0  0  0  0  0  0  0  0
   23.9366  -16.2459    0.0000 C   0  0  0  0  0  0  0  0  0  0  0  0
   23.2280  -15.8430    0.0000 C   0  0  0  0  0  0  0  0  0  0  0  0
   23.9369  -12.1678    0.0000 C   0  0  0  0  0  0  0  0  0  0  0  0
   24.6431  -11.7566    0.0000 N   0  0  0  0  0  0  0  0  0  0  0  0
   19.6951  -16.2582    0.0000 N   0  0  0  0  0  0  0  0  0  0  0  0
   19.6947  -17.0754    0.0000 C   0  0  0  0  0  0  0  0  0  0  0  0
   18.9856  -17.4816    0.0000 C   0  0  0  0  0  0  0  0  0  0  0  0
   18.9848  -18.2980    0.0000 C   0  0  0  0  0  0  0  0  0  0  0  0
   19.6929  -18.7078    0.0000 C   0  0  0  0  0  0  0  0  0  0  0  0
   20.4031  -18.2952    0.0000 C   0  0  0  0  0  0  0  0  0  0  0  0
   20.4004  -17.4801    0.0000 C   0  0  0  0  0  0  0  0  0  0  0  0
  1  2  2  0
  2  3  1  0
  3  4  2  0
  4  5  1  0
  5  6  2  0
  6  1  1  0
  2  7  1  0
  7  8  1  0
  8  9  2  0
  9 10  1  0
 10 11  2  0
 11 12  1  0
 12 13  2  0
 13  8  1  0
 14 15  2  0
 15 16  1  0
 16 17  2  0
 17 18  1  0
 18 19  2  0
 19 14  1  0
 12 14  1  0
 20 21  3  0
  5 20  1  0
 10 22  1  0
 22 23  1  0
 23 24  2  0
 24 25  1  0
 25 26  2  0
 26 27  1  0
 27 28  2  0
 28 23  1  0
M  END
>  <Classification>  (1057) 
1

>  <pchembl>  (1057) 
5.27

>  <InChI_steorem>  (1057) 
InChI=1S/C23H17N5/c24-16-17-11-13-20(14-12-17)26-22-15-21(25-19-9-5-2-6-10-19)27-23(28-22)18-7-3-1-4-8-18/h1-15H,(H2,25,26,27,28)

>  <source>  (1057) 
ChEMBL30

>  <source_id>  (1057) 
30

>  <optional_reference>  (1057) 
10.1016/j.ejmech.2020.113045

>  <optional_origin>  (1057) 
None

>  <target>  (1057) 
MDR1

$$$$

     RDKit          2D

 28 32  0  0  0  0  0  0  0  0999 V2000
   11.1323  -11.6283    0.0000 C   0  0  0  0  0  0  0  0  0  0  0  0
   10.4207  -12.0220    0.0000 N   0  0  0  0  0  0  0  0  0  0  0  0
    9.7186  -11.6028    0.0000 C   0  0  0  0  0  0  0  0  0  0  0  0
    9.7322  -10.7858    0.0000 C   0  0  0  0  0  0  0  0  0  0  0  0
   10.4479  -10.3880    0.0000 C   0  0  0  0  0  0  0  0  0  0  0  0
   11.1459  -10.8113    0.0000 N   0  0  0  0  0  0  0  0  0  0  0  0
   11.9297  -10.5733    0.0000 N   0  0  0  0  0  0  0  0  0  0  0  0
   12.3962  -11.2411    0.0000 C   0  0  0  0  0  0  0  0  0  0  0  0
   11.9067  -11.8913    0.0000 N   0  0  0  0  0  0  0  0  0  0  0  0
   10.4615   -9.5710    0.0000 N   0  0  0  0  0  0  0  0  0  0  0  0
    8.4719   -8.8534    0.0000 N   0  0  0  0  0  0  0  0  0  0  0  0
    9.0075   -9.4703    0.0000 N   0  0  0  0  0  0  0  0  0  0  0  0
    9.7635   -9.1518    0.0000 C   0  0  0  0  0  0  0  0  0  0  0  0
    9.6889   -8.3352    0.0000 C   0  0  0  0  0  0  0  0  0  0  0  0
    8.8952   -8.1513    0.0000 C   0  0  0  0  0  0  0  0  0  0  0  0
    8.5727   -7.3994    0.0000 C   0  0  0  0  0  0  0  0  0  0  0  0
    9.0029  -11.9965    0.0000 C   0  0  0  0  0  0  0  0  0  0  0  0
   13.2132  -11.2547    0.0000 S   0  0  0  0  0  0  0  0  0  0  0  0
   13.6110  -11.9704    0.0000 C   0  0  0  0  0  0  0  0  0  0  0  0
   14.4280  -11.9840    0.0000 C   0  0  0  0  0  0  0  0  0  0  0  0
   14.9216  -11.3296    0.0000 N   0  0  0  0  0  0  0  0  0  0  0  0
   15.6919  -11.5968    0.0000 C   0  0  0  0  0  0  0  0  0  0  0  0
   15.6783  -12.4138    0.0000 C   0  0  0  0  0  0  0  0  0  0  0  0
   14.8986  -12.6517    0.0000 N   0  0  0  0  0  0  0  0  0  0  0  0
   16.3804  -12.8371    0.0000 C   0  0  0  0  0  0  0  0  0  0  0  0
   17.0920  -12.4393    0.0000 C   0  0  0  0  0  0  0  0  0  0  0  0
   17.1097  -11.6223    0.0000 C   0  0  0  0  0  0  0  0  0  0  0  0
   16.4076  -11.2031    0.0000 C   0  0  0  0  0  0  0  0  0  0  0  0
  1  2  1  0
  2  3  2  0
  3  4  1  0
  4  5  2  0
  5  6  1  0
  1  6  1  0
  7  8  2  0
  8  9  1  0
  6  7  1  0
  1  9  2  0
  5 10  1  0
 11 12  1  0
 12 13  2  0
 13 14  1  0
 14 15  2  0
 11 15  1  0
 15 16  1  0
 10 13  1  0
  3 17  1  0
 20 21  1  0
 21 22  1  0
 22 23  2  0
 23 24  1  0
 20 24  2  0
 25 26  2  0
 26 27  1  0
 27 28  2  0
 22 28  1  0
 23 25  1  0
 19 20  1  0
 18 19  1  0
  8 18  1  0
M  END
>  <Classification>  (1058) 
1

>  <pchembl>  (1058) 
5.8

>  <InChI_steorem>  (1058) 
InChI=1S/C18H17N9S/c1-10-8-16(22-14-7-11(2)24-25-14)27-17(19-10)23-18(26-27)28-9-15-20-12-5-3-4-6-13(12)21-15/h3-8H,9H2,1-2H3,(H,20,21)(H2,22,24,25)

>  <source>  (1058) 
ChEMBL30

>  <source_id>  (1058) 
30

>  <optional_reference>  (1058) 
10.1021/acs.jmedchem.0c01741

>  <optional_origin>  (1058) 
None

>  <target>  (1058) 
MDR1

$$$$

     RDKit          2D

 28 32  0  0  0  0  0  0  0  0999 V2000
   12.8962   -3.5137    0.0000 C   0  0  0  0  0  0  0  0  0  0  0  0
   12.1895   -3.9282    0.0000 C   0  0  0  0  0  0  0  0  0  0  0  0
   12.1981   -4.7508    0.0000 C   0  0  0  0  0  0  0  0  0  0  0  0
   12.9095   -5.1510    0.0000 N   0  0  0  0  0  0  0  0  0  0  0  0
   13.6071   -3.9177    0.0000 N   0  0  0  0  0  0  0  0  0  0  0  0
   13.6108   -4.7416    0.0000 C   0  0  0  0  0  0  0  0  0  0  0  0
   14.3955   -4.9927    0.0000 N   0  0  0  0  0  0  0  0  0  0  0  0
   14.8769   -4.3240    0.0000 C   0  0  0  0  0  0  0  0  0  0  0  0
   14.3896   -3.6597    0.0000 N   0  0  0  0  0  0  0  0  0  0  0  0
   15.6941   -4.3203    0.0000 S   0  0  0  0  0  0  0  0  0  0  0  0
   16.0995   -3.6107    0.0000 C   0  0  0  0  0  0  0  0  0  0  0  0
   16.9166   -3.6070    0.0000 C   0  0  0  0  0  0  0  0  0  0  0  0
   11.4948   -5.1670    0.0000 C   0  0  0  0  0  0  0  0  0  0  0  0
   12.8906   -2.6966    0.0000 N   0  0  0  0  0  0  0  0  0  0  0  0
   17.4013   -4.2605    0.0000 N   0  0  0  0  0  0  0  0  0  0  0  0
   17.3953   -2.9383    0.0000 N   0  0  0  0  0  0  0  0  0  0  0  0
   18.1737   -3.1872    0.0000 C   0  0  0  0  0  0  0  0  0  0  0  0
   18.1738   -4.0016    0.0000 C   0  0  0  0  0  0  0  0  0  0  0  0
   18.8780   -4.4070    0.0000 C   0  0  0  0  0  0  0  0  0  0  0  0
   19.5827   -3.9990    0.0000 C   0  0  0  0  0  0  0  0  0  0  0  0
   19.5786   -3.1815    0.0000 C   0  0  0  0  0  0  0  0  0  0  0  0
   18.8738   -2.7798    0.0000 C   0  0  0  0  0  0  0  0  0  0  0  0
   13.5956   -2.2832    0.0000 C   0  0  0  0  0  0  0  0  0  0  0  0
   14.3047   -2.6899    0.0000 C   0  0  0  0  0  0  0  0  0  0  0  0
   15.0091   -2.2771    0.0000 C   0  0  0  0  0  0  0  0  0  0  0  0
   15.0040   -1.4591    0.0000 C   0  0  0  0  0  0  0  0  0  0  0  0
   14.2885   -1.0555    0.0000 C   0  0  0  0  0  0  0  0  0  0  0  0
   13.5870   -1.4706    0.0000 C   0  0  0  0  0  0  0  0  0  0  0  0
  5  1  1  0
  1  2  2  0
  2  3  1  0
  3  4  2  0
  4  6  1  0
  5  6  1  0
  6  7  2  0
  7  8  1  0
  8  9  2  0
  9  5  1  0
  8 10  1  0
 10 11  1  0
 11 12  1  0
  3 13  1  0
  1 14  1  0
 12 15  1  0
 15 18  1  0
 17 16  1  0
 16 12  2  0
 17 18  2  0
 18 19  1  0
 19 20  2  0
 20 21  1  0
 21 22  2  0
 22 17  1  0
 14 23  1  0
 23 24  2  0
 24 25  1  0
 25 26  2  0
 26 27  1  0
 27 28  2  0
 28 23  1  0
M  END
>  <Classification>  (1059) 
1

>  <pchembl>  (1059) 
7.34

>  <InChI_steorem>  (1059) 
InChI=1S/C20H17N7S/c1-13-11-18(22-14-7-3-2-4-8-14)27-19(21-13)25-20(26-27)28-12-17-23-15-9-5-6-10-16(15)24-17/h2-11,22H,12H2,1H3,(H,23,24)

>  <source>  (1059) 
ChEMBL30

>  <source_id>  (1059) 
30

>  <optional_reference>  (1059) 
10.1021/acs.jmedchem.0c01741

>  <optional_origin>  (1059) 
None

>  <target>  (1059) 
MDR1

$$$$

     RDKit          2D

 29 32  0  0  0  0  0  0  0  0999 V2000
   10.4903   -6.9179    0.0000 C   0  0  0  0  0  0  0  0  0  0  0  0
    9.7793   -7.3273    0.0000 N   0  0  0  0  0  0  0  0  0  0  0  0
    9.0763   -6.9155    0.0000 C   0  0  0  0  0  0  0  0  0  0  0  0
    9.0759   -6.0983    0.0000 C   0  0  0  0  0  0  0  0  0  0  0  0
    9.7869   -5.6930    0.0000 C   0  0  0  0  0  0  0  0  0  0  0  0
   10.4941   -6.1007    0.0000 N   0  0  0  0  0  0  0  0  0  0  0  0
   11.2684   -5.8538    0.0000 N   0  0  0  0  0  0  0  0  0  0  0  0
   11.7496   -6.5151    0.0000 C   0  0  0  0  0  0  0  0  0  0  0  0
   11.2664   -7.1762    0.0000 N   0  0  0  0  0  0  0  0  0  0  0  0
    9.7865   -4.8758    0.0000 N   0  0  0  0  0  0  0  0  0  0  0  0
    8.3653   -7.3208    0.0000 C   0  0  0  0  0  0  0  0  0  0  0  0
    9.0835   -4.4639    0.0000 C   0  0  0  0  0  0  0  0  0  0  0  0
    9.0831   -3.6467    0.0000 C   0  0  0  0  0  0  0  0  0  0  0  0
    8.3801   -3.2349    0.0000 C   0  0  0  0  0  0  0  0  0  0  0  0
    7.6691   -3.6443    0.0000 C   0  0  0  0  0  0  0  0  0  0  0  0
    7.6653   -4.4615    0.0000 C   0  0  0  0  0  0  0  0  0  0  0  0
    8.3725   -4.8693    0.0000 C   0  0  0  0  0  0  0  0  0  0  0  0
    6.9619   -3.2325    0.0000 F   0  0  0  0  0  0  0  0  0  0  0  0
   12.5668   -6.5189    0.0000 S   0  0  0  0  0  0  0  0  0  0  0  0
   12.9721   -7.2257    0.0000 C   0  0  0  0  0  0  0  0  0  0  0  0
   13.7893   -7.2295    0.0000 C   0  0  0  0  0  0  0  0  0  0  0  0
   14.1946   -7.9405    0.0000 C   0  0  0  0  0  0  0  0  0  0  0  0
   15.0118   -7.9401    0.0000 C   0  0  0  0  0  0  0  0  0  0  0  0
   15.4236   -7.2329    0.0000 C   0  0  0  0  0  0  0  0  0  0  0  0
   15.0183   -6.5261    0.0000 C   0  0  0  0  0  0  0  0  0  0  0  0
   14.2011   -6.5223    0.0000 C   0  0  0  0  0  0  0  0  0  0  0  0
   15.4290   -5.8177    0.0000 N   0  0  0  0  0  0  0  0  0  0  0  0
   15.0231   -5.1085    0.0000 O   0  0  0  0  0  0  0  0  0  0  0  0
   16.2462   -5.8208    0.0000 O   0  0  0  0  0  0  0  0  0  0  0  0
  1  2  1  0
  2  3  2  0
  3  4  1  0
  4  5  2  0
  5  6  1  0
  1  6  1  0
  7  8  2  0
  8  9  1  0
  6  7  1  0
  1  9  2  0
  5 10  1  0
  3 11  1  0
 12 13  2  0
 13 14  1  0
 14 15  2  0
 15 16  1  0
 16 17  2  0
 12 17  1  0
 15 18  1  0
 10 12  1  0
 20 21  1  0
 21 22  2  0
 22 23  1  0
 23 24  2  0
 24 25  1  0
 25 26  2  0
 21 26  1  0
 19 20  1  0
  8 19  1  0
 27 28  2  0
 27 29  1  0
 25 27  1  0
M  CHG  2  27   1  29  -1
M  END
>  <Classification>  (1060) 
1

>  <pchembl>  (1060) 
5.7

>  <InChI_steorem>  (1060) 
InChI=1S/C19H15FN6O2S/c1-12-9-17(22-15-7-5-14(20)6-8-15)25-18(21-12)23-19(24-25)29-11-13-3-2-4-16(10-13)26(27)28/h2-10,22H,11H2,1H3

>  <source>  (1060) 
ChEMBL30

>  <source_id>  (1060) 
30

>  <optional_reference>  (1060) 
10.1021/acs.jmedchem.0c01741

>  <optional_origin>  (1060) 
None

>  <target>  (1060) 
MDR1

$$$$

     RDKit          2D

 29 32  0  0  0  0  0  0  0  0999 V2000
   10.4903   -6.9179    0.0000 C   0  0  0  0  0  0  0  0  0  0  0  0
    9.7793   -7.3273    0.0000 N   0  0  0  0  0  0  0  0  0  0  0  0
    9.0763   -6.9155    0.0000 C   0  0  0  0  0  0  0  0  0  0  0  0
    9.0759   -6.0983    0.0000 C   0  0  0  0  0  0  0  0  0  0  0  0
    9.7869   -5.6930    0.0000 C   0  0  0  0  0  0  0  0  0  0  0  0
   10.4941   -6.1007    0.0000 N   0  0  0  0  0  0  0  0  0  0  0  0
   11.2684   -5.8538    0.0000 N   0  0  0  0  0  0  0  0  0  0  0  0
   11.7496   -6.5151    0.0000 C   0  0  0  0  0  0  0  0  0  0  0  0
   11.2664   -7.1762    0.0000 N   0  0  0  0  0  0  0  0  0  0  0  0
    9.7865   -4.8758    0.0000 N   0  0  0  0  0  0  0  0  0  0  0  0
    8.3653   -7.3208    0.0000 C   0  0  0  0  0  0  0  0  0  0  0  0
    9.0835   -4.4639    0.0000 C   0  0  0  0  0  0  0  0  0  0  0  0
    9.0831   -3.6467    0.0000 C   0  0  0  0  0  0  0  0  0  0  0  0
    8.3801   -3.2349    0.0000 C   0  0  0  0  0  0  0  0  0  0  0  0
    7.6691   -3.6443    0.0000 C   0  0  0  0  0  0  0  0  0  0  0  0
    7.6653   -4.4615    0.0000 C   0  0  0  0  0  0  0  0  0  0  0  0
    8.3725   -4.8693    0.0000 C   0  0  0  0  0  0  0  0  0  0  0  0
    6.9619   -3.2325    0.0000 F   0  0  0  0  0  0  0  0  0  0  0  0
   12.5668   -6.5189    0.0000 S   0  0  0  0  0  0  0  0  0  0  0  0
   12.9721   -7.2257    0.0000 C   0  0  0  0  0  0  0  0  0  0  0  0
   13.7893   -7.2295    0.0000 C   0  0  0  0  0  0  0  0  0  0  0  0
   14.1946   -7.9405    0.0000 C   0  0  0  0  0  0  0  0  0  0  0  0
   15.0118   -7.9401    0.0000 C   0  0  0  0  0  0  0  0  0  0  0  0
   15.4236   -7.2329    0.0000 C   0  0  0  0  0  0  0  0  0  0  0  0
   15.0183   -6.5261    0.0000 C   0  0  0  0  0  0  0  0  0  0  0  0
   14.2011   -6.5223    0.0000 C   0  0  0  0  0  0  0  0  0  0  0  0
   16.2415   -7.2359    0.0000 N   0  0  0  0  0  0  0  0  0  0  0  0
   16.6525   -6.5296    0.0000 O   0  0  0  0  0  0  0  0  0  0  0  0
   16.6478   -7.9450    0.0000 O   0  0  0  0  0  0  0  0  0  0  0  0
  1  2  1  0
  2  3  2  0
  3  4  1  0
  4  5  2  0
  5  6  1  0
  1  6  1  0
  7  8  2  0
  8  9  1  0
  6  7  1  0
  1  9  2  0
  5 10  1  0
  3 11  1  0
 12 13  2  0
 13 14  1  0
 14 15  2  0
 15 16  1  0
 16 17  2  0
 12 17  1  0
 15 18  1  0
 10 12  1  0
 20 21  1  0
 21 22  2  0
 22 23  1  0
 23 24  2  0
 24 25  1  0
 25 26  2  0
 21 26  1  0
 19 20  1  0
  8 19  1  0
 27 28  2  0
 27 29  1  0
 24 27  1  0
M  CHG  2  27   1  29  -1
M  END
>  <Classification>  (1061) 
1

>  <pchembl>  (1061) 
5.64

>  <InChI_steorem>  (1061) 
InChI=1S/C19H15FN6O2S/c1-12-10-17(22-15-6-4-14(20)5-7-15)25-18(21-12)23-19(24-25)29-11-13-2-8-16(9-3-13)26(27)28/h2-10,22H,11H2,1H3

>  <source>  (1061) 
ChEMBL30

>  <source_id>  (1061) 
30

>  <optional_reference>  (1061) 
10.1021/acs.jmedchem.0c01741

>  <optional_origin>  (1061) 
None

>  <target>  (1061) 
MDR1

$$$$

     RDKit          2D

 29 32  0  0  0  0  0  0  0  0999 V2000
   14.9804  -21.9816    0.0000 C   0  0  0  0  0  0  0  0  0  0  0  0
   14.9793  -22.8011    0.0000 C   0  0  0  0  0  0  0  0  0  0  0  0
   15.6873  -23.2101    0.0000 C   0  0  0  0  0  0  0  0  0  0  0  0
   16.3970  -22.8006    0.0000 C   0  0  0  0  0  0  0  0  0  0  0  0
   16.3942  -21.9780    0.0000 C   0  0  0  0  0  0  0  0  0  0  0  0
   15.6855  -21.5727    0.0000 C   0  0  0  0  0  0  0  0  0  0  0  0
   14.2712  -23.2092    0.0000 N   0  0  0  0  0  0  0  0  0  0  0  0
   14.2706  -24.0263    0.0000 C   0  0  0  0  0  0  0  0  0  0  0  0
   13.5625  -24.4328    0.0000 C   0  0  0  0  0  0  0  0  0  0  0  0
   13.5615  -25.2493    0.0000 C   0  0  0  0  0  0  0  0  0  0  0  0
   14.2694  -25.6592    0.0000 N   0  0  0  0  0  0  0  0  0  0  0  0
   14.9798  -25.2468    0.0000 C   0  0  0  0  0  0  0  0  0  0  0  0
   14.9773  -24.4317    0.0000 N   0  0  0  0  0  0  0  0  0  0  0  0
   15.6862  -25.6507    0.0000 C   0  0  0  0  0  0  0  0  0  0  0  0
   15.6871  -26.4690    0.0000 C   0  0  0  0  0  0  0  0  0  0  0  0
   16.3951  -26.8756    0.0000 C   0  0  0  0  0  0  0  0  0  0  0  0
   17.1026  -26.4650    0.0000 C   0  0  0  0  0  0  0  0  0  0  0  0
   17.0978  -25.6436    0.0000 C   0  0  0  0  0  0  0  0  0  0  0  0
   16.3892  -25.2407    0.0000 C   0  0  0  0  0  0  0  0  0  0  0  0
   17.0981  -21.5655    0.0000 C   0  0  0  0  0  0  0  0  0  0  0  0
   17.8042  -21.1543    0.0000 N   0  0  0  0  0  0  0  0  0  0  0  0
   12.8563  -25.6559    0.0000 N   0  0  0  0  0  0  0  0  0  0  0  0
   12.8559  -26.4731    0.0000 C   0  0  0  0  0  0  0  0  0  0  0  0
   12.1480  -26.8813    0.0000 C   0  0  0  0  0  0  0  0  0  0  0  0
   11.4423  -26.4684    0.0000 N   0  0  0  0  0  0  0  0  0  0  0  0
   10.7349  -26.8760    0.0000 C   0  0  0  0  0  0  0  0  0  0  0  0
   10.7340  -27.6941    0.0000 C   0  0  0  0  0  0  0  0  0  0  0  0
   11.4465  -28.1029    0.0000 C   0  0  0  0  0  0  0  0  0  0  0  0
   12.1510  -27.6930    0.0000 C   0  0  0  0  0  0  0  0  0  0  0  0
  1  2  2  0
  2  3  1  0
  3  4  2  0
  4  5  1  0
  5  6  2  0
  6  1  1  0
  2  7  1  0
  7  8  1  0
  8  9  2  0
  9 10  1  0
 10 11  2  0
 11 12  1  0
 12 13  2  0
 13  8  1  0
 14 15  2  0
 15 16  1  0
 16 17  2  0
 17 18  1  0
 18 19  2  0
 19 14  1  0
 12 14  1  0
 20 21  3  0
  5 20  1  0
 10 22  1  0
 22 23  1  0
 23 24  1  0
 24 25  2  0
 25 26  1  0
 26 27  2  0
 27 28  1  0
 28 29  2  0
 29 24  1  0
M  END
>  <Classification>  (1062) 
1

>  <pchembl>  (1062) 
5.47

>  <InChI_steorem>  (1062) 
InChI=1S/C23H18N6/c24-15-17-9-11-19(12-10-17)27-22-14-21(26-16-20-8-4-5-13-25-20)28-23(29-22)18-6-2-1-3-7-18/h1-14H,16H2,(H2,26,27,28,29)

>  <source>  (1062) 
ChEMBL30

>  <source_id>  (1062) 
30

>  <optional_reference>  (1062) 
10.1016/j.ejmech.2020.113045

>  <optional_origin>  (1062) 
None

>  <target>  (1062) 
MDR1

$$$$

     RDKit          2D

 29 32  0  0  0  0  0  0  0  0999 V2000
   20.3706  -11.7048    0.0000 C   0  0  0  0  0  0  0  0  0  0  0  0
   20.3694  -12.5243    0.0000 C   0  0  0  0  0  0  0  0  0  0  0  0
   21.0775  -12.9333    0.0000 C   0  0  0  0  0  0  0  0  0  0  0  0
   21.7871  -12.5238    0.0000 C   0  0  0  0  0  0  0  0  0  0  0  0
   21.7843  -11.7012    0.0000 C   0  0  0  0  0  0  0  0  0  0  0  0
   21.0757  -11.2959    0.0000 C   0  0  0  0  0  0  0  0  0  0  0  0
   19.6614  -12.9324    0.0000 N   0  0  0  0  0  0  0  0  0  0  0  0
   19.6608  -13.7495    0.0000 C   0  0  0  0  0  0  0  0  0  0  0  0
   18.9526  -14.1560    0.0000 C   0  0  0  0  0  0  0  0  0  0  0  0
   18.9516  -14.9725    0.0000 C   0  0  0  0  0  0  0  0  0  0  0  0
   19.6595  -15.3824    0.0000 N   0  0  0  0  0  0  0  0  0  0  0  0
   20.3699  -14.9700    0.0000 C   0  0  0  0  0  0  0  0  0  0  0  0
   20.3674  -14.1549    0.0000 N   0  0  0  0  0  0  0  0  0  0  0  0
   21.0763  -15.3739    0.0000 C   0  0  0  0  0  0  0  0  0  0  0  0
   21.0772  -16.1922    0.0000 C   0  0  0  0  0  0  0  0  0  0  0  0
   21.7852  -16.5988    0.0000 C   0  0  0  0  0  0  0  0  0  0  0  0
   22.4928  -16.1882    0.0000 C   0  0  0  0  0  0  0  0  0  0  0  0
   22.4879  -15.3668    0.0000 C   0  0  0  0  0  0  0  0  0  0  0  0
   21.7794  -14.9639    0.0000 C   0  0  0  0  0  0  0  0  0  0  0  0
   22.4882  -11.2887    0.0000 C   0  0  0  0  0  0  0  0  0  0  0  0
   23.1944  -10.8775    0.0000 N   0  0  0  0  0  0  0  0  0  0  0  0
   18.2465  -15.3791    0.0000 N   0  0  0  0  0  0  0  0  0  0  0  0
   18.2461  -16.1963    0.0000 C   0  0  0  0  0  0  0  0  0  0  0  0
   17.5369  -16.6025    0.0000 C   0  0  0  0  0  0  0  0  0  0  0  0
   17.5362  -17.4189    0.0000 C   0  0  0  0  0  0  0  0  0  0  0  0
   18.2442  -17.8287    0.0000 C   0  0  0  0  0  0  0  0  0  0  0  0
   18.9545  -17.4161    0.0000 C   0  0  0  0  0  0  0  0  0  0  0  0
   18.9518  -16.6010    0.0000 C   0  0  0  0  0  0  0  0  0  0  0  0
   16.8281  -17.8268    0.0000 O   0  0  0  0  0  0  0  0  0  0  0  0
  1  2  2  0
  2  3  1  0
  3  4  2  0
  4  5  1  0
  5  6  2  0
  6  1  1  0
  2  7  1  0
  7  8  1  0
  8  9  2  0
  9 10  1  0
 10 11  2  0
 11 12  1  0
 12 13  2  0
 13  8  1  0
 14 15  2  0
 15 16  1  0
 16 17  2  0
 17 18  1  0
 18 19  2  0
 19 14  1  0
 12 14  1  0
 20 21  3  0
  5 20  1  0
 10 22  1  0
 22 23  1  0
 23 24  2  0
 24 25  1  0
 25 26  2  0
 26 27  1  0
 27 28  2  0
 28 23  1  0
 25 29  1  0
M  END
>  <Classification>  (1063) 
1

>  <pchembl>  (1063) 
5.45

>  <InChI_steorem>  (1063) 
InChI=1S/C23H17N5O/c24-15-16-9-11-18(12-10-16)25-21-14-22(26-19-7-4-8-20(29)13-19)28-23(27-21)17-5-2-1-3-6-17/h1-14,29H,(H2,25,26,27,28)

>  <source>  (1063) 
ChEMBL30

>  <source_id>  (1063) 
30

>  <optional_reference>  (1063) 
10.1016/j.ejmech.2020.113045

>  <optional_origin>  (1063) 
None

>  <target>  (1063) 
MDR1

$$$$

     RDKit          2D

 29 32  0  0  0  0  0  0  0  0999 V2000
   22.2732  -21.6720    0.0000 C   0  0  0  0  0  0  0  0  0  0  0  0
   22.2721  -22.4916    0.0000 C   0  0  0  0  0  0  0  0  0  0  0  0
   22.9801  -22.9005    0.0000 C   0  0  0  0  0  0  0  0  0  0  0  0
   23.6898  -22.4911    0.0000 C   0  0  0  0  0  0  0  0  0  0  0  0
   23.6870  -21.6684    0.0000 C   0  0  0  0  0  0  0  0  0  0  0  0
   22.9783  -21.2632    0.0000 C   0  0  0  0  0  0  0  0  0  0  0  0
   21.5641  -22.8996    0.0000 N   0  0  0  0  0  0  0  0  0  0  0  0
   21.5634  -23.7168    0.0000 C   0  0  0  0  0  0  0  0  0  0  0  0
   20.8553  -24.1233    0.0000 C   0  0  0  0  0  0  0  0  0  0  0  0
   20.8543  -24.9397    0.0000 C   0  0  0  0  0  0  0  0  0  0  0  0
   21.5622  -25.3497    0.0000 N   0  0  0  0  0  0  0  0  0  0  0  0
   22.2726  -24.9373    0.0000 C   0  0  0  0  0  0  0  0  0  0  0  0
   22.2701  -24.1222    0.0000 N   0  0  0  0  0  0  0  0  0  0  0  0
   22.9790  -25.3412    0.0000 C   0  0  0  0  0  0  0  0  0  0  0  0
   22.9799  -26.1595    0.0000 C   0  0  0  0  0  0  0  0  0  0  0  0
   23.6879  -26.5660    0.0000 C   0  0  0  0  0  0  0  0  0  0  0  0
   24.3954  -26.1554    0.0000 C   0  0  0  0  0  0  0  0  0  0  0  0
   24.3906  -25.3340    0.0000 C   0  0  0  0  0  0  0  0  0  0  0  0
   23.6820  -24.9312    0.0000 C   0  0  0  0  0  0  0  0  0  0  0  0
   24.3909  -21.2560    0.0000 C   0  0  0  0  0  0  0  0  0  0  0  0
   25.0971  -20.8447    0.0000 N   0  0  0  0  0  0  0  0  0  0  0  0
   20.1491  -25.3464    0.0000 N   0  0  0  0  0  0  0  0  0  0  0  0
   20.1487  -26.1635    0.0000 C   0  0  0  0  0  0  0  0  0  0  0  0
   19.4408  -26.5718    0.0000 C   0  0  0  0  0  0  0  0  0  0  0  0
   18.7351  -26.1589    0.0000 C   0  0  0  0  0  0  0  0  0  0  0  0
   18.0277  -26.5665    0.0000 N   0  0  0  0  0  0  0  0  0  0  0  0
   18.0268  -27.3845    0.0000 C   0  0  0  0  0  0  0  0  0  0  0  0
   18.7393  -27.7933    0.0000 C   0  0  0  0  0  0  0  0  0  0  0  0
   19.4438  -27.3834    0.0000 C   0  0  0  0  0  0  0  0  0  0  0  0
  1  2  2  0
  2  3  1  0
  3  4  2  0
  4  5  1  0
  5  6  2  0
  6  1  1  0
  2  7  1  0
  7  8  1  0
  8  9  2  0
  9 10  1  0
 10 11  2  0
 11 12  1  0
 12 13  2  0
 13  8  1  0
 14 15  2  0
 15 16  1  0
 16 17  2  0
 17 18  1  0
 18 19  2  0
 19 14  1  0
 12 14  1  0
 20 21  3  0
  5 20  1  0
 10 22  1  0
 22 23  1  0
 23 24  1  0
 24 25  2  0
 25 26  1  0
 26 27  2  0
 27 28  1  0
 28 29  2  0
 29 24  1  0
M  END
>  <Classification>  (1064) 
1

>  <pchembl>  (1064) 
5.27

>  <InChI_steorem>  (1064) 
InChI=1S/C23H18N6/c24-14-17-8-10-20(11-9-17)27-22-13-21(26-16-18-5-4-12-25-15-18)28-23(29-22)19-6-2-1-3-7-19/h1-13,15H,16H2,(H2,26,27,28,29)

>  <source>  (1064) 
ChEMBL30

>  <source_id>  (1064) 
30

>  <optional_reference>  (1064) 
10.1016/j.ejmech.2020.113045

>  <optional_origin>  (1064) 
None

>  <target>  (1064) 
MDR1

$$$$

     RDKit          2D

 29 32  0  0  0  0  0  0  0  0999 V2000
   30.9074  -13.0709    0.0000 C   0  0  0  0  0  0  0  0  0  0  0  0
   30.9063  -13.8904    0.0000 C   0  0  0  0  0  0  0  0  0  0  0  0
   31.6143  -14.2994    0.0000 C   0  0  0  0  0  0  0  0  0  0  0  0
   32.3240  -13.8900    0.0000 C   0  0  0  0  0  0  0  0  0  0  0  0
   32.3211  -13.0673    0.0000 C   0  0  0  0  0  0  0  0  0  0  0  0
   31.6125  -12.6620    0.0000 C   0  0  0  0  0  0  0  0  0  0  0  0
   30.1982  -14.2985    0.0000 N   0  0  0  0  0  0  0  0  0  0  0  0
   30.1976  -15.1157    0.0000 C   0  0  0  0  0  0  0  0  0  0  0  0
   29.4894  -15.5221    0.0000 C   0  0  0  0  0  0  0  0  0  0  0  0
   29.4884  -16.3386    0.0000 C   0  0  0  0  0  0  0  0  0  0  0  0
   30.1964  -16.7485    0.0000 N   0  0  0  0  0  0  0  0  0  0  0  0
   30.9067  -16.3361    0.0000 C   0  0  0  0  0  0  0  0  0  0  0  0
   30.9042  -15.5210    0.0000 N   0  0  0  0  0  0  0  0  0  0  0  0
   31.6132  -16.7400    0.0000 C   0  0  0  0  0  0  0  0  0  0  0  0
   31.6141  -17.5583    0.0000 C   0  0  0  0  0  0  0  0  0  0  0  0
   32.3220  -17.9649    0.0000 C   0  0  0  0  0  0  0  0  0  0  0  0
   33.0296  -17.5543    0.0000 C   0  0  0  0  0  0  0  0  0  0  0  0
   33.0247  -16.7329    0.0000 C   0  0  0  0  0  0  0  0  0  0  0  0
   32.3162  -16.3300    0.0000 C   0  0  0  0  0  0  0  0  0  0  0  0
   33.0251  -12.6548    0.0000 C   0  0  0  0  0  0  0  0  0  0  0  0
   33.7312  -12.2436    0.0000 N   0  0  0  0  0  0  0  0  0  0  0  0
   28.7833  -16.7452    0.0000 N   0  0  0  0  0  0  0  0  0  0  0  0
   28.7829  -17.5624    0.0000 C   0  0  0  0  0  0  0  0  0  0  0  0
   28.0750  -17.9706    0.0000 C   0  0  0  0  0  0  0  0  0  0  0  0
   27.3693  -17.5578    0.0000 C   0  0  0  0  0  0  0  0  0  0  0  0
   26.6618  -17.9653    0.0000 C   0  0  0  0  0  0  0  0  0  0  0  0
   26.6610  -18.7834    0.0000 C   0  0  0  0  0  0  0  0  0  0  0  0
   27.3734  -19.1922    0.0000 C   0  0  0  0  0  0  0  0  0  0  0  0
   28.0780  -18.7823    0.0000 C   0  0  0  0  0  0  0  0  0  0  0  0
  1  2  2  0
  2  3  1  0
  3  4  2  0
  4  5  1  0
  5  6  2  0
  6  1  1  0
  2  7  1  0
  7  8  1  0
  8  9  2  0
  9 10  1  0
 10 11  2  0
 11 12  1  0
 12 13  2  0
 13  8  1  0
 14 15  2  0
 15 16  1  0
 16 17  2  0
 17 18  1  0
 18 19  2  0
 19 14  1  0
 12 14  1  0
 20 21  3  0
  5 20  1  0
 10 22  1  0
 22 23  1  0
 23 24  1  0
 24 25  2  0
 25 26  1  0
 26 27  2  0
 27 28  1  0
 28 29  2  0
 29 24  1  0
M  END
>  <Classification>  (1065) 
1

>  <pchembl>  (1065) 
5.35

>  <InChI_steorem>  (1065) 
InChI=1S/C24H19N5/c25-16-18-11-13-21(14-12-18)27-23-15-22(26-17-19-7-3-1-4-8-19)28-24(29-23)20-9-5-2-6-10-20/h1-15H,17H2,(H2,26,27,28,29)

>  <source>  (1065) 
ChEMBL30

>  <source_id>  (1065) 
30

>  <optional_reference>  (1065) 
10.1016/j.ejmech.2020.113045

>  <optional_origin>  (1065) 
None

>  <target>  (1065) 
MDR1

$$$$

     RDKit          2D

 29 32  0  0  0  0  0  0  0  0999 V2000
   31.5265  -21.0199    0.0000 C   0  0  0  0  0  0  0  0  0  0  0  0
   31.5253  -21.8395    0.0000 C   0  0  0  0  0  0  0  0  0  0  0  0
   32.2334  -22.2484    0.0000 C   0  0  0  0  0  0  0  0  0  0  0  0
   32.9430  -21.8390    0.0000 C   0  0  0  0  0  0  0  0  0  0  0  0
   32.9402  -21.0163    0.0000 C   0  0  0  0  0  0  0  0  0  0  0  0
   32.2316  -20.6111    0.0000 C   0  0  0  0  0  0  0  0  0  0  0  0
   30.8173  -22.2475    0.0000 N   0  0  0  0  0  0  0  0  0  0  0  0
   30.8167  -23.0647    0.0000 C   0  0  0  0  0  0  0  0  0  0  0  0
   30.1085  -23.4712    0.0000 C   0  0  0  0  0  0  0  0  0  0  0  0
   30.1075  -24.2876    0.0000 C   0  0  0  0  0  0  0  0  0  0  0  0
   30.8154  -24.6976    0.0000 N   0  0  0  0  0  0  0  0  0  0  0  0
   31.5258  -24.2852    0.0000 C   0  0  0  0  0  0  0  0  0  0  0  0
   31.5233  -23.4701    0.0000 N   0  0  0  0  0  0  0  0  0  0  0  0
   32.2322  -24.6891    0.0000 C   0  0  0  0  0  0  0  0  0  0  0  0
   32.2331  -25.5074    0.0000 C   0  0  0  0  0  0  0  0  0  0  0  0
   32.9411  -25.9139    0.0000 C   0  0  0  0  0  0  0  0  0  0  0  0
   33.6487  -25.5033    0.0000 C   0  0  0  0  0  0  0  0  0  0  0  0
   33.6438  -24.6819    0.0000 C   0  0  0  0  0  0  0  0  0  0  0  0
   32.9353  -24.2791    0.0000 C   0  0  0  0  0  0  0  0  0  0  0  0
   33.6441  -20.6039    0.0000 C   0  0  0  0  0  0  0  0  0  0  0  0
   34.3503  -20.1926    0.0000 N   0  0  0  0  0  0  0  0  0  0  0  0
   29.4024  -24.6943    0.0000 N   0  0  0  0  0  0  0  0  0  0  0  0
   29.4020  -25.5114    0.0000 C   0  0  0  0  0  0  0  0  0  0  0  0
   28.6940  -25.9197    0.0000 C   0  0  0  0  0  0  0  0  0  0  0  0
   27.9883  -25.5068    0.0000 C   0  0  0  0  0  0  0  0  0  0  0  0
   27.2809  -25.9144    0.0000 C   0  0  0  0  0  0  0  0  0  0  0  0
   27.2801  -26.7324    0.0000 N   0  0  0  0  0  0  0  0  0  0  0  0
   27.9925  -27.1412    0.0000 C   0  0  0  0  0  0  0  0  0  0  0  0
   28.6970  -26.7313    0.0000 C   0  0  0  0  0  0  0  0  0  0  0  0
  1  2  2  0
  2  3  1  0
  3  4  2  0
  4  5  1  0
  5  6  2  0
  6  1  1  0
  2  7  1  0
  7  8  1  0
  8  9  2  0
  9 10  1  0
 10 11  2  0
 11 12  1  0
 12 13  2  0
 13  8  1  0
 14 15  2  0
 15 16  1  0
 16 17  2  0
 17 18  1  0
 18 19  2  0
 19 14  1  0
 12 14  1  0
 20 21  3  0
  5 20  1  0
 10 22  1  0
 22 23  1  0
 23 24  1  0
 24 25  2  0
 25 26  1  0
 26 27  2  0
 27 28  1  0
 28 29  2  0
 29 24  1  0
M  END
>  <Classification>  (1066) 
1

>  <pchembl>  (1066) 
5.37

>  <InChI_steorem>  (1066) 
InChI=1S/C23H18N6/c24-15-17-6-8-20(9-7-17)27-22-14-21(26-16-18-10-12-25-13-11-18)28-23(29-22)19-4-2-1-3-5-19/h1-14H,16H2,(H2,26,27,28,29)

>  <source>  (1066) 
ChEMBL30

>  <source_id>  (1066) 
30

>  <optional_reference>  (1066) 
10.1016/j.ejmech.2020.113045

>  <optional_origin>  (1066) 
None

>  <target>  (1066) 
MDR1

$$$$

     RDKit          2D

 29 32  0  0  0  0  0  0  0  0999 V2000
   40.4867  -21.8247    0.0000 C   0  0  0  0  0  0  0  0  0  0  0  0
   40.4855  -22.6443    0.0000 C   0  0  0  0  0  0  0  0  0  0  0  0
   41.1936  -23.0532    0.0000 C   0  0  0  0  0  0  0  0  0  0  0  0
   41.9033  -22.6438    0.0000 C   0  0  0  0  0  0  0  0  0  0  0  0
   41.9004  -21.8211    0.0000 C   0  0  0  0  0  0  0  0  0  0  0  0
   41.1918  -21.4159    0.0000 C   0  0  0  0  0  0  0  0  0  0  0  0
   39.7775  -23.0523    0.0000 N   0  0  0  0  0  0  0  0  0  0  0  0
   39.7769  -23.8695    0.0000 C   0  0  0  0  0  0  0  0  0  0  0  0
   39.0687  -24.2760    0.0000 C   0  0  0  0  0  0  0  0  0  0  0  0
   39.0677  -25.0924    0.0000 C   0  0  0  0  0  0  0  0  0  0  0  0
   39.7757  -25.5024    0.0000 N   0  0  0  0  0  0  0  0  0  0  0  0
   40.4860  -25.0900    0.0000 C   0  0  0  0  0  0  0  0  0  0  0  0
   40.4835  -24.2749    0.0000 N   0  0  0  0  0  0  0  0  0  0  0  0
   41.1924  -25.4939    0.0000 C   0  0  0  0  0  0  0  0  0  0  0  0
   41.1933  -26.3122    0.0000 C   0  0  0  0  0  0  0  0  0  0  0  0
   41.9013  -26.7187    0.0000 C   0  0  0  0  0  0  0  0  0  0  0  0
   42.6089  -26.3082    0.0000 C   0  0  0  0  0  0  0  0  0  0  0  0
   42.6040  -25.4867    0.0000 C   0  0  0  0  0  0  0  0  0  0  0  0
   41.8955  -25.0839    0.0000 C   0  0  0  0  0  0  0  0  0  0  0  0
   42.6044  -21.4087    0.0000 C   0  0  0  0  0  0  0  0  0  0  0  0
   43.3105  -20.9974    0.0000 N   0  0  0  0  0  0  0  0  0  0  0  0
   38.3626  -25.4991    0.0000 N   0  0  0  0  0  0  0  0  0  0  0  0
   38.3622  -26.3163    0.0000 C   0  0  0  0  0  0  0  0  0  0  0  0
   37.6531  -26.7225    0.0000 C   0  0  0  0  0  0  0  0  0  0  0  0
   37.6523  -27.5389    0.0000 C   0  0  0  0  0  0  0  0  0  0  0  0
   38.3603  -27.9487    0.0000 C   0  0  0  0  0  0  0  0  0  0  0  0
   39.0706  -27.5361    0.0000 C   0  0  0  0  0  0  0  0  0  0  0  0
   39.0679  -26.7210    0.0000 C   0  0  0  0  0  0  0  0  0  0  0  0
   36.9462  -26.3124    0.0000 O   0  0  0  0  0  0  0  0  0  0  0  0
  1  2  2  0
  2  3  1  0
  3  4  2  0
  4  5  1  0
  5  6  2  0
  6  1  1  0
  2  7  1  0
  7  8  1  0
  8  9  2  0
  9 10  1  0
 10 11  2  0
 11 12  1  0
 12 13  2  0
 13  8  1  0
 14 15  2  0
 15 16  1  0
 16 17  2  0
 17 18  1  0
 18 19  2  0
 19 14  1  0
 12 14  1  0
 20 21  3  0
  5 20  1  0
 10 22  1  0
 22 23  1  0
 23 24  2  0
 24 25  1  0
 25 26  2  0
 26 27  1  0
 27 28  2  0
 28 23  1  0
 24 29  1  0
M  END
>  <Classification>  (1067) 
1

>  <pchembl>  (1067) 
5.53

>  <InChI_steorem>  (1067) 
InChI=1S/C23H17N5O/c24-15-16-10-12-18(13-11-16)25-21-14-22(26-19-8-4-5-9-20(19)29)28-23(27-21)17-6-2-1-3-7-17/h1-14,29H,(H2,25,26,27,28)

>  <source>  (1067) 
ChEMBL30

>  <source_id>  (1067) 
30

>  <optional_reference>  (1067) 
10.1016/j.ejmech.2020.113045

>  <optional_origin>  (1067) 
None

>  <target>  (1067) 
MDR1

$$$$

     RDKit          2D

 29 32  0  0  0  0  0  0  0  0999 V2000
    4.6252   -2.9551    0.0000 C   0  0  0  0  0  0  0  0  0  0  0  0
    4.6241   -3.7746    0.0000 C   0  0  0  0  0  0  0  0  0  0  0  0
    5.3321   -4.1836    0.0000 C   0  0  0  0  0  0  0  0  0  0  0  0
    6.0418   -3.7741    0.0000 C   0  0  0  0  0  0  0  0  0  0  0  0
    6.0389   -2.9515    0.0000 C   0  0  0  0  0  0  0  0  0  0  0  0
    5.3303   -2.5462    0.0000 C   0  0  0  0  0  0  0  0  0  0  0  0
    3.9160   -4.1826    0.0000 N   0  0  0  0  0  0  0  0  0  0  0  0
    3.9154   -4.9998    0.0000 C   0  0  0  0  0  0  0  0  0  0  0  0
    3.2072   -5.4063    0.0000 C   0  0  0  0  0  0  0  0  0  0  0  0
    3.2062   -6.2227    0.0000 C   0  0  0  0  0  0  0  0  0  0  0  0
    3.9142   -6.6327    0.0000 N   0  0  0  0  0  0  0  0  0  0  0  0
    4.6245   -6.2203    0.0000 C   0  0  0  0  0  0  0  0  0  0  0  0
    4.6220   -5.4052    0.0000 N   0  0  0  0  0  0  0  0  0  0  0  0
    5.3310   -6.6242    0.0000 C   0  0  0  0  0  0  0  0  0  0  0  0
    5.3319   -7.4425    0.0000 C   0  0  0  0  0  0  0  0  0  0  0  0
    6.0399   -7.8491    0.0000 C   0  0  0  0  0  0  0  0  0  0  0  0
    6.7474   -7.4385    0.0000 C   0  0  0  0  0  0  0  0  0  0  0  0
    6.7425   -6.6171    0.0000 C   0  0  0  0  0  0  0  0  0  0  0  0
    6.0340   -6.2142    0.0000 C   0  0  0  0  0  0  0  0  0  0  0  0
    6.7429   -2.5390    0.0000 C   0  0  0  0  0  0  0  0  0  0  0  0
    7.4490   -2.1278    0.0000 N   0  0  0  0  0  0  0  0  0  0  0  0
    2.5011   -6.6294    0.0000 N   0  0  0  0  0  0  0  0  0  0  0  0
    2.5007   -7.4466    0.0000 C   0  0  0  0  0  0  0  0  0  0  0  0
    1.7916   -7.8528    0.0000 C   0  0  0  0  0  0  0  0  0  0  0  0
    1.7908   -8.6692    0.0000 C   0  0  0  0  0  0  0  0  0  0  0  0
    2.4988   -9.0790    0.0000 C   0  0  0  0  0  0  0  0  0  0  0  0
    3.2091   -8.6664    0.0000 C   0  0  0  0  0  0  0  0  0  0  0  0
    3.2064   -7.8513    0.0000 C   0  0  0  0  0  0  0  0  0  0  0  0
    2.4995   -9.8962    0.0000 O   0  0  0  0  0  0  0  0  0  0  0  0
  1  2  2  0
  2  3  1  0
  3  4  2  0
  4  5  1  0
  5  6  2  0
  6  1  1  0
  2  7  1  0
  7  8  1  0
  8  9  2  0
  9 10  1  0
 10 11  2  0
 11 12  1  0
 12 13  2  0
 13  8  1  0
 14 15  2  0
 15 16  1  0
 16 17  2  0
 17 18  1  0
 18 19  2  0
 19 14  1  0
 12 14  1  0
 20 21  3  0
  5 20  1  0
 10 22  1  0
 22 23  1  0
 23 24  2  0
 24 25  1  0
 25 26  2  0
 26 27  1  0
 27 28  2  0
 28 23  1  0
 26 29  1  0
M  END
>  <Classification>  (1068) 
1

>  <pchembl>  (1068) 
5.34

>  <InChI_steorem>  (1068) 
InChI=1S/C23H17N5O/c24-15-16-6-8-18(9-7-16)25-21-14-22(26-19-10-12-20(29)13-11-19)28-23(27-21)17-4-2-1-3-5-17/h1-14,29H,(H2,25,26,27,28)

>  <source>  (1068) 
ChEMBL30

>  <source_id>  (1068) 
30

>  <optional_reference>  (1068) 
10.1016/j.ejmech.2020.113045

>  <optional_origin>  (1068) 
None

>  <target>  (1068) 
MDR1

$$$$

     RDKit          2D

 29 33  0  0  0  0  0  0  0  0999 V2000
   11.0485  -11.4401    0.0000 C   0  0  0  0  0  0  0  0  0  0  0  0
   10.3473  -11.8540    0.0000 N   0  0  0  0  0  0  0  0  0  0  0  0
    9.6346  -11.4549    0.0000 C   0  0  0  0  0  0  0  0  0  0  0  0
    9.6230  -10.6378    0.0000 C   0  0  0  0  0  0  0  0  0  0  0  0
   10.3283  -10.2198    0.0000 C   0  0  0  0  0  0  0  0  0  0  0  0
   11.0369  -10.6230    0.0000 N   0  0  0  0  0  0  0  0  0  0  0  0
   11.8133  -10.3576    0.0000 N   0  0  0  0  0  0  0  0  0  0  0  0
   12.3020  -11.0157    0.0000 C   0  0  0  0  0  0  0  0  0  0  0  0
   11.8304  -11.6840    0.0000 N   0  0  0  0  0  0  0  0  0  0  0  0
   10.3168   -9.4027    0.0000 N   0  0  0  0  0  0  0  0  0  0  0  0
    8.9334  -11.8729    0.0000 C   0  0  0  0  0  0  0  0  0  0  0  0
    9.6041   -9.0036    0.0000 C   0  0  0  0  0  0  0  0  0  0  0  0
    9.5925   -8.1865    0.0000 C   0  0  0  0  0  0  0  0  0  0  0  0
    8.8798   -7.7874    0.0000 C   0  0  0  0  0  0  0  0  0  0  0  0
    8.1786   -8.2054    0.0000 C   0  0  0  0  0  0  0  0  0  0  0  0
    8.1861   -9.0225    0.0000 C   0  0  0  0  0  0  0  0  0  0  0  0
    8.8988   -9.4216    0.0000 C   0  0  0  0  0  0  0  0  0  0  0  0
   10.2937   -7.7685    0.0000 F   0  0  0  0  0  0  0  0  0  0  0  0
   13.1191  -11.0041    0.0000 S   0  0  0  0  0  0  0  0  0  0  0  0
   13.5371  -11.7053    0.0000 C   0  0  0  0  0  0  0  0  0  0  0  0
   14.3542  -11.6979    0.0000 C   0  0  0  0  0  0  0  0  0  0  0  0
   14.8257  -11.0296    0.0000 N   0  0  0  0  0  0  0  0  0  0  0  0
   15.6077  -11.2734    0.0000 C   0  0  0  0  0  0  0  0  0  0  0  0
   15.6151  -12.0905    0.0000 C   0  0  0  0  0  0  0  0  0  0  0  0
   14.8428  -12.3518    0.0000 N   0  0  0  0  0  0  0  0  0  0  0  0
   16.3278  -12.4896    0.0000 C   0  0  0  0  0  0  0  0  0  0  0  0
   17.0331  -12.0716    0.0000 C   0  0  0  0  0  0  0  0  0  0  0  0
   17.0215  -11.2545    0.0000 C   0  0  0  0  0  0  0  0  0  0  0  0
   16.3088  -10.8554    0.0000 C   0  0  0  0  0  0  0  0  0  0  0  0
  1  2  1  0
  2  3  2  0
  3  4  1  0
  4  5  2  0
  5  6  1  0
  1  6  1  0
  7  8  2  0
  8  9  1  0
  6  7  1  0
  1  9  2  0
  5 10  1  0
  3 11  1  0
 12 13  2  0
 13 14  1  0
 14 15  2  0
 15 16  1  0
 16 17  2  0
 12 17  1  0
 13 18  1  0
 10 12  1  0
 21 22  1  0
 22 23  1  0
 23 24  2  0
 24 25  1  0
 21 25  2  0
 26 27  2  0
 27 28  1  0
 28 29  2  0
 23 29  1  0
 24 26  1  0
 20 21  1  0
 19 20  1  0
  8 19  1  0
M  END
>  <Classification>  (1069) 
1

>  <pchembl>  (1069) 
6.66

>  <InChI_steorem>  (1069) 
InChI=1S/C20H16FN7S/c1-12-10-18(25-14-7-3-2-6-13(14)21)28-19(22-12)26-20(27-28)29-11-17-23-15-8-4-5-9-16(15)24-17/h2-10,25H,11H2,1H3,(H,23,24)

>  <source>  (1069) 
ChEMBL30

>  <source_id>  (1069) 
30

>  <optional_reference>  (1069) 
10.1021/acs.jmedchem.0c01741

>  <optional_origin>  (1069) 
None

>  <target>  (1069) 
MDR1

$$$$

     RDKit          2D

 29 33  0  0  0  0  0  0  0  0999 V2000
   11.0485  -11.4401    0.0000 C   0  0  0  0  0  0  0  0  0  0  0  0
   10.3473  -11.8540    0.0000 N   0  0  0  0  0  0  0  0  0  0  0  0
    9.6346  -11.4549    0.0000 C   0  0  0  0  0  0  0  0  0  0  0  0
    9.6230  -10.6378    0.0000 C   0  0  0  0  0  0  0  0  0  0  0  0
   10.3283  -10.2198    0.0000 C   0  0  0  0  0  0  0  0  0  0  0  0
   11.0369  -10.6230    0.0000 N   0  0  0  0  0  0  0  0  0  0  0  0
   11.8133  -10.3576    0.0000 N   0  0  0  0  0  0  0  0  0  0  0  0
   12.3020  -11.0157    0.0000 C   0  0  0  0  0  0  0  0  0  0  0  0
   11.8304  -11.6840    0.0000 N   0  0  0  0  0  0  0  0  0  0  0  0
   10.3168   -9.4027    0.0000 N   0  0  0  0  0  0  0  0  0  0  0  0
    8.9334  -11.8729    0.0000 C   0  0  0  0  0  0  0  0  0  0  0  0
    9.6041   -9.0036    0.0000 C   0  0  0  0  0  0  0  0  0  0  0  0
    9.5925   -8.1865    0.0000 C   0  0  0  0  0  0  0  0  0  0  0  0
    8.8798   -7.7874    0.0000 C   0  0  0  0  0  0  0  0  0  0  0  0
    8.1786   -8.2054    0.0000 C   0  0  0  0  0  0  0  0  0  0  0  0
    8.1861   -9.0225    0.0000 C   0  0  0  0  0  0  0  0  0  0  0  0
    8.8988   -9.4216    0.0000 C   0  0  0  0  0  0  0  0  0  0  0  0
   13.1191  -11.0041    0.0000 S   0  0  0  0  0  0  0  0  0  0  0  0
   13.5371  -11.7053    0.0000 C   0  0  0  0  0  0  0  0  0  0  0  0
   14.3542  -11.6979    0.0000 C   0  0  0  0  0  0  0  0  0  0  0  0
   14.8257  -11.0296    0.0000 N   0  0  0  0  0  0  0  0  0  0  0  0
   15.6077  -11.2734    0.0000 C   0  0  0  0  0  0  0  0  0  0  0  0
   15.6151  -12.0905    0.0000 C   0  0  0  0  0  0  0  0  0  0  0  0
   14.8428  -12.3518    0.0000 N   0  0  0  0  0  0  0  0  0  0  0  0
   16.3278  -12.4896    0.0000 C   0  0  0  0  0  0  0  0  0  0  0  0
   17.0331  -12.0716    0.0000 C   0  0  0  0  0  0  0  0  0  0  0  0
   17.0215  -11.2545    0.0000 C   0  0  0  0  0  0  0  0  0  0  0  0
   16.3088  -10.8554    0.0000 C   0  0  0  0  0  0  0  0  0  0  0  0
    8.8687   -6.9703    0.0000 F   0  0  0  0  0  0  0  0  0  0  0  0
  1  2  1  0
  2  3  2  0
  3  4  1  0
  4  5  2  0
  5  6  1  0
  1  6  1  0
  7  8  2  0
  8  9  1  0
  6  7  1  0
  1  9  2  0
  5 10  1  0
  3 11  1  0
 12 13  2  0
 13 14  1  0
 14 15  2  0
 15 16  1  0
 16 17  2  0
 12 17  1  0
 10 12  1  0
 20 21  1  0
 21 22  1  0
 22 23  2  0
 23 24  1  0
 20 24  2  0
 25 26  2  0
 26 27  1  0
 27 28  2  0
 22 28  1  0
 23 25  1  0
 19 20  1  0
 18 19  1  0
  8 18  1  0
 14 29  1  0
M  END
>  <Classification>  (1070) 
1

>  <pchembl>  (1070) 
6.28

>  <InChI_steorem>  (1070) 
InChI=1S/C20H16FN7S/c1-12-9-18(23-14-6-4-5-13(21)10-14)28-19(22-12)26-20(27-28)29-11-17-24-15-7-2-3-8-16(15)25-17/h2-10,23H,11H2,1H3,(H,24,25)

>  <source>  (1070) 
ChEMBL30

>  <source_id>  (1070) 
30

>  <optional_reference>  (1070) 
10.1021/acs.jmedchem.0c01741

>  <optional_origin>  (1070) 
None

>  <target>  (1070) 
MDR1

$$$$

     RDKit          2D

 29 33  0  0  0  0  0  0  0  0999 V2000
   12.9911  -11.7352    0.0000 C   0  0  0  0  0  0  0  0  0  0  0  0
   12.2844  -12.1496    0.0000 C   0  0  0  0  0  0  0  0  0  0  0  0
   12.2930  -12.9722    0.0000 C   0  0  0  0  0  0  0  0  0  0  0  0
   13.0045  -13.3725    0.0000 N   0  0  0  0  0  0  0  0  0  0  0  0
   13.7020  -12.1391    0.0000 N   0  0  0  0  0  0  0  0  0  0  0  0
   13.7057  -12.9630    0.0000 C   0  0  0  0  0  0  0  0  0  0  0  0
   14.4905  -13.2142    0.0000 N   0  0  0  0  0  0  0  0  0  0  0  0
   14.9718  -12.5454    0.0000 C   0  0  0  0  0  0  0  0  0  0  0  0
   14.4845  -11.8811    0.0000 N   0  0  0  0  0  0  0  0  0  0  0  0
   15.7890  -12.5417    0.0000 S   0  0  0  0  0  0  0  0  0  0  0  0
   16.1944  -11.8322    0.0000 C   0  0  0  0  0  0  0  0  0  0  0  0
   17.0116  -11.8285    0.0000 C   0  0  0  0  0  0  0  0  0  0  0  0
   11.5898  -13.3885    0.0000 C   0  0  0  0  0  0  0  0  0  0  0  0
   12.9856  -10.9180    0.0000 N   0  0  0  0  0  0  0  0  0  0  0  0
   17.4962  -12.4819    0.0000 N   0  0  0  0  0  0  0  0  0  0  0  0
   17.4902  -11.1597    0.0000 N   0  0  0  0  0  0  0  0  0  0  0  0
   18.2686  -11.4086    0.0000 C   0  0  0  0  0  0  0  0  0  0  0  0
   18.2687  -12.2231    0.0000 C   0  0  0  0  0  0  0  0  0  0  0  0
   18.9730  -12.6284    0.0000 C   0  0  0  0  0  0  0  0  0  0  0  0
   19.6776  -12.2204    0.0000 C   0  0  0  0  0  0  0  0  0  0  0  0
   19.6735  -11.4029    0.0000 C   0  0  0  0  0  0  0  0  0  0  0  0
   18.9687  -11.0012    0.0000 C   0  0  0  0  0  0  0  0  0  0  0  0
   13.6905  -10.5046    0.0000 C   0  0  0  0  0  0  0  0  0  0  0  0
   14.3996  -10.9113    0.0000 C   0  0  0  0  0  0  0  0  0  0  0  0
   15.1040  -10.4986    0.0000 C   0  0  0  0  0  0  0  0  0  0  0  0
   15.0989   -9.6805    0.0000 C   0  0  0  0  0  0  0  0  0  0  0  0
   14.3834   -9.2770    0.0000 C   0  0  0  0  0  0  0  0  0  0  0  0
   13.6819   -9.6920    0.0000 C   0  0  0  0  0  0  0  0  0  0  0  0
   15.8033   -9.2662    0.0000 C   0  0  0  0  0  0  0  0  0  0  0  0
  5  1  1  0
  1  2  2  0
  2  3  1  0
  3  4  2  0
  4  6  1  0
  5  6  1  0
  6  7  2  0
  7  8  1  0
  8  9  2  0
  9  5  1  0
  8 10  1  0
 10 11  1  0
 11 12  1  0
  3 13  1  0
  1 14  1  0
 12 15  1  0
 15 18  1  0
 17 16  1  0
 16 12  2  0
 17 18  2  0
 18 19  1  0
 19 20  2  0
 20 21  1  0
 21 22  2  0
 22 17  1  0
 14 23  1  0
 23 24  2  0
 24 25  1  0
 25 26  2  0
 26 27  1  0
 27 28  2  0
 28 23  1  0
 26 29  1  0
M  END
>  <Classification>  (1071) 
1

>  <pchembl>  (1071) 
6.3

>  <InChI_steorem>  (1071) 
InChI=1S/C21H19N7S/c1-13-7-9-15(10-8-13)23-19-11-14(2)22-20-26-21(27-28(19)20)29-12-18-24-16-5-3-4-6-17(16)25-18/h3-11,23H,12H2,1-2H3,(H,24,25)

>  <source>  (1071) 
ChEMBL30

>  <source_id>  (1071) 
30

>  <optional_reference>  (1071) 
10.1021/acs.jmedchem.0c01741

>  <optional_origin>  (1071) 
None

>  <target>  (1071) 
MDR1

$$$$

     RDKit          2D

 29 33  0  0  0  0  0  0  0  0999 V2000
   13.0696  -20.3322    0.0000 C   0  0  0  0  0  0  0  0  0  0  0  0
   12.3628  -20.7466    0.0000 C   0  0  0  0  0  0  0  0  0  0  0  0
   12.3714  -21.5693    0.0000 C   0  0  0  0  0  0  0  0  0  0  0  0
   13.0829  -21.9695    0.0000 N   0  0  0  0  0  0  0  0  0  0  0  0
   13.7805  -20.7362    0.0000 N   0  0  0  0  0  0  0  0  0  0  0  0
   13.7842  -21.5601    0.0000 C   0  0  0  0  0  0  0  0  0  0  0  0
   14.5689  -21.8112    0.0000 N   0  0  0  0  0  0  0  0  0  0  0  0
   15.0502  -21.1424    0.0000 C   0  0  0  0  0  0  0  0  0  0  0  0
   14.5629  -20.4781    0.0000 N   0  0  0  0  0  0  0  0  0  0  0  0
   15.8674  -21.1387    0.0000 S   0  0  0  0  0  0  0  0  0  0  0  0
   16.2728  -20.4292    0.0000 C   0  0  0  0  0  0  0  0  0  0  0  0
   17.0900  -20.4255    0.0000 C   0  0  0  0  0  0  0  0  0  0  0  0
   11.6682  -21.9855    0.0000 C   0  0  0  0  0  0  0  0  0  0  0  0
   13.0640  -19.5150    0.0000 N   0  0  0  0  0  0  0  0  0  0  0  0
   17.5747  -21.0789    0.0000 N   0  0  0  0  0  0  0  0  0  0  0  0
   17.5687  -19.7568    0.0000 N   0  0  0  0  0  0  0  0  0  0  0  0
   18.3470  -20.0056    0.0000 C   0  0  0  0  0  0  0  0  0  0  0  0
   18.3471  -20.8201    0.0000 C   0  0  0  0  0  0  0  0  0  0  0  0
   19.0514  -21.2254    0.0000 C   0  0  0  0  0  0  0  0  0  0  0  0
   19.7560  -20.8174    0.0000 C   0  0  0  0  0  0  0  0  0  0  0  0
   19.7519  -19.9999    0.0000 C   0  0  0  0  0  0  0  0  0  0  0  0
   19.0471  -19.5982    0.0000 C   0  0  0  0  0  0  0  0  0  0  0  0
   13.7689  -19.1016    0.0000 C   0  0  0  0  0  0  0  0  0  0  0  0
   14.4780  -19.5083    0.0000 C   0  0  0  0  0  0  0  0  0  0  0  0
   15.1824  -19.0956    0.0000 C   0  0  0  0  0  0  0  0  0  0  0  0
   15.1773  -18.2775    0.0000 C   0  0  0  0  0  0  0  0  0  0  0  0
   14.4619  -17.8740    0.0000 C   0  0  0  0  0  0  0  0  0  0  0  0
   13.7604  -18.2890    0.0000 C   0  0  0  0  0  0  0  0  0  0  0  0
   15.8817  -17.8632    0.0000 F   0  0  0  0  0  0  0  0  0  0  0  0
  5  1  1  0
  1  2  2  0
  2  3  1  0
  3  4  2  0
  4  6  1  0
  5  6  1  0
  6  7  2  0
  7  8  1  0
  8  9  2  0
  9  5  1  0
  8 10  1  0
 10 11  1  0
 11 12  1  0
  3 13  1  0
  1 14  1  0
 12 15  1  0
 15 18  1  0
 17 16  1  0
 16 12  2  0
 17 18  2  0
 18 19  1  0
 19 20  2  0
 20 21  1  0
 21 22  2  0
 22 17  1  0
 14 23  1  0
 23 24  2  0
 24 25  1  0
 25 26  2  0
 26 27  1  0
 27 28  2  0
 28 23  1  0
 26 29  1  0
M  END
>  <Classification>  (1072) 
1

>  <pchembl>  (1072) 
8.3

>  <InChI_steorem>  (1072) 
InChI=1S/C20H16FN7S/c1-12-10-18(23-14-8-6-13(21)7-9-14)28-19(22-12)26-20(27-28)29-11-17-24-15-4-2-3-5-16(15)25-17/h2-10,23H,11H2,1H3,(H,24,25)

>  <source>  (1072) 
ChEMBL30

>  <source_id>  (1072) 
30

>  <optional_reference>  (1072) 
10.1021/acs.jmedchem.0c01741

>  <optional_origin>  (1072) 
None

>  <target>  (1072) 
MDR1

$$$$

     RDKit          2D

 29 33  0  0  0  0  0  0  0  0999 V2000
   23.9819   -3.3858    0.0000 C   0  0  0  0  0  0  0  0  0  0  0  0
   23.2752   -3.8002    0.0000 C   0  0  0  0  0  0  0  0  0  0  0  0
   23.2838   -4.6229    0.0000 C   0  0  0  0  0  0  0  0  0  0  0  0
   23.9953   -5.0231    0.0000 N   0  0  0  0  0  0  0  0  0  0  0  0
   24.6929   -3.7898    0.0000 N   0  0  0  0  0  0  0  0  0  0  0  0
   24.6966   -4.6137    0.0000 C   0  0  0  0  0  0  0  0  0  0  0  0
   25.4813   -4.8648    0.0000 N   0  0  0  0  0  0  0  0  0  0  0  0
   25.9626   -4.1960    0.0000 C   0  0  0  0  0  0  0  0  0  0  0  0
   25.4753   -3.5317    0.0000 N   0  0  0  0  0  0  0  0  0  0  0  0
   26.7798   -4.1923    0.0000 S   0  0  0  0  0  0  0  0  0  0  0  0
   27.1852   -3.4828    0.0000 C   0  0  0  0  0  0  0  0  0  0  0  0
   28.0024   -3.4791    0.0000 C   0  0  0  0  0  0  0  0  0  0  0  0
   22.5806   -5.0391    0.0000 C   0  0  0  0  0  0  0  0  0  0  0  0
   23.9764   -2.5686    0.0000 N   0  0  0  0  0  0  0  0  0  0  0  0
   28.4870   -4.1325    0.0000 N   0  0  0  0  0  0  0  0  0  0  0  0
   28.4811   -2.8104    0.0000 N   0  0  0  0  0  0  0  0  0  0  0  0
   29.2594   -3.0592    0.0000 C   0  0  0  0  0  0  0  0  0  0  0  0
   29.2595   -3.8737    0.0000 C   0  0  0  0  0  0  0  0  0  0  0  0
   29.9638   -4.2790    0.0000 C   0  0  0  0  0  0  0  0  0  0  0  0
   30.6684   -3.8710    0.0000 C   0  0  0  0  0  0  0  0  0  0  0  0
   30.6643   -3.0535    0.0000 C   0  0  0  0  0  0  0  0  0  0  0  0
   29.9595   -2.6518    0.0000 C   0  0  0  0  0  0  0  0  0  0  0  0
   24.6813   -2.1552    0.0000 C   0  0  0  0  0  0  0  0  0  0  0  0
   25.3904   -2.5619    0.0000 C   0  0  0  0  0  0  0  0  0  0  0  0
   26.0948   -2.1492    0.0000 C   0  0  0  0  0  0  0  0  0  0  0  0
   26.0897   -1.3311    0.0000 C   0  0  0  0  0  0  0  0  0  0  0  0
   25.3743   -0.9276    0.0000 C   0  0  0  0  0  0  0  0  0  0  0  0
   24.6728   -1.3426    0.0000 C   0  0  0  0  0  0  0  0  0  0  0  0
   26.7941   -0.9168    0.0000 Cl  0  0  0  0  0  0  0  0  0  0  0  0
  5  1  1  0
  1  2  2  0
  2  3  1  0
  3  4  2  0
  4  6  1  0
  5  6  1  0
  6  7  2  0
  7  8  1  0
  8  9  2  0
  9  5  1  0
  8 10  1  0
 10 11  1  0
 11 12  1  0
  3 13  1  0
  1 14  1  0
 12 15  1  0
 15 18  1  0
 17 16  1  0
 16 12  2  0
 17 18  2  0
 18 19  1  0
 19 20  2  0
 20 21  1  0
 21 22  2  0
 22 17  1  0
 14 23  1  0
 23 24  2  0
 24 25  1  0
 25 26  2  0
 26 27  1  0
 27 28  2  0
 28 23  1  0
 26 29  1  0
M  END
>  <Classification>  (1073) 
1

>  <pchembl>  (1073) 
6.57

>  <InChI_steorem>  (1073) 
InChI=1S/C20H16ClN7S/c1-12-10-18(23-14-8-6-13(21)7-9-14)28-19(22-12)26-20(27-28)29-11-17-24-15-4-2-3-5-16(15)25-17/h2-10,23H,11H2,1H3,(H,24,25)

>  <source>  (1073) 
ChEMBL30

>  <source_id>  (1073) 
30

>  <optional_reference>  (1073) 
10.1021/acs.jmedchem.0c01741

>  <optional_origin>  (1073) 
None

>  <target>  (1073) 
MDR1

$$$$

     RDKit          2D

 29 33  0  0  0  0  0  0  0  0999 V2000
   24.0356  -11.9704    0.0000 C   0  0  0  0  0  0  0  0  0  0  0  0
   23.3288  -12.3849    0.0000 C   0  0  0  0  0  0  0  0  0  0  0  0
   23.3375  -13.2075    0.0000 C   0  0  0  0  0  0  0  0  0  0  0  0
   24.0489  -13.6077    0.0000 N   0  0  0  0  0  0  0  0  0  0  0  0
   24.7465  -12.3744    0.0000 N   0  0  0  0  0  0  0  0  0  0  0  0
   24.7502  -13.1983    0.0000 C   0  0  0  0  0  0  0  0  0  0  0  0
   25.5349  -13.4494    0.0000 N   0  0  0  0  0  0  0  0  0  0  0  0
   26.0163  -12.7807    0.0000 C   0  0  0  0  0  0  0  0  0  0  0  0
   25.5289  -12.1164    0.0000 N   0  0  0  0  0  0  0  0  0  0  0  0
   26.8335  -12.7770    0.0000 S   0  0  0  0  0  0  0  0  0  0  0  0
   27.2389  -12.0674    0.0000 C   0  0  0  0  0  0  0  0  0  0  0  0
   28.0560  -12.0637    0.0000 C   0  0  0  0  0  0  0  0  0  0  0  0
   22.6342  -13.6237    0.0000 C   0  0  0  0  0  0  0  0  0  0  0  0
   24.0300  -11.1533    0.0000 N   0  0  0  0  0  0  0  0  0  0  0  0
   28.5407  -12.7172    0.0000 N   0  0  0  0  0  0  0  0  0  0  0  0
   28.5347  -11.3950    0.0000 N   0  0  0  0  0  0  0  0  0  0  0  0
   29.3131  -11.6439    0.0000 C   0  0  0  0  0  0  0  0  0  0  0  0
   29.3132  -12.4583    0.0000 C   0  0  0  0  0  0  0  0  0  0  0  0
   30.0174  -12.8637    0.0000 C   0  0  0  0  0  0  0  0  0  0  0  0
   30.7220  -12.4557    0.0000 C   0  0  0  0  0  0  0  0  0  0  0  0
   30.7180  -11.6381    0.0000 C   0  0  0  0  0  0  0  0  0  0  0  0
   30.0132  -11.2365    0.0000 C   0  0  0  0  0  0  0  0  0  0  0  0
   24.7349  -10.7399    0.0000 C   0  0  0  0  0  0  0  0  0  0  0  0
   25.4441  -11.1465    0.0000 C   0  0  0  0  0  0  0  0  0  0  0  0
   26.1485  -10.7338    0.0000 C   0  0  0  0  0  0  0  0  0  0  0  0
   26.1434   -9.9158    0.0000 C   0  0  0  0  0  0  0  0  0  0  0  0
   25.4279   -9.5122    0.0000 C   0  0  0  0  0  0  0  0  0  0  0  0
   24.7264   -9.9273    0.0000 C   0  0  0  0  0  0  0  0  0  0  0  0
   26.8477   -9.5014    0.0000 Br  0  0  0  0  0  0  0  0  0  0  0  0
  5  1  1  0
  1  2  2  0
  2  3  1  0
  3  4  2  0
  4  6  1  0
  5  6  1  0
  6  7  2  0
  7  8  1  0
  8  9  2  0
  9  5  1  0
  8 10  1  0
 10 11  1  0
 11 12  1  0
  3 13  1  0
  1 14  1  0
 12 15  1  0
 15 18  1  0
 17 16  1  0
 16 12  2  0
 17 18  2  0
 18 19  1  0
 19 20  2  0
 20 21  1  0
 21 22  2  0
 22 17  1  0
 14 23  1  0
 23 24  2  0
 24 25  1  0
 25 26  2  0
 26 27  1  0
 27 28  2  0
 28 23  1  0
 26 29  1  0
M  END
>  <Classification>  (1074) 
1

>  <pchembl>  (1074) 
6.35

>  <InChI_steorem>  (1074) 
InChI=1S/C20H16BrN7S/c1-12-10-18(23-14-8-6-13(21)7-9-14)28-19(22-12)26-20(27-28)29-11-17-24-15-4-2-3-5-16(15)25-17/h2-10,23H,11H2,1H3,(H,24,25)

>  <source>  (1074) 
ChEMBL30

>  <source_id>  (1074) 
30

>  <optional_reference>  (1074) 
10.1021/acs.jmedchem.0c01741

>  <optional_origin>  (1074) 
None

>  <target>  (1074) 
MDR1

$$$$

     RDKit          2D

 29 33  0  0  0  0  0  0  0  0999 V2000
    7.8519   -7.1745    0.0000 C   0  0  0  0  0  0  0  0  0  0  0  0
   10.3316   -7.4901    0.0000 C   0  0  0  0  0  0  0  0  0  0  0  0
   11.1488   -7.4950    0.0000 C   0  0  0  0  0  0  0  0  0  0  0  0
    7.8568   -6.3573    0.0000 N   0  0  0  0  0  0  0  0  0  0  0  0
    6.4337   -7.1629    0.0000 C   0  0  0  0  0  0  0  0  0  0  0  0
   12.4057   -7.9134    0.0000 C   0  0  0  0  0  0  0  0  0  0  0  0
    9.1096   -6.7757    0.0000 C   0  0  0  0  0  0  0  0  0  0  0  0
    8.6263   -7.4295    0.0000 N   0  0  0  0  0  0  0  0  0  0  0  0
   12.4106   -7.0962    0.0000 C   0  0  0  0  0  0  0  0  0  0  0  0
    6.4576   -3.8943    0.0000 C   0  0  0  0  0  0  0  0  0  0  0  0
   13.8246   -7.1078    0.0000 C   0  0  0  0  0  0  0  0  0  0  0  0
    7.1383   -7.5752    0.0000 N   0  0  0  0  0  0  0  0  0  0  0  0
    5.7530   -3.4820    0.0000 C   0  0  0  0  0  0  0  0  0  0  0  0
   11.6257   -8.1594    0.0000 N   0  0  0  0  0  0  0  0  0  0  0  0
    5.7243   -7.5678    0.0000 C   0  0  0  0  0  0  0  0  0  0  0  0
    5.0386   -4.6999    0.0000 C   0  0  0  0  0  0  0  0  0  0  0  0
    6.4526   -4.7115    0.0000 C   0  0  0  0  0  0  0  0  0  0  0  0
    6.4387   -6.3458    0.0000 C   0  0  0  0  0  0  0  0  0  0  0  0
    9.9267   -6.7806    0.0000 S   0  0  0  0  0  0  0  0  0  0  0  0
   13.1061   -8.3257    0.0000 C   0  0  0  0  0  0  0  0  0  0  0  0
    7.1572   -5.1237    0.0000 N   0  0  0  0  0  0  0  0  0  0  0  0
    8.6368   -6.1113    0.0000 N   0  0  0  0  0  0  0  0  0  0  0  0
    5.7432   -5.1163    0.0000 C   0  0  0  0  0  0  0  0  0  0  0  0
    5.0436   -3.8828    0.0000 C   0  0  0  0  0  0  0  0  0  0  0  0
    7.1523   -5.9409    0.0000 C   0  0  0  0  0  0  0  0  0  0  0  0
   13.1201   -6.6913    0.0000 C   0  0  0  0  0  0  0  0  0  0  0  0
   11.6321   -6.8371    0.0000 N   0  0  0  0  0  0  0  0  0  0  0  0
   13.8197   -7.9249    0.0000 C   0  0  0  0  0  0  0  0  0  0  0  0
    4.3413   -3.4697    0.0000 O   0  0  0  0  0  0  0  0  0  0  0  0
  7  8  1  0
 17 10  2  0
 22  7  2  0
  2  3  1  0
 27  9  1  0
  3 27  1  0
 25  4  1  0
 10 13  1  0
  9 26  1  0
  1  4  1  0
 21 17  1  0
  9  6  2  0
  6 20  1  0
  4 22  1  0
 17 23  1  0
 20 28  2  0
  7 19  1  0
 13 24  2  0
  3 14  2  0
 25 21  1  0
  1 12  1  0
  1  8  2  0
 24 16  1  0
 12  5  2  0
 11 26  2  0
 28 11  1  0
 16 23  2  0
 19  2  1  0
 18 25  2  0
  5 15  1  0
  5 18  1  0
  6 14  1  0
 24 29  1  0
M  END
>  <Classification>  (1075) 
1

>  <pchembl>  (1075) 
5.62

>  <InChI_steorem>  (1075) 
InChI=1S/C20H17N7OS/c1-12-10-18(22-13-6-8-14(28)9-7-13)27-19(21-12)25-20(26-27)29-11-17-23-15-4-2-3-5-16(15)24-17/h2-10,22,28H,11H2,1H3,(H,23,24)

>  <source>  (1075) 
ChEMBL30

>  <source_id>  (1075) 
30

>  <optional_reference>  (1075) 
10.1021/acs.jmedchem.0c01741

>  <optional_origin>  (1075) 
None

>  <target>  (1075) 
MDR1

$$$$

     RDKit          2D

 30 33  0  0  0  0  0  0  0  0999 V2000
   12.1120   -3.1738    0.0000 C   0  0  0  0  0  0  0  0  0  0  0  0
   12.1109   -3.9933    0.0000 C   0  0  0  0  0  0  0  0  0  0  0  0
   12.8189   -4.4023    0.0000 C   0  0  0  0  0  0  0  0  0  0  0  0
   13.5286   -3.9929    0.0000 C   0  0  0  0  0  0  0  0  0  0  0  0
   13.5257   -3.1702    0.0000 C   0  0  0  0  0  0  0  0  0  0  0  0
   12.8171   -2.7649    0.0000 C   0  0  0  0  0  0  0  0  0  0  0  0
   11.4028   -4.4014    0.0000 N   0  0  0  0  0  0  0  0  0  0  0  0
   11.4022   -5.2186    0.0000 C   0  0  0  0  0  0  0  0  0  0  0  0
   10.6940   -5.6250    0.0000 C   0  0  0  0  0  0  0  0  0  0  0  0
   10.6930   -6.4415    0.0000 C   0  0  0  0  0  0  0  0  0  0  0  0
   11.4010   -6.8515    0.0000 N   0  0  0  0  0  0  0  0  0  0  0  0
   12.1113   -6.4390    0.0000 C   0  0  0  0  0  0  0  0  0  0  0  0
   12.1088   -5.6239    0.0000 N   0  0  0  0  0  0  0  0  0  0  0  0
   12.8178   -6.8429    0.0000 C   0  0  0  0  0  0  0  0  0  0  0  0
   12.8187   -7.6612    0.0000 C   0  0  0  0  0  0  0  0  0  0  0  0
   13.5266   -8.0678    0.0000 C   0  0  0  0  0  0  0  0  0  0  0  0
   14.2342   -7.6572    0.0000 C   0  0  0  0  0  0  0  0  0  0  0  0
   14.2293   -6.8358    0.0000 C   0  0  0  0  0  0  0  0  0  0  0  0
   13.5208   -6.4329    0.0000 C   0  0  0  0  0  0  0  0  0  0  0  0
   14.2297   -2.7578    0.0000 C   0  0  0  0  0  0  0  0  0  0  0  0
   14.9358   -2.3465    0.0000 N   0  0  0  0  0  0  0  0  0  0  0  0
    9.9879   -6.8481    0.0000 N   0  0  0  0  0  0  0  0  0  0  0  0
    9.9875   -7.6653    0.0000 C   0  0  0  0  0  0  0  0  0  0  0  0
    9.2784   -8.0715    0.0000 C   0  0  0  0  0  0  0  0  0  0  0  0
    9.2776   -8.8880    0.0000 C   0  0  0  0  0  0  0  0  0  0  0  0
    9.9856   -9.2977    0.0000 C   0  0  0  0  0  0  0  0  0  0  0  0
   10.6959   -8.8851    0.0000 C   0  0  0  0  0  0  0  0  0  0  0  0
   10.6932   -8.0700    0.0000 C   0  0  0  0  0  0  0  0  0  0  0  0
    9.9898  -10.1122    0.0000 C   0  0  0  0  0  0  0  0  0  0  0  0
    9.9905  -10.9293    0.0000 N   0  0  0  0  0  0  0  0  0  0  0  0
  1  2  2  0
  2  3  1  0
  3  4  2  0
  4  5  1  0
  5  6  2  0
  6  1  1  0
  2  7  1  0
  7  8  1  0
  8  9  2  0
  9 10  1  0
 10 11  2  0
 11 12  1  0
 12 13  2  0
 13  8  1  0
 14 15  2  0
 15 16  1  0
 16 17  2  0
 17 18  1  0
 18 19  2  0
 19 14  1  0
 12 14  1  0
 20 21  3  0
  5 20  1  0
 10 22  1  0
 22 23  1  0
 23 24  2  0
 24 25  1  0
 25 26  2  0
 26 27  1  0
 27 28  2  0
 28 23  1  0
 29 30  3  0
 26 29  1  0
M  END
>  <Classification>  (1076) 
1

>  <pchembl>  (1076) 
5.17

>  <InChI_steorem>  (1076) 
InChI=1S/C24H16N6/c25-15-17-6-10-20(11-7-17)27-22-14-23(28-21-12-8-18(16-26)9-13-21)30-24(29-22)19-4-2-1-3-5-19/h1-14H,(H2,27,28,29,30)

>  <source>  (1076) 
ChEMBL30

>  <source_id>  (1076) 
30

>  <optional_reference>  (1076) 
10.1016/j.ejmech.2020.113045

>  <optional_origin>  (1076) 
None

>  <target>  (1076) 
MDR1

$$$$

     RDKit          2D

 30 33  0  0  0  0  0  0  0  0999 V2000
   17.8090   -7.2185    0.0000 F   0  0  0  0  0  0  0  0  0  0  0  0
   17.8131   -8.0357    0.0000 C   0  0  0  0  0  0  0  0  0  0  0  0
   18.5188   -7.6235    0.0000 F   0  0  0  0  0  0  0  0  0  0  0  0
   12.0628   -7.7186    0.0000 C   0  0  0  0  0  0  0  0  0  0  0  0
   11.3518   -8.1280    0.0000 N   0  0  0  0  0  0  0  0  0  0  0  0
   10.6487   -7.7162    0.0000 C   0  0  0  0  0  0  0  0  0  0  0  0
   10.6484   -6.8990    0.0000 C   0  0  0  0  0  0  0  0  0  0  0  0
   11.3594   -6.4937    0.0000 C   0  0  0  0  0  0  0  0  0  0  0  0
   12.0666   -6.9014    0.0000 N   0  0  0  0  0  0  0  0  0  0  0  0
   12.8408   -6.6544    0.0000 N   0  0  0  0  0  0  0  0  0  0  0  0
   13.3220   -7.3158    0.0000 C   0  0  0  0  0  0  0  0  0  0  0  0
   12.8388   -7.9768    0.0000 N   0  0  0  0  0  0  0  0  0  0  0  0
   11.3590   -5.6765    0.0000 N   0  0  0  0  0  0  0  0  0  0  0  0
    9.9378   -8.1215    0.0000 C   0  0  0  0  0  0  0  0  0  0  0  0
   10.6560   -5.2646    0.0000 C   0  0  0  0  0  0  0  0  0  0  0  0
   10.6556   -4.4474    0.0000 C   0  0  0  0  0  0  0  0  0  0  0  0
    9.9525   -4.0356    0.0000 C   0  0  0  0  0  0  0  0  0  0  0  0
    9.2416   -4.4450    0.0000 C   0  0  0  0  0  0  0  0  0  0  0  0
    9.2378   -5.2622    0.0000 C   0  0  0  0  0  0  0  0  0  0  0  0
    9.9450   -5.6699    0.0000 C   0  0  0  0  0  0  0  0  0  0  0  0
    8.5344   -4.0331    0.0000 F   0  0  0  0  0  0  0  0  0  0  0  0
   14.1392   -7.3196    0.0000 S   0  0  0  0  0  0  0  0  0  0  0  0
   14.5445   -8.0264    0.0000 C   0  0  0  0  0  0  0  0  0  0  0  0
   15.3617   -8.0302    0.0000 C   0  0  0  0  0  0  0  0  0  0  0  0
   15.7671   -8.7412    0.0000 C   0  0  0  0  0  0  0  0  0  0  0  0
   16.5842   -8.7408    0.0000 C   0  0  0  0  0  0  0  0  0  0  0  0
   16.9961   -8.0336    0.0000 C   0  0  0  0  0  0  0  0  0  0  0  0
   16.5908   -7.3268    0.0000 C   0  0  0  0  0  0  0  0  0  0  0  0
   15.7736   -7.3230    0.0000 C   0  0  0  0  0  0  0  0  0  0  0  0
   18.2195   -8.7455    0.0000 F   0  0  0  0  0  0  0  0  0  0  0  0
  2  1  1  0
  3  2  1  0
  4  5  1  0
  5  6  2  0
  6  7  1  0
  7  8  2  0
  8  9  1  0
  4  9  1  0
 10 11  2  0
 11 12  1  0
  9 10  1  0
  4 12  2  0
  8 13  1  0
  6 14  1  0
 15 16  2  0
 16 17  1  0
 17 18  2  0
 18 19  1  0
 19 20  2  0
 15 20  1  0
 18 21  1  0
 13 15  1  0
 23 24  1  0
 24 25  2  0
 25 26  1  0
 26 27  2  0
 27 28  1  0
 28 29  2  0
 24 29  1  0
 22 23  1  0
 11 22  1  0
 27  2  1  0
  2 30  1  0
M  END
>  <Classification>  (1077) 
1

>  <pchembl>  (1077) 
5.59

>  <InChI_steorem>  (1077) 
InChI=1S/C20H15F4N5S/c1-12-10-17(26-16-8-6-15(21)7-9-16)29-18(25-12)27-19(28-29)30-11-13-2-4-14(5-3-13)20(22,23)24/h2-10,26H,11H2,1H3

>  <source>  (1077) 
ChEMBL30

>  <source_id>  (1077) 
30

>  <optional_reference>  (1077) 
10.1021/acs.jmedchem.0c01741

>  <optional_origin>  (1077) 
None

>  <target>  (1077) 
MDR1

$$$$

     RDKit          2D

 30 34  0  0  0  0  0  0  0  0999 V2000
   10.5489   -7.9506    0.0000 C   0  0  0  0  0  0  0  0  0  0  0  0
    9.8492   -8.3711    0.0000 N   0  0  0  0  0  0  0  0  0  0  0  0
    9.1351   -7.9704    0.0000 C   0  0  0  0  0  0  0  0  0  0  0  0
    9.1206   -7.1534    0.0000 C   0  0  0  0  0  0  0  0  0  0  0  0
    9.8244   -6.7370    0.0000 C   0  0  0  0  0  0  0  0  0  0  0  0
   10.5386   -7.1336    0.0000 N   0  0  0  0  0  0  0  0  0  0  0  0
   11.3099   -6.8695    0.0000 N   0  0  0  0  0  0  0  0  0  0  0  0
   11.8009   -7.5218    0.0000 C   0  0  0  0  0  0  0  0  0  0  0  0
   11.3317   -8.1917    0.0000 N   0  0  0  0  0  0  0  0  0  0  0  0
    9.8100   -5.9200    0.0000 N   0  0  0  0  0  0  0  0  0  0  0  0
    8.4313   -8.3909    0.0000 C   0  0  0  0  0  0  0  0  0  0  0  0
    9.1000   -5.5193    0.0000 C   0  0  0  0  0  0  0  0  0  0  0  0
    9.0855   -4.7022    0.0000 C   0  0  0  0  0  0  0  0  0  0  0  0
    8.3714   -4.3057    0.0000 C   0  0  0  0  0  0  0  0  0  0  0  0
    7.6717   -4.7262    0.0000 C   0  0  0  0  0  0  0  0  0  0  0  0
    7.6820   -5.5432    0.0000 C   0  0  0  0  0  0  0  0  0  0  0  0
    8.3962   -5.9398    0.0000 C   0  0  0  0  0  0  0  0  0  0  0  0
    6.9576   -4.3255    0.0000 F   0  0  0  0  0  0  0  0  0  0  0  0
   12.6179   -7.5114    0.0000 S   0  0  0  0  0  0  0  0  0  0  0  0
   13.0384   -8.2111    0.0000 C   0  0  0  0  0  0  0  0  0  0  0  0
   13.8555   -8.2008    0.0000 C   0  0  0  0  0  0  0  0  0  0  0  0
   15.4896   -8.1760    0.0000 C   0  0  0  0  0  0  0  0  0  0  0  0
   15.0691   -7.4722    0.0000 C   0  0  0  0  0  0  0  0  0  0  0  0
   14.2520   -7.4866    0.0000 C   0  0  0  0  0  0  0  0  0  0  0  0
   15.0930   -8.8901    0.0000 C   0  0  0  0  0  0  0  0  0  0  0  0
   14.2799   -8.8980    0.0000 C   0  0  0  0  0  0  0  0  0  0  0  0
   13.8819   -9.6050    0.0000 C   0  0  0  0  0  0  0  0  0  0  0  0
   14.2959  -10.3046    0.0000 C   0  0  0  0  0  0  0  0  0  0  0  0
   15.1121  -10.2928    0.0000 C   0  0  0  0  0  0  0  0  0  0  0  0
   15.5064   -9.5852    0.0000 C   0  0  0  0  0  0  0  0  0  0  0  0
  1  2  1  0
  2  3  2  0
  3  4  1  0
  4  5  2  0
  5  6  1  0
  1  6  1  0
  7  8  2  0
  8  9  1  0
  6  7  1  0
  1  9  2  0
  5 10  1  0
  3 11  1  0
 12 13  2  0
 13 14  1  0
 14 15  2  0
 15 16  1  0
 16 17  2  0
 12 17  1  0
 15 18  1  0
 10 12  1  0
 20 21  1  0
 21 26  2  0
 25 22  2  0
 22 23  1  0
 23 24  2  0
 21 24  1  0
 19 20  1  0
  8 19  1  0
 25 26  1  0
 26 27  1  0
 27 28  2  0
 28 29  1  0
 29 30  2  0
 30 25  1  0
M  END
>  <Classification>  (1078) 
1

>  <pchembl>  (1078) 
5.76

>  <InChI_steorem>  (1078) 
InChI=1S/C23H18FN5S/c1-15-13-21(26-19-11-9-18(24)10-12-19)29-22(25-15)27-23(28-29)30-14-17-7-4-6-16-5-2-3-8-20(16)17/h2-13,26H,14H2,1H3

>  <source>  (1078) 
ChEMBL30

>  <source_id>  (1078) 
30

>  <optional_reference>  (1078) 
10.1021/acs.jmedchem.0c01741

>  <optional_origin>  (1078) 
None

>  <target>  (1078) 
MDR1

$$$$

     RDKit          2D

 30 34  0  0  0  0  0  0  0  0999 V2000
   11.0485  -11.4401    0.0000 C   0  0  0  0  0  0  0  0  0  0  0  0
   10.3473  -11.8540    0.0000 N   0  0  0  0  0  0  0  0  0  0  0  0
    9.6346  -11.4549    0.0000 C   0  0  0  0  0  0  0  0  0  0  0  0
    9.6230  -10.6378    0.0000 C   0  0  0  0  0  0  0  0  0  0  0  0
   10.3283  -10.2198    0.0000 C   0  0  0  0  0  0  0  0  0  0  0  0
   11.0369  -10.6230    0.0000 N   0  0  0  0  0  0  0  0  0  0  0  0
   11.8133  -10.3576    0.0000 N   0  0  0  0  0  0  0  0  0  0  0  0
   12.3020  -11.0157    0.0000 C   0  0  0  0  0  0  0  0  0  0  0  0
   11.8304  -11.6840    0.0000 N   0  0  0  0  0  0  0  0  0  0  0  0
   10.3168   -9.4027    0.0000 N   0  0  0  0  0  0  0  0  0  0  0  0
    8.9334  -11.8729    0.0000 C   0  0  0  0  0  0  0  0  0  0  0  0
    9.6041   -9.0036    0.0000 C   0  0  0  0  0  0  0  0  0  0  0  0
    9.5925   -8.1865    0.0000 C   0  0  0  0  0  0  0  0  0  0  0  0
    8.8798   -7.7874    0.0000 C   0  0  0  0  0  0  0  0  0  0  0  0
    8.1786   -8.2054    0.0000 C   0  0  0  0  0  0  0  0  0  0  0  0
    8.1861   -9.0225    0.0000 C   0  0  0  0  0  0  0  0  0  0  0  0
    8.8988   -9.4216    0.0000 C   0  0  0  0  0  0  0  0  0  0  0  0
   13.1191  -11.0041    0.0000 S   0  0  0  0  0  0  0  0  0  0  0  0
   13.5371  -11.7053    0.0000 C   0  0  0  0  0  0  0  0  0  0  0  0
   14.3542  -11.6979    0.0000 C   0  0  0  0  0  0  0  0  0  0  0  0
   14.8257  -11.0296    0.0000 N   0  0  0  0  0  0  0  0  0  0  0  0
   15.6077  -11.2734    0.0000 C   0  0  0  0  0  0  0  0  0  0  0  0
   15.6151  -12.0905    0.0000 C   0  0  0  0  0  0  0  0  0  0  0  0
   14.8428  -12.3518    0.0000 N   0  0  0  0  0  0  0  0  0  0  0  0
   16.3278  -12.4896    0.0000 C   0  0  0  0  0  0  0  0  0  0  0  0
   17.0331  -12.0716    0.0000 C   0  0  0  0  0  0  0  0  0  0  0  0
   17.0215  -11.2545    0.0000 C   0  0  0  0  0  0  0  0  0  0  0  0
   16.3088  -10.8554    0.0000 C   0  0  0  0  0  0  0  0  0  0  0  0
    8.9088  -10.2387    0.0000 F   0  0  0  0  0  0  0  0  0  0  0  0
   10.2946   -7.7683    0.0000 F   0  0  0  0  0  0  0  0  0  0  0  0
  1  2  1  0
  2  3  2  0
  3  4  1  0
  4  5  2  0
  5  6  1  0
  1  6  1  0
  7  8  2  0
  8  9  1  0
  6  7  1  0
  1  9  2  0
  5 10  1  0
  3 11  1  0
 12 13  2  0
 13 14  1  0
 14 15  2  0
 15 16  1  0
 16 17  2  0
 12 17  1  0
 10 12  1  0
 20 21  1  0
 21 22  1  0
 22 23  2  0
 23 24  1  0
 20 24  2  0
 25 26  2  0
 26 27  1  0
 27 28  2  0
 22 28  1  0
 23 25  1  0
 19 20  1  0
 18 19  1  0
  8 18  1  0
 17 29  1  0
 13 30  1  0
M  END
>  <Classification>  (1079) 
1

>  <pchembl>  (1079) 
6.1

>  <InChI_steorem>  (1079) 
InChI=1S/C20H15F2N7S/c1-11-9-17(26-18-12(21)5-4-6-13(18)22)29-19(23-11)27-20(28-29)30-10-16-24-14-7-2-3-8-15(14)25-16/h2-9,26H,10H2,1H3,(H,24,25)

>  <source>  (1079) 
ChEMBL30

>  <source_id>  (1079) 
30

>  <optional_reference>  (1079) 
10.1021/acs.jmedchem.0c01741

>  <optional_origin>  (1079) 
None

>  <target>  (1079) 
MDR1

$$$$

     RDKit          2D

 30 34  0  0  0  0  0  0  0  0999 V2000
   11.3146  -10.2039    0.0000 C   0  0  0  0  0  0  0  0  0  0  0  0
   10.6010  -10.6046    0.0000 N   0  0  0  0  0  0  0  0  0  0  0  0
    9.8965  -10.1923    0.0000 C   0  0  0  0  0  0  0  0  0  0  0  0
    9.9014   -9.3752    0.0000 C   0  0  0  0  0  0  0  0  0  0  0  0
   10.6150   -8.9703    0.0000 C   0  0  0  0  0  0  0  0  0  0  0  0
   11.3195   -9.3867    0.0000 N   0  0  0  0  0  0  0  0  0  0  0  0
   12.0995   -9.1406    0.0000 N   0  0  0  0  0  0  0  0  0  0  0  0
   12.5723   -9.8051    0.0000 C   0  0  0  0  0  0  0  0  0  0  0  0
   12.0890  -10.4589    0.0000 N   0  0  0  0  0  0  0  0  0  0  0  0
   10.6199   -8.1531    0.0000 N   0  0  0  0  0  0  0  0  0  0  0  0
    9.1870  -10.5972    0.0000 C   0  0  0  0  0  0  0  0  0  0  0  0
    9.9154   -7.7408    0.0000 C   0  0  0  0  0  0  0  0  0  0  0  0
    9.9203   -6.9237    0.0000 C   0  0  0  0  0  0  0  0  0  0  0  0
    9.2158   -6.5114    0.0000 C   0  0  0  0  0  0  0  0  0  0  0  0
    8.5063   -6.9121    0.0000 C   0  0  0  0  0  0  0  0  0  0  0  0
    8.5014   -7.7293    0.0000 C   0  0  0  0  0  0  0  0  0  0  0  0
    9.2059   -8.1457    0.0000 C   0  0  0  0  0  0  0  0  0  0  0  0
    7.8018   -6.4999    0.0000 F   0  0  0  0  0  0  0  0  0  0  0  0
    9.2207   -5.6942    0.0000 Cl  0  0  0  0  0  0  0  0  0  0  0  0
   13.3895   -9.8100    0.0000 S   0  0  0  0  0  0  0  0  0  0  0  0
   13.7944  -10.5195    0.0000 C   0  0  0  0  0  0  0  0  0  0  0  0
   14.6115  -10.5244    0.0000 C   0  0  0  0  0  0  0  0  0  0  0  0
   15.0948   -9.8665    0.0000 N   0  0  0  0  0  0  0  0  0  0  0  0
   15.8734  -10.1256    0.0000 C   0  0  0  0  0  0  0  0  0  0  0  0
   15.8684  -10.9428    0.0000 C   0  0  0  0  0  0  0  0  0  0  0  0
   15.0884  -11.1888    0.0000 N   0  0  0  0  0  0  0  0  0  0  0  0
   16.5688  -11.3550    0.0000 C   0  0  0  0  0  0  0  0  0  0  0  0
   17.2824  -10.9543    0.0000 C   0  0  0  0  0  0  0  0  0  0  0  0
   17.2874  -10.1371    0.0000 C   0  0  0  0  0  0  0  0  0  0  0  0
   16.5828   -9.7207    0.0000 C   0  0  0  0  0  0  0  0  0  0  0  0
  1  2  1  0
  2  3  2  0
  3  4  1  0
  4  5  2  0
  5  6  1  0
  1  6  1  0
  7  8  2  0
  8  9  1  0
  6  7  1  0
  1  9  2  0
  5 10  1  0
  3 11  1  0
 12 13  2  0
 13 14  1  0
 14 15  2  0
 15 16  1  0
 16 17  2  0
 12 17  1  0
 15 18  1  0
 14 19  1  0
 10 12  1  0
 22 23  1  0
 23 24  1  0
 24 25  2  0
 25 26  1  0
 22 26  2  0
 27 28  2  0
 28 29  1  0
 29 30  2  0
 24 30  1  0
 25 27  1  0
 21 22  1  0
 20 21  1  0
  8 20  1  0
M  END
>  <Classification>  (1080) 
1

>  <pchembl>  (1080) 
6.11

>  <InChI_steorem>  (1080) 
InChI=1S/C20H15ClFN7S/c1-11-8-18(24-12-6-7-14(22)13(21)9-12)29-19(23-11)27-20(28-29)30-10-17-25-15-4-2-3-5-16(15)26-17/h2-9,24H,10H2,1H3,(H,25,26)

>  <source>  (1080) 
ChEMBL30

>  <source_id>  (1080) 
30

>  <optional_reference>  (1080) 
10.1021/acs.jmedchem.0c01741

>  <optional_origin>  (1080) 
None

>  <target>  (1080) 
MDR1

$$$$

     RDKit          2D

 30 34  0  0  0  0  0  0  0  0999 V2000
   11.3146   -9.4898    0.0000 C   0  0  0  0  0  0  0  0  0  0  0  0
   10.6010   -9.8906    0.0000 N   0  0  0  0  0  0  0  0  0  0  0  0
    9.8965   -9.4783    0.0000 C   0  0  0  0  0  0  0  0  0  0  0  0
    9.9014   -8.6611    0.0000 C   0  0  0  0  0  0  0  0  0  0  0  0
   10.6150   -8.2563    0.0000 C   0  0  0  0  0  0  0  0  0  0  0  0
   11.3195   -8.6727    0.0000 N   0  0  0  0  0  0  0  0  0  0  0  0
   12.0995   -8.4266    0.0000 N   0  0  0  0  0  0  0  0  0  0  0  0
   12.5723   -9.0911    0.0000 C   0  0  0  0  0  0  0  0  0  0  0  0
   12.0890   -9.7449    0.0000 N   0  0  0  0  0  0  0  0  0  0  0  0
   10.6199   -7.4391    0.0000 N   0  0  0  0  0  0  0  0  0  0  0  0
    9.1870   -9.8832    0.0000 C   0  0  0  0  0  0  0  0  0  0  0  0
    9.9154   -7.0268    0.0000 C   0  0  0  0  0  0  0  0  0  0  0  0
    9.9203   -6.2097    0.0000 C   0  0  0  0  0  0  0  0  0  0  0  0
    9.2158   -5.7974    0.0000 C   0  0  0  0  0  0  0  0  0  0  0  0
    8.5063   -6.1981    0.0000 C   0  0  0  0  0  0  0  0  0  0  0  0
    8.5014   -7.0153    0.0000 C   0  0  0  0  0  0  0  0  0  0  0  0
    9.2059   -7.4317    0.0000 C   0  0  0  0  0  0  0  0  0  0  0  0
   13.3895   -9.0960    0.0000 S   0  0  0  0  0  0  0  0  0  0  0  0
   13.7944   -9.8054    0.0000 C   0  0  0  0  0  0  0  0  0  0  0  0
   14.6115   -9.8104    0.0000 C   0  0  0  0  0  0  0  0  0  0  0  0
   15.0948   -9.1524    0.0000 N   0  0  0  0  0  0  0  0  0  0  0  0
   15.8734   -9.4116    0.0000 C   0  0  0  0  0  0  0  0  0  0  0  0
   15.8684  -10.2287    0.0000 C   0  0  0  0  0  0  0  0  0  0  0  0
   15.0884  -10.4748    0.0000 N   0  0  0  0  0  0  0  0  0  0  0  0
   16.5688  -10.6410    0.0000 C   0  0  0  0  0  0  0  0  0  0  0  0
   17.2824  -10.2403    0.0000 C   0  0  0  0  0  0  0  0  0  0  0  0
   17.2874   -9.4231    0.0000 C   0  0  0  0  0  0  0  0  0  0  0  0
   16.5828   -9.0067    0.0000 C   0  0  0  0  0  0  0  0  0  0  0  0
   10.6304   -5.8053    0.0000 F   0  0  0  0  0  0  0  0  0  0  0  0
    7.7950   -5.7801    0.0000 C   0  0  0  0  0  0  0  0  0  0  0  0
  1  2  1  0
  2  3  2  0
  3  4  1  0
  4  5  2  0
  5  6  1  0
  1  6  1  0
  7  8  2  0
  8  9  1  0
  6  7  1  0
  1  9  2  0
  5 10  1  0
  3 11  1  0
 12 13  2  0
 13 14  1  0
 14 15  2  0
 15 16  1  0
 16 17  2  0
 12 17  1  0
 10 12  1  0
 20 21  1  0
 21 22  1  0
 22 23  2  0
 23 24  1  0
 20 24  2  0
 25 26  2  0
 26 27  1  0
 27 28  2  0
 22 28  1  0
 23 25  1  0
 19 20  1  0
 18 19  1  0
  8 18  1  0
 13 29  1  0
 15 30  1  0
M  END
>  <Classification>  (1081) 
1

>  <pchembl>  (1081) 
6.2

>  <InChI_steorem>  (1081) 
InChI=1S/C21H18FN7S/c1-12-7-8-15(14(22)9-12)26-19-10-13(2)23-20-27-21(28-29(19)20)30-11-18-24-16-5-3-4-6-17(16)25-18/h3-10,26H,11H2,1-2H3,(H,24,25)

>  <source>  (1081) 
ChEMBL30

>  <source_id>  (1081) 
30

>  <optional_reference>  (1081) 
10.1021/acs.jmedchem.0c01741

>  <optional_origin>  (1081) 
None

>  <target>  (1081) 
MDR1

$$$$

     RDKit          2D

 30 34  0  0  0  0  0  0  0  0999 V2000
   11.3146   -9.4898    0.0000 C   0  0  0  0  0  0  0  0  0  0  0  0
   10.6010   -9.8906    0.0000 N   0  0  0  0  0  0  0  0  0  0  0  0
    9.8965   -9.4783    0.0000 C   0  0  0  0  0  0  0  0  0  0  0  0
    9.9014   -8.6611    0.0000 C   0  0  0  0  0  0  0  0  0  0  0  0
   10.6150   -8.2563    0.0000 C   0  0  0  0  0  0  0  0  0  0  0  0
   11.3195   -8.6727    0.0000 N   0  0  0  0  0  0  0  0  0  0  0  0
   12.0995   -8.4266    0.0000 N   0  0  0  0  0  0  0  0  0  0  0  0
   12.5723   -9.0911    0.0000 C   0  0  0  0  0  0  0  0  0  0  0  0
   12.0890   -9.7449    0.0000 N   0  0  0  0  0  0  0  0  0  0  0  0
   10.6199   -7.4391    0.0000 N   0  0  0  0  0  0  0  0  0  0  0  0
    9.1870   -9.8832    0.0000 C   0  0  0  0  0  0  0  0  0  0  0  0
    9.9154   -7.0268    0.0000 C   0  0  0  0  0  0  0  0  0  0  0  0
    9.9203   -6.2097    0.0000 C   0  0  0  0  0  0  0  0  0  0  0  0
    9.2158   -5.7974    0.0000 C   0  0  0  0  0  0  0  0  0  0  0  0
    8.5063   -6.1981    0.0000 C   0  0  0  0  0  0  0  0  0  0  0  0
    8.5014   -7.0153    0.0000 C   0  0  0  0  0  0  0  0  0  0  0  0
    9.2059   -7.4317    0.0000 C   0  0  0  0  0  0  0  0  0  0  0  0
   13.3895   -9.0960    0.0000 S   0  0  0  0  0  0  0  0  0  0  0  0
   13.7944   -9.8054    0.0000 C   0  0  0  0  0  0  0  0  0  0  0  0
   14.6115   -9.8104    0.0000 C   0  0  0  0  0  0  0  0  0  0  0  0
   15.0948   -9.1524    0.0000 N   0  0  0  0  0  0  0  0  0  0  0  0
   15.8734   -9.4116    0.0000 C   0  0  0  0  0  0  0  0  0  0  0  0
   15.8684  -10.2287    0.0000 C   0  0  0  0  0  0  0  0  0  0  0  0
   15.0884  -10.4748    0.0000 N   0  0  0  0  0  0  0  0  0  0  0  0
   16.5688  -10.6410    0.0000 C   0  0  0  0  0  0  0  0  0  0  0  0
   17.2824  -10.2403    0.0000 C   0  0  0  0  0  0  0  0  0  0  0  0
   17.2874   -9.4231    0.0000 C   0  0  0  0  0  0  0  0  0  0  0  0
   16.5828   -9.0067    0.0000 C   0  0  0  0  0  0  0  0  0  0  0  0
    7.7836   -7.4220    0.0000 C   0  0  0  0  0  0  0  0  0  0  0  0
    7.7950   -5.7801    0.0000 F   0  0  0  0  0  0  0  0  0  0  0  0
  1  2  1  0
  2  3  2  0
  3  4  1  0
  4  5  2  0
  5  6  1  0
  1  6  1  0
  7  8  2  0
  8  9  1  0
  6  7  1  0
  1  9  2  0
  5 10  1  0
  3 11  1  0
 12 13  2  0
 13 14  1  0
 14 15  2  0
 15 16  1  0
 16 17  2  0
 12 17  1  0
 10 12  1  0
 20 21  1  0
 21 22  1  0
 22 23  2  0
 23 24  1  0
 20 24  2  0
 25 26  2  0
 26 27  1  0
 27 28  2  0
 22 28  1  0
 23 25  1  0
 19 20  1  0
 18 19  1  0
  8 18  1  0
 16 29  1  0
 15 30  1  0
M  END
>  <Classification>  (1082) 
1

>  <pchembl>  (1082) 
6.33

>  <InChI_steorem>  (1082) 
InChI=1S/C21H18FN7S/c1-12-9-14(7-8-15(12)22)24-19-10-13(2)23-20-27-21(28-29(19)20)30-11-18-25-16-5-3-4-6-17(16)26-18/h3-10,24H,11H2,1-2H3,(H,25,26)

>  <source>  (1082) 
ChEMBL30

>  <source_id>  (1082) 
30

>  <optional_reference>  (1082) 
10.1021/acs.jmedchem.0c01741

>  <optional_origin>  (1082) 
None

>  <target>  (1082) 
MDR1

$$$$

     RDKit          2D

 30 34  0  0  0  0  0  0  0  0999 V2000
   11.6204   -8.7115    0.0000 C   0  0  0  0  0  0  0  0  0  0  0  0
   10.9157   -9.1277    0.0000 N   0  0  0  0  0  0  0  0  0  0  0  0
   10.2023   -8.7225    0.0000 C   0  0  0  0  0  0  0  0  0  0  0  0
   10.1977   -7.9053    0.0000 C   0  0  0  0  0  0  0  0  0  0  0  0
   10.9024   -7.4933    0.0000 C   0  0  0  0  0  0  0  0  0  0  0  0
   11.6117   -7.8944    0.0000 N   0  0  0  0  0  0  0  0  0  0  0  0
   12.3862   -7.6355    0.0000 N   0  0  0  0  0  0  0  0  0  0  0  0
   12.8734   -8.2936    0.0000 C   0  0  0  0  0  0  0  0  0  0  0  0
   12.3962   -8.9579    0.0000 N   0  0  0  0  0  0  0  0  0  0  0  0
   10.8978   -6.6762    0.0000 N   0  0  0  0  0  0  0  0  0  0  0  0
    9.4976   -9.1345    0.0000 C   0  0  0  0  0  0  0  0  0  0  0  0
   10.1844   -6.2710    0.0000 C   0  0  0  0  0  0  0  0  0  0  0  0
   10.1798   -5.4539    0.0000 C   0  0  0  0  0  0  0  0  0  0  0  0
    9.4705   -5.0487    0.0000 C   0  0  0  0  0  0  0  0  0  0  0  0
    8.7658   -5.4649    0.0000 C   0  0  0  0  0  0  0  0  0  0  0  0
    8.7704   -6.2820    0.0000 C   0  0  0  0  0  0  0  0  0  0  0  0
    9.4838   -6.6830    0.0000 C   0  0  0  0  0  0  0  0  0  0  0  0
    8.0523   -5.0597    0.0000 F   0  0  0  0  0  0  0  0  0  0  0  0
   13.6905   -8.2890    0.0000 S   0  0  0  0  0  0  0  0  0  0  0  0
   14.1067   -8.9937    0.0000 C   0  0  0  0  0  0  0  0  0  0  0  0
   16.1814   -9.3884    0.0000 C   0  0  0  0  0  0  0  0  0  0  0  0
   15.4069   -9.6473    0.0000 C   0  0  0  0  0  0  0  0  0  0  0  0
   14.9238   -8.9891    0.0000 C   0  0  0  0  0  0  0  0  0  0  0  0
   15.3969   -8.3249    0.0000 C   0  0  0  0  0  0  0  0  0  0  0  0
   16.1768   -8.5713    0.0000 S   0  0  0  0  0  0  0  0  0  0  0  0
   15.2405  -10.4474    0.0000 C   0  0  0  0  0  0  0  0  0  0  0  0
   15.8528  -10.9888    0.0000 C   0  0  0  0  0  0  0  0  0  0  0  0
   16.6273  -10.7299    0.0000 C   0  0  0  0  0  0  0  0  0  0  0  0
   16.7937   -9.9298    0.0000 C   0  0  0  0  0  0  0  0  0  0  0  0
   15.6906  -11.7889    0.0000 Cl  0  0  0  0  0  0  0  0  0  0  0  0
  1  2  1  0
  2  3  2  0
  3  4  1  0
  4  5  2  0
  5  6  1  0
  1  6  1  0
  7  8  2  0
  8  9  1  0
  6  7  1  0
  1  9  2  0
  5 10  1  0
  3 11  1  0
 12 13  2  0
 13 14  1  0
 14 15  2  0
 15 16  1  0
 16 17  2  0
 12 17  1  0
 15 18  1  0
 10 12  1  0
 21 22  2  0
 22 23  1  0
 23 24  2  0
 24 25  1  0
 21 25  1  0
 26 27  2  0
 27 28  1  0
 28 29  2  0
 21 29  1  0
 22 26  1  0
 27 30  1  0
 20 23  1  0
 19 20  1  0
  8 19  1  0
M  END
>  <Classification>  (1083) 
1

>  <pchembl>  (1083) 
5.55

>  <InChI_steorem>  (1083) 
InChI=1S/C21H15ClFN5S2/c1-12-8-19(25-16-5-3-15(23)4-6-16)28-20(24-12)26-21(27-28)30-11-13-10-29-18-7-2-14(22)9-17(13)18/h2-10,25H,11H2,1H3

>  <source>  (1083) 
ChEMBL30

>  <source_id>  (1083) 
30

>  <optional_reference>  (1083) 
10.1021/acs.jmedchem.0c01741

>  <optional_origin>  (1083) 
None

>  <target>  (1083) 
MDR1

$$$$

     RDKit          2D

 30 34  0  0  0  0  0  0  0  0999 V2000
   23.9035  -20.1795    0.0000 C   0  0  0  0  0  0  0  0  0  0  0  0
   23.1968  -20.5939    0.0000 C   0  0  0  0  0  0  0  0  0  0  0  0
   23.2054  -21.4165    0.0000 C   0  0  0  0  0  0  0  0  0  0  0  0
   23.9169  -21.8168    0.0000 N   0  0  0  0  0  0  0  0  0  0  0  0
   24.6144  -20.5835    0.0000 N   0  0  0  0  0  0  0  0  0  0  0  0
   24.6181  -21.4073    0.0000 C   0  0  0  0  0  0  0  0  0  0  0  0
   25.4029  -21.6585    0.0000 N   0  0  0  0  0  0  0  0  0  0  0  0
   25.8842  -20.9897    0.0000 C   0  0  0  0  0  0  0  0  0  0  0  0
   25.3969  -20.3254    0.0000 N   0  0  0  0  0  0  0  0  0  0  0  0
   26.7014  -20.9860    0.0000 S   0  0  0  0  0  0  0  0  0  0  0  0
   27.1068  -20.2765    0.0000 C   0  0  0  0  0  0  0  0  0  0  0  0
   27.9240  -20.2728    0.0000 C   0  0  0  0  0  0  0  0  0  0  0  0
   22.5022  -21.8328    0.0000 C   0  0  0  0  0  0  0  0  0  0  0  0
   23.8980  -19.3623    0.0000 N   0  0  0  0  0  0  0  0  0  0  0  0
   28.4086  -20.9262    0.0000 N   0  0  0  0  0  0  0  0  0  0  0  0
   28.4026  -19.6041    0.0000 N   0  0  0  0  0  0  0  0  0  0  0  0
   29.1810  -19.8529    0.0000 C   0  0  0  0  0  0  0  0  0  0  0  0
   29.1811  -20.6674    0.0000 C   0  0  0  0  0  0  0  0  0  0  0  0
   29.8853  -21.0727    0.0000 C   0  0  0  0  0  0  0  0  0  0  0  0
   30.5900  -20.6647    0.0000 C   0  0  0  0  0  0  0  0  0  0  0  0
   30.5859  -19.8472    0.0000 C   0  0  0  0  0  0  0  0  0  0  0  0
   29.8811  -19.4455    0.0000 C   0  0  0  0  0  0  0  0  0  0  0  0
   24.6029  -18.9489    0.0000 C   0  0  0  0  0  0  0  0  0  0  0  0
   25.3120  -19.3556    0.0000 C   0  0  0  0  0  0  0  0  0  0  0  0
   26.0164  -18.9429    0.0000 C   0  0  0  0  0  0  0  0  0  0  0  0
   26.0113  -18.1248    0.0000 C   0  0  0  0  0  0  0  0  0  0  0  0
   25.2958  -17.7213    0.0000 C   0  0  0  0  0  0  0  0  0  0  0  0
   24.5943  -18.1363    0.0000 C   0  0  0  0  0  0  0  0  0  0  0  0
   26.7152  -17.7100    0.0000 C   0  0  0  0  0  0  0  0  0  0  0  0
   27.4196  -17.2957    0.0000 N   0  0  0  0  0  0  0  0  0  0  0  0
  5  1  1  0
  1  2  2  0
  2  3  1  0
  3  4  2  0
  4  6  1  0
  5  6  1  0
  6  7  2  0
  7  8  1  0
  8  9  2  0
  9  5  1  0
  8 10  1  0
 10 11  1  0
 11 12  1  0
  3 13  1  0
  1 14  1  0
 12 15  1  0
 15 18  1  0
 17 16  1  0
 16 12  2  0
 17 18  2  0
 18 19  1  0
 19 20  2  0
 20 21  1  0
 21 22  2  0
 22 17  1  0
 14 23  1  0
 23 24  2  0
 24 25  1  0
 25 26  2  0
 26 27  1  0
 27 28  2  0
 28 23  1  0
 29 30  3  0
 26 29  1  0
M  END
>  <Classification>  (1084) 
1

>  <pchembl>  (1084) 
6.23

>  <InChI_steorem>  (1084) 
InChI=1S/C21H16N8S/c1-13-10-19(24-15-8-6-14(11-22)7-9-15)29-20(23-13)27-21(28-29)30-12-18-25-16-4-2-3-5-17(16)26-18/h2-10,24H,12H2,1H3,(H,25,26)

>  <source>  (1084) 
ChEMBL30

>  <source_id>  (1084) 
30

>  <optional_reference>  (1084) 
10.1021/acs.jmedchem.0c01741

>  <optional_origin>  (1084) 
None

>  <target>  (1084) 
MDR1

$$$$

     RDKit          2D

 30 34  0  0  0  0  0  0  0  0999 V2000
    8.2233   -8.3053    0.0000 C   0  0  0  0  0  0  0  0  0  0  0  0
   10.7031   -8.6209    0.0000 C   0  0  0  0  0  0  0  0  0  0  0  0
   11.5202   -8.6259    0.0000 C   0  0  0  0  0  0  0  0  0  0  0  0
    8.2282   -7.4882    0.0000 N   0  0  0  0  0  0  0  0  0  0  0  0
    6.8052   -8.2938    0.0000 C   0  0  0  0  0  0  0  0  0  0  0  0
   12.7771   -9.0442    0.0000 C   0  0  0  0  0  0  0  0  0  0  0  0
    9.4810   -7.9066    0.0000 C   0  0  0  0  0  0  0  0  0  0  0  0
    8.9977   -8.5603    0.0000 N   0  0  0  0  0  0  0  0  0  0  0  0
   12.7821   -8.2271    0.0000 C   0  0  0  0  0  0  0  0  0  0  0  0
    6.8290   -5.0252    0.0000 C   0  0  0  0  0  0  0  0  0  0  0  0
   14.1961   -8.2386    0.0000 C   0  0  0  0  0  0  0  0  0  0  0  0
    7.5097   -8.7061    0.0000 N   0  0  0  0  0  0  0  0  0  0  0  0
    6.1245   -4.6129    0.0000 C   0  0  0  0  0  0  0  0  0  0  0  0
   11.9972   -9.2903    0.0000 N   0  0  0  0  0  0  0  0  0  0  0  0
    6.0957   -8.6987    0.0000 C   0  0  0  0  0  0  0  0  0  0  0  0
    5.4101   -5.8308    0.0000 C   0  0  0  0  0  0  0  0  0  0  0  0
    6.8241   -5.8423    0.0000 C   0  0  0  0  0  0  0  0  0  0  0  0
    6.8101   -7.4766    0.0000 C   0  0  0  0  0  0  0  0  0  0  0  0
   10.2982   -7.9115    0.0000 S   0  0  0  0  0  0  0  0  0  0  0  0
   13.4776   -9.4565    0.0000 C   0  0  0  0  0  0  0  0  0  0  0  0
    7.5286   -6.2546    0.0000 N   0  0  0  0  0  0  0  0  0  0  0  0
    9.0082   -7.2421    0.0000 N   0  0  0  0  0  0  0  0  0  0  0  0
    6.1146   -6.2472    0.0000 C   0  0  0  0  0  0  0  0  0  0  0  0
    5.4150   -5.0136    0.0000 C   0  0  0  0  0  0  0  0  0  0  0  0
    7.5237   -7.0718    0.0000 C   0  0  0  0  0  0  0  0  0  0  0  0
   13.4915   -7.8222    0.0000 C   0  0  0  0  0  0  0  0  0  0  0  0
   12.0035   -7.9679    0.0000 N   0  0  0  0  0  0  0  0  0  0  0  0
   14.1911   -9.0558    0.0000 C   0  0  0  0  0  0  0  0  0  0  0  0
    4.6991   -6.2336    0.0000 C   0  0  0  0  0  0  0  0  0  0  0  0
    3.9869   -6.6366    0.0000 C   0  0  0  0  0  0  0  0  0  0  0  0
  7  8  1  0
 17 10  2  0
 22  7  2  0
  2  3  1  0
 27  9  1  0
  3 27  1  0
 25  4  1  0
 10 13  1  0
  9 26  1  0
  1  4  1  0
 21 17  1  0
  9  6  2  0
  6 20  1  0
  4 22  1  0
 17 23  1  0
 20 28  2  0
  7 19  1  0
 13 24  2  0
  3 14  2  0
 25 21  1  0
  1 12  1  0
  1  8  2  0
 24 16  1  0
 12  5  2  0
 11 26  2  0
 28 11  1  0
 16 23  2  0
 19  2  1  0
 18 25  2  0
  5 15  1  0
  5 18  1  0
  6 14  1  0
 16 29  1  0
 29 30  3  0
M  END
>  <Classification>  (1085) 
1

>  <pchembl>  (1085) 
5.84

>  <InChI_steorem>  (1085) 
InChI=1S/C22H17N7S/c1-3-15-7-6-8-16(12-15)24-20-11-14(2)23-21-27-22(28-29(20)21)30-13-19-25-17-9-4-5-10-18(17)26-19/h1,4-12,24H,13H2,2H3,(H,25,26)

>  <source>  (1085) 
ChEMBL30

>  <source_id>  (1085) 
30

>  <optional_reference>  (1085) 
10.1021/acs.jmedchem.0c01741

>  <optional_origin>  (1085) 
None

>  <target>  (1085) 
MDR1

$$$$

     RDKit          2D

 30 34  0  0  0  0  0  0  0  0999 V2000
    8.2233   -8.3053    0.0000 C   0  0  0  0  0  0  0  0  0  0  0  0
   10.7031   -8.6209    0.0000 C   0  0  0  0  0  0  0  0  0  0  0  0
   11.5202   -8.6259    0.0000 C   0  0  0  0  0  0  0  0  0  0  0  0
    8.2282   -7.4882    0.0000 N   0  0  0  0  0  0  0  0  0  0  0  0
    6.8052   -8.2938    0.0000 C   0  0  0  0  0  0  0  0  0  0  0  0
   12.7771   -9.0442    0.0000 C   0  0  0  0  0  0  0  0  0  0  0  0
    9.4810   -7.9066    0.0000 C   0  0  0  0  0  0  0  0  0  0  0  0
    8.9977   -8.5603    0.0000 N   0  0  0  0  0  0  0  0  0  0  0  0
   12.7821   -8.2271    0.0000 C   0  0  0  0  0  0  0  0  0  0  0  0
    6.8290   -5.0252    0.0000 C   0  0  0  0  0  0  0  0  0  0  0  0
   14.1961   -8.2386    0.0000 C   0  0  0  0  0  0  0  0  0  0  0  0
    7.5097   -8.7061    0.0000 N   0  0  0  0  0  0  0  0  0  0  0  0
    6.1245   -4.6129    0.0000 C   0  0  0  0  0  0  0  0  0  0  0  0
   11.9972   -9.2903    0.0000 N   0  0  0  0  0  0  0  0  0  0  0  0
    6.0957   -8.6987    0.0000 C   0  0  0  0  0  0  0  0  0  0  0  0
    5.4101   -5.8308    0.0000 C   0  0  0  0  0  0  0  0  0  0  0  0
    6.8241   -5.8423    0.0000 C   0  0  0  0  0  0  0  0  0  0  0  0
    6.8101   -7.4766    0.0000 C   0  0  0  0  0  0  0  0  0  0  0  0
   10.2982   -7.9115    0.0000 S   0  0  0  0  0  0  0  0  0  0  0  0
   13.4776   -9.4565    0.0000 C   0  0  0  0  0  0  0  0  0  0  0  0
    7.5286   -6.2546    0.0000 N   0  0  0  0  0  0  0  0  0  0  0  0
    9.0082   -7.2421    0.0000 N   0  0  0  0  0  0  0  0  0  0  0  0
    6.1146   -6.2472    0.0000 C   0  0  0  0  0  0  0  0  0  0  0  0
    5.4150   -5.0136    0.0000 C   0  0  0  0  0  0  0  0  0  0  0  0
    7.5237   -7.0718    0.0000 C   0  0  0  0  0  0  0  0  0  0  0  0
   13.4915   -7.8222    0.0000 C   0  0  0  0  0  0  0  0  0  0  0  0
   12.0035   -7.9679    0.0000 N   0  0  0  0  0  0  0  0  0  0  0  0
   14.1911   -9.0558    0.0000 C   0  0  0  0  0  0  0  0  0  0  0  0
    4.7127   -4.6006    0.0000 O   0  0  0  0  0  0  0  0  0  0  0  0
    4.6991   -6.2336    0.0000 Cl  0  0  0  0  0  0  0  0  0  0  0  0
  7  8  1  0
 17 10  2  0
 22  7  2  0
  2  3  1  0
 27  9  1  0
  3 27  1  0
 25  4  1  0
 10 13  1  0
  9 26  1  0
  1  4  1  0
 21 17  1  0
  9  6  2  0
  6 20  1  0
  4 22  1  0
 17 23  1  0
 20 28  2  0
  7 19  1  0
 13 24  2  0
  3 14  2  0
 25 21  1  0
  1 12  1  0
  1  8  2  0
 24 16  1  0
 12  5  2  0
 11 26  2  0
 28 11  1  0
 16 23  2  0
 19  2  1  0
 18 25  2  0
  5 15  1  0
  5 18  1  0
  6 14  1  0
 24 29  1  0
 16 30  1  0
M  END
>  <Classification>  (1086) 
1

>  <pchembl>  (1086) 
5.49

>  <InChI_steorem>  (1086) 
InChI=1S/C20H16ClN7OS/c1-11-8-18(23-12-6-7-16(29)13(21)9-12)28-19(22-11)26-20(27-28)30-10-17-24-14-4-2-3-5-15(14)25-17/h2-9,23,29H,10H2,1H3,(H,24,25)

>  <source>  (1086) 
ChEMBL30

>  <source_id>  (1086) 
30

>  <optional_reference>  (1086) 
10.1021/acs.jmedchem.0c01741

>  <optional_origin>  (1086) 
None

>  <target>  (1086) 
MDR1

$$$$

     RDKit          2D

 30 34  0  0  0  0  0  0  0  0999 V2000
    8.9621   -7.9463    0.0000 C   0  0  0  0  0  0  0  0  0  0  0  0
   11.4418   -8.2619    0.0000 C   0  0  0  0  0  0  0  0  0  0  0  0
   12.2590   -8.2668    0.0000 C   0  0  0  0  0  0  0  0  0  0  0  0
    8.9670   -7.1291    0.0000 N   0  0  0  0  0  0  0  0  0  0  0  0
    7.5440   -7.9347    0.0000 C   0  0  0  0  0  0  0  0  0  0  0  0
   13.5159   -8.6852    0.0000 C   0  0  0  0  0  0  0  0  0  0  0  0
   10.2198   -7.5475    0.0000 C   0  0  0  0  0  0  0  0  0  0  0  0
    9.7365   -8.2013    0.0000 N   0  0  0  0  0  0  0  0  0  0  0  0
   13.5208   -7.8680    0.0000 C   0  0  0  0  0  0  0  0  0  0  0  0
    7.5678   -4.6661    0.0000 C   0  0  0  0  0  0  0  0  0  0  0  0
   14.9348   -7.8795    0.0000 C   0  0  0  0  0  0  0  0  0  0  0  0
    8.2485   -8.3470    0.0000 N   0  0  0  0  0  0  0  0  0  0  0  0
    6.8632   -4.2538    0.0000 C   0  0  0  0  0  0  0  0  0  0  0  0
   12.7359   -8.9312    0.0000 N   0  0  0  0  0  0  0  0  0  0  0  0
    6.8345   -8.3396    0.0000 C   0  0  0  0  0  0  0  0  0  0  0  0
    6.1489   -5.4717    0.0000 C   0  0  0  0  0  0  0  0  0  0  0  0
    7.5629   -5.4832    0.0000 C   0  0  0  0  0  0  0  0  0  0  0  0
    7.5489   -7.1176    0.0000 C   0  0  0  0  0  0  0  0  0  0  0  0
   11.0370   -7.5524    0.0000 S   0  0  0  0  0  0  0  0  0  0  0  0
   14.2163   -9.0974    0.0000 C   0  0  0  0  0  0  0  0  0  0  0  0
    8.2674   -5.8955    0.0000 N   0  0  0  0  0  0  0  0  0  0  0  0
    9.7470   -6.8831    0.0000 N   0  0  0  0  0  0  0  0  0  0  0  0
    6.8534   -5.8881    0.0000 C   0  0  0  0  0  0  0  0  0  0  0  0
    6.1538   -4.6545    0.0000 C   0  0  0  0  0  0  0  0  0  0  0  0
    8.2625   -6.7127    0.0000 C   0  0  0  0  0  0  0  0  0  0  0  0
   14.2303   -7.4631    0.0000 C   0  0  0  0  0  0  0  0  0  0  0  0
   12.7423   -7.6089    0.0000 N   0  0  0  0  0  0  0  0  0  0  0  0
   14.9299   -8.6967    0.0000 C   0  0  0  0  0  0  0  0  0  0  0  0
    5.4395   -5.8720    0.0000 O   0  0  0  0  0  0  0  0  0  0  0  0
    5.4329   -6.6892    0.0000 C   0  0  0  0  0  0  0  0  0  0  0  0
  7  8  1  0
 17 10  2  0
 22  7  2  0
  2  3  1  0
 27  9  1  0
  3 27  1  0
 25  4  1  0
 10 13  1  0
  9 26  1  0
  1  4  1  0
 21 17  1  0
  9  6  2  0
  6 20  1  0
  4 22  1  0
 17 23  1  0
 20 28  2  0
  7 19  1  0
 13 24  2  0
  3 14  2  0
 25 21  1  0
  1 12  1  0
  1  8  2  0
 24 16  1  0
 12  5  2  0
 11 26  2  0
 28 11  1  0
 16 23  2  0
 19  2  1  0
 18 25  2  0
  5 15  1  0
  5 18  1  0
  6 14  1  0
 29 30  1  0
 16 29  1  0
M  END
>  <Classification>  (1087) 
1

>  <pchembl>  (1087) 
6.24

>  <InChI_steorem>  (1087) 
InChI=1S/C21H19N7OS/c1-13-10-19(23-14-6-5-7-15(11-14)29-2)28-20(22-13)26-21(27-28)30-12-18-24-16-8-3-4-9-17(16)25-18/h3-11,23H,12H2,1-2H3,(H,24,25)

>  <source>  (1087) 
ChEMBL30

>  <source_id>  (1087) 
30

>  <optional_reference>  (1087) 
10.1021/acs.jmedchem.0c01741

>  <optional_origin>  (1087) 
None

>  <target>  (1087) 
MDR1

$$$$

     RDKit          2D

 30 34  0  0  0  0  0  0  0  0999 V2000
    8.9621   -7.9463    0.0000 C   0  0  0  0  0  0  0  0  0  0  0  0
   11.4418   -8.2619    0.0000 C   0  0  0  0  0  0  0  0  0  0  0  0
   12.2590   -8.2668    0.0000 C   0  0  0  0  0  0  0  0  0  0  0  0
    8.9670   -7.1291    0.0000 N   0  0  0  0  0  0  0  0  0  0  0  0
    7.5440   -7.9347    0.0000 C   0  0  0  0  0  0  0  0  0  0  0  0
   13.5159   -8.6852    0.0000 C   0  0  0  0  0  0  0  0  0  0  0  0
   10.2198   -7.5475    0.0000 C   0  0  0  0  0  0  0  0  0  0  0  0
    9.7365   -8.2013    0.0000 N   0  0  0  0  0  0  0  0  0  0  0  0
   13.5208   -7.8680    0.0000 C   0  0  0  0  0  0  0  0  0  0  0  0
    7.5678   -4.6661    0.0000 C   0  0  0  0  0  0  0  0  0  0  0  0
   14.9348   -7.8795    0.0000 C   0  0  0  0  0  0  0  0  0  0  0  0
    8.2485   -8.3470    0.0000 N   0  0  0  0  0  0  0  0  0  0  0  0
    6.8632   -4.2538    0.0000 C   0  0  0  0  0  0  0  0  0  0  0  0
   12.7359   -8.9312    0.0000 N   0  0  0  0  0  0  0  0  0  0  0  0
    6.8345   -8.3396    0.0000 C   0  0  0  0  0  0  0  0  0  0  0  0
    6.1489   -5.4717    0.0000 C   0  0  0  0  0  0  0  0  0  0  0  0
    7.5629   -5.4832    0.0000 C   0  0  0  0  0  0  0  0  0  0  0  0
    7.5489   -7.1176    0.0000 C   0  0  0  0  0  0  0  0  0  0  0  0
   11.0370   -7.5524    0.0000 S   0  0  0  0  0  0  0  0  0  0  0  0
   14.2163   -9.0974    0.0000 C   0  0  0  0  0  0  0  0  0  0  0  0
    8.2674   -5.8955    0.0000 N   0  0  0  0  0  0  0  0  0  0  0  0
    9.7470   -6.8831    0.0000 N   0  0  0  0  0  0  0  0  0  0  0  0
    6.8534   -5.8881    0.0000 C   0  0  0  0  0  0  0  0  0  0  0  0
    6.1538   -4.6545    0.0000 C   0  0  0  0  0  0  0  0  0  0  0  0
    8.2625   -6.7127    0.0000 C   0  0  0  0  0  0  0  0  0  0  0  0
   14.2303   -7.4631    0.0000 C   0  0  0  0  0  0  0  0  0  0  0  0
   12.7423   -7.6089    0.0000 N   0  0  0  0  0  0  0  0  0  0  0  0
   14.9299   -8.6967    0.0000 C   0  0  0  0  0  0  0  0  0  0  0  0
    5.4515   -4.2415    0.0000 O   0  0  0  0  0  0  0  0  0  0  0  0
    4.7407   -4.6447    0.0000 C   0  0  0  0  0  0  0  0  0  0  0  0
  7  8  1  0
 17 10  2  0
 22  7  2  0
  2  3  1  0
 27  9  1  0
  3 27  1  0
 25  4  1  0
 10 13  1  0
  9 26  1  0
  1  4  1  0
 21 17  1  0
  9  6  2  0
  6 20  1  0
  4 22  1  0
 17 23  1  0
 20 28  2  0
  7 19  1  0
 13 24  2  0
  3 14  2  0
 25 21  1  0
  1 12  1  0
  1  8  2  0
 24 16  1  0
 12  5  2  0
 11 26  2  0
 28 11  1  0
 16 23  2  0
 19  2  1  0
 18 25  2  0
  5 15  1  0
  5 18  1  0
  6 14  1  0
 29 30  1  0
 24 29  1  0
M  END
>  <Classification>  (1088) 
1

>  <pchembl>  (1088) 
6.5

>  <InChI_steorem>  (1088) 
InChI=1S/C21H19N7OS/c1-13-11-19(23-14-7-9-15(29-2)10-8-14)28-20(22-13)26-21(27-28)30-12-18-24-16-5-3-4-6-17(16)25-18/h3-11,23H,12H2,1-2H3,(H,24,25)

>  <source>  (1088) 
ChEMBL30

>  <source_id>  (1088) 
30

>  <optional_reference>  (1088) 
10.1021/acs.jmedchem.0c01741

>  <optional_origin>  (1088) 
None

>  <target>  (1088) 
MDR1

$$$$

     RDKit          2D

 30 34  0  0  0  0  0  0  0  0999 V2000
    8.9621   -7.9463    0.0000 C   0  0  0  0  0  0  0  0  0  0  0  0
   11.4418   -8.2619    0.0000 C   0  0  0  0  0  0  0  0  0  0  0  0
   12.2590   -8.2668    0.0000 C   0  0  0  0  0  0  0  0  0  0  0  0
    8.9670   -7.1291    0.0000 N   0  0  0  0  0  0  0  0  0  0  0  0
    7.5440   -7.9347    0.0000 C   0  0  0  0  0  0  0  0  0  0  0  0
   13.5159   -8.6852    0.0000 C   0  0  0  0  0  0  0  0  0  0  0  0
   10.2198   -7.5475    0.0000 C   0  0  0  0  0  0  0  0  0  0  0  0
    9.7365   -8.2013    0.0000 N   0  0  0  0  0  0  0  0  0  0  0  0
   13.5208   -7.8680    0.0000 C   0  0  0  0  0  0  0  0  0  0  0  0
    7.5678   -4.6661    0.0000 C   0  0  0  0  0  0  0  0  0  0  0  0
   14.9348   -7.8795    0.0000 C   0  0  0  0  0  0  0  0  0  0  0  0
    8.2485   -8.3470    0.0000 N   0  0  0  0  0  0  0  0  0  0  0  0
    6.8632   -4.2538    0.0000 C   0  0  0  0  0  0  0  0  0  0  0  0
   12.7359   -8.9312    0.0000 N   0  0  0  0  0  0  0  0  0  0  0  0
    6.8345   -8.3396    0.0000 C   0  0  0  0  0  0  0  0  0  0  0  0
    6.1489   -5.4717    0.0000 C   0  0  0  0  0  0  0  0  0  0  0  0
    7.5629   -5.4832    0.0000 C   0  0  0  0  0  0  0  0  0  0  0  0
    7.5489   -7.1176    0.0000 C   0  0  0  0  0  0  0  0  0  0  0  0
   11.0370   -7.5524    0.0000 S   0  0  0  0  0  0  0  0  0  0  0  0
   14.2163   -9.0974    0.0000 C   0  0  0  0  0  0  0  0  0  0  0  0
    8.2674   -5.8955    0.0000 N   0  0  0  0  0  0  0  0  0  0  0  0
    9.7470   -6.8831    0.0000 N   0  0  0  0  0  0  0  0  0  0  0  0
    6.8534   -5.8881    0.0000 C   0  0  0  0  0  0  0  0  0  0  0  0
    6.1538   -4.6545    0.0000 C   0  0  0  0  0  0  0  0  0  0  0  0
    8.2625   -6.7127    0.0000 C   0  0  0  0  0  0  0  0  0  0  0  0
   14.2303   -7.4631    0.0000 C   0  0  0  0  0  0  0  0  0  0  0  0
   12.7423   -7.6089    0.0000 N   0  0  0  0  0  0  0  0  0  0  0  0
   14.9299   -8.6967    0.0000 C   0  0  0  0  0  0  0  0  0  0  0  0
    8.2779   -4.2617    0.0000 Cl  0  0  0  0  0  0  0  0  0  0  0  0
    5.4493   -4.2405    0.0000 Cl  0  0  0  0  0  0  0  0  0  0  0  0
  7  8  1  0
 17 10  2  0
 22  7  2  0
  2  3  1  0
 27  9  1  0
  3 27  1  0
 25  4  1  0
 10 13  1  0
  9 26  1  0
  1  4  1  0
 21 17  1  0
  9  6  2  0
  6 20  1  0
  4 22  1  0
 17 23  1  0
 20 28  2  0
  7 19  1  0
 13 24  2  0
  3 14  2  0
 25 21  1  0
  1 12  1  0
  1  8  2  0
 24 16  1  0
 12  5  2  0
 11 26  2  0
 28 11  1  0
 16 23  2  0
 19  2  1  0
 18 25  2  0
  5 15  1  0
  5 18  1  0
  6 14  1  0
 10 29  1  0
 24 30  1  0
M  END
>  <Classification>  (1089) 
1

>  <pchembl>  (1089) 
6.15

>  <InChI_steorem>  (1089) 
InChI=1S/C20H15Cl2N7S/c1-11-8-18(26-14-7-6-12(21)9-13(14)22)29-19(23-11)27-20(28-29)30-10-17-24-15-4-2-3-5-16(15)25-17/h2-9,26H,10H2,1H3,(H,24,25)

>  <source>  (1089) 
ChEMBL30

>  <source_id>  (1089) 
30

>  <optional_reference>  (1089) 
10.1021/acs.jmedchem.0c01741

>  <optional_origin>  (1089) 
None

>  <target>  (1089) 
MDR1

$$$$

     RDKit          2D

 28 32  0  0  0  0  0  0  0  0999 V2000
    7.4571  -22.7014    0.0000 C   0  0  0  0  0  0  0  0  0  0  0  0
    7.9200  -23.3876    0.0000 C   0  0  0  0  0  0  0  0  0  0  0  0
    8.7420  -23.3301    0.0000 C   0  0  0  0  0  0  0  0  0  0  0  0
    7.8137  -21.9617    0.0000 C   0  0  0  0  0  0  0  0  0  0  0  0
    8.6377  -21.8979    0.0000 C   0  0  0  0  0  0  0  0  0  0  0  0
    9.1054  -22.5799    0.0000 C   0  0  0  0  0  0  0  0  0  0  0  0
    9.1420  -21.2422    0.0000 N   0  0  0  0  0  0  0  0  0  0  0  0
    9.9180  -21.5200    0.0000 C   0  0  0  0  0  0  0  0  0  0  0  0
    9.8975  -22.3447    0.0000 C   0  0  0  0  0  0  0  0  0  0  0  0
   10.5977  -22.7724    0.0000 C   0  0  0  0  0  0  0  0  0  0  0  0
   10.6386  -21.1229    0.0000 C   0  0  0  0  0  0  0  0  0  0  0  0
   11.3431  -21.5553    0.0000 N   0  0  0  0  0  0  0  0  0  0  0  0
   11.3210  -22.3776    0.0000 C   0  0  0  0  0  0  0  0  0  0  0  0
   12.0183  -22.8057    0.0000 C   0  0  0  0  0  0  0  0  0  0  0  0
   12.0626  -21.1609    0.0000 C   0  0  0  0  0  0  0  0  0  0  0  0
   12.7643  -21.5936    0.0000 C   0  0  0  0  0  0  0  0  0  0  0  0
   12.7445  -22.4139    0.0000 N   0  0  0  0  0  0  0  0  0  0  0  0
   13.5185  -22.6862    0.0000 C   0  0  0  0  0  0  0  0  0  0  0  0
   14.0167  -22.0342    0.0000 C   0  0  0  0  0  0  0  0  0  0  0  0
   13.5505  -21.3590    0.0000 C   0  0  0  0  0  0  0  0  0  0  0  0
    6.6343  -22.7608    0.0000 O   0  0  0  0  0  0  0  0  0  0  0  0
    6.1714  -22.0778    0.0000 C   0  0  0  0  0  0  0  0  0  0  0  0
   10.6579  -20.2981    0.0000 C   0  0  0  0  0  0  0  0  0  0  0  0
    9.9532  -19.8689    0.0000 C   0  0  0  0  0  0  0  0  0  0  0  0
    9.9725  -19.0441    0.0000 C   0  0  0  0  0  0  0  0  0  0  0  0
    9.2292  -20.2646    0.0000 C   0  0  0  0  0  0  0  0  0  0  0  0
   12.0836  -20.3361    0.0000 O   0  0  0  0  0  0  0  0  0  0  0  0
   11.9952  -23.6304    0.0000 O   0  0  0  0  0  0  0  0  0  0  0  0
  7  5  1  0
 12 15  1  0
 13 14  1  0
 14 17  1  0
 16 15  1  0
 16 17  1  0
  7  8  1  0
  3  6  2  0
  8  9  2  0
  1  2  2  0
  5  4  2  0
 17 18  1  0
 18 19  1  0
 19 20  1  0
 20 16  1  0
  4  1  1  0
  1 21  1  0
  5  6  1  0
 21 22  1  0
  8 11  1  0
 11 23  1  0
  9 10  1  0
 23 24  2  3
 10 13  1  0
 24 25  1  0
 12 11  1  0
 24 26  1  0
 12 13  1  0
 15 27  2  0
  2  3  1  0
 14 28  2  0
  6  9  1  0
M  END
>  <Classification>  (1090) 
1

>  <pchembl>  (1090) 
5.74

>  <InChI_steorem>  (1090) 
InChI=1S/C22H25N3O3/c1-12(2)9-18-20-15(14-7-6-13(28-3)10-16(14)23-20)11-19-21(26)24-8-4-5-17(24)22(27)25(18)19/h6-7,9-10,17-19,23H,4-5,8,11H2,1-3H3

>  <source>  (1090) 
ChEMBL30

>  <source_id>  (1090) 
30

>  <optional_reference>  (1090) 
10.1016/j.ejmech.2020.112133

>  <optional_origin>  (1090) 
None

>  <target>  (1090) 
MDR1

$$$$

     RDKit          2D

 31 35  0  0  0  0  0  0  0  0999 V2000
   11.3146   -9.4898    0.0000 C   0  0  0  0  0  0  0  0  0  0  0  0
   10.6010   -9.8906    0.0000 N   0  0  0  0  0  0  0  0  0  0  0  0
    9.8965   -9.4783    0.0000 C   0  0  0  0  0  0  0  0  0  0  0  0
    9.9014   -8.6611    0.0000 C   0  0  0  0  0  0  0  0  0  0  0  0
   10.6150   -8.2563    0.0000 C   0  0  0  0  0  0  0  0  0  0  0  0
   11.3195   -8.6727    0.0000 N   0  0  0  0  0  0  0  0  0  0  0  0
   12.0995   -8.4266    0.0000 N   0  0  0  0  0  0  0  0  0  0  0  0
   12.5723   -9.0911    0.0000 C   0  0  0  0  0  0  0  0  0  0  0  0
   12.0890   -9.7449    0.0000 N   0  0  0  0  0  0  0  0  0  0  0  0
   10.6199   -7.4391    0.0000 N   0  0  0  0  0  0  0  0  0  0  0  0
    9.1870   -9.8832    0.0000 C   0  0  0  0  0  0  0  0  0  0  0  0
    9.9154   -7.0268    0.0000 C   0  0  0  0  0  0  0  0  0  0  0  0
    9.9203   -6.2097    0.0000 C   0  0  0  0  0  0  0  0  0  0  0  0
    9.2158   -5.7974    0.0000 C   0  0  0  0  0  0  0  0  0  0  0  0
    8.5063   -6.1981    0.0000 C   0  0  0  0  0  0  0  0  0  0  0  0
    8.5014   -7.0153    0.0000 C   0  0  0  0  0  0  0  0  0  0  0  0
    9.2059   -7.4317    0.0000 C   0  0  0  0  0  0  0  0  0  0  0  0
   13.3895   -9.0960    0.0000 S   0  0  0  0  0  0  0  0  0  0  0  0
   13.7944   -9.8054    0.0000 C   0  0  0  0  0  0  0  0  0  0  0  0
   14.6115   -9.8104    0.0000 C   0  0  0  0  0  0  0  0  0  0  0  0
   15.0948   -9.1524    0.0000 N   0  0  0  0  0  0  0  0  0  0  0  0
   15.8734   -9.4116    0.0000 C   0  0  0  0  0  0  0  0  0  0  0  0
   15.8684  -10.2287    0.0000 C   0  0  0  0  0  0  0  0  0  0  0  0
   15.0884  -10.4748    0.0000 N   0  0  0  0  0  0  0  0  0  0  0  0
   16.5688  -10.6410    0.0000 C   0  0  0  0  0  0  0  0  0  0  0  0
   17.2824  -10.2403    0.0000 C   0  0  0  0  0  0  0  0  0  0  0  0
   17.2874   -9.4231    0.0000 C   0  0  0  0  0  0  0  0  0  0  0  0
   16.5828   -9.0067    0.0000 C   0  0  0  0  0  0  0  0  0  0  0  0
   10.6304   -5.8053    0.0000 F   0  0  0  0  0  0  0  0  0  0  0  0
    7.8018   -5.7841    0.0000 F   0  0  0  0  0  0  0  0  0  0  0  0
    7.7904   -7.4181    0.0000 F   0  0  0  0  0  0  0  0  0  0  0  0
  1  2  1  0
  2  3  2  0
  3  4  1  0
  4  5  2  0
  5  6  1  0
  1  6  1  0
  7  8  2  0
  8  9  1  0
  6  7  1  0
  1  9  2  0
  5 10  1  0
  3 11  1  0
 12 13  2  0
 13 14  1  0
 14 15  2  0
 15 16  1  0
 16 17  2  0
 12 17  1  0
 10 12  1  0
 20 21  1  0
 21 22  1  0
 22 23  2  0
 23 24  1  0
 20 24  2  0
 25 26  2  0
 26 27  1  0
 27 28  2  0
 22 28  1  0
 23 25  1  0
 19 20  1  0
 18 19  1  0
  8 18  1  0
 13 29  1  0
 15 30  1  0
 16 31  1  0
M  END
>  <Classification>  (1091) 
1

>  <pchembl>  (1091) 
6.58

>  <InChI_steorem>  (1091) 
InChI=1S/C20H14F3N7S/c1-10-6-18(27-16-8-12(22)11(21)7-13(16)23)30-19(24-10)28-20(29-30)31-9-17-25-14-4-2-3-5-15(14)26-17/h2-8,27H,9H2,1H3,(H,25,26)

>  <source>  (1091) 
ChEMBL30

>  <source_id>  (1091) 
30

>  <optional_reference>  (1091) 
10.1021/acs.jmedchem.0c01741

>  <optional_origin>  (1091) 
None

>  <target>  (1091) 
MDR1

$$$$

     RDKit          2D

 31 35  0  0  0  0  0  0  0  0999 V2000
   12.5288  -11.9689    0.0000 C   0  0  0  0  0  0  0  0  0  0  0  0
   12.5277  -12.7885    0.0000 C   0  0  0  0  0  0  0  0  0  0  0  0
   13.2357  -13.1974    0.0000 C   0  0  0  0  0  0  0  0  0  0  0  0
   13.2340  -11.5601    0.0000 C   0  0  0  0  0  0  0  0  0  0  0  0
   13.9426  -11.9653    0.0000 C   0  0  0  0  0  0  0  0  0  0  0  0
   13.9428  -12.7885    0.0000 C   0  0  0  0  0  0  0  0  0  0  0  0
   14.7258  -13.0427    0.0000 N   0  0  0  0  0  0  0  0  0  0  0  0
   14.7254  -11.7108    0.0000 C   0  0  0  0  0  0  0  0  0  0  0  0
   15.2096  -12.3779    0.0000 C   0  0  0  0  0  0  0  0  0  0  0  0
   16.0249  -12.2926    0.0000 C   0  0  0  0  0  0  0  0  0  0  0  0
   16.3623  -11.5412    0.0000 N   0  0  0  0  0  0  0  0  0  0  0  0
   15.8782  -10.8741    0.0000 C   0  0  0  0  0  0  0  0  0  0  0  0
   15.0565  -10.9584    0.0000 C   0  0  0  0  0  0  0  0  0  0  0  0
   17.1752  -11.4573    0.0000 C   0  0  0  0  0  0  0  0  0  0  0  0
   17.6543  -12.1193    0.0000 O   0  0  0  0  0  0  0  0  0  0  0  0
   17.5090  -10.7114    0.0000 C   0  0  0  0  0  0  0  0  0  0  0  0
   18.3221  -10.6316    0.0000 C   0  0  0  0  0  0  0  0  0  0  0  0
   18.6559   -9.8865    0.0000 C   0  0  0  0  0  0  0  0  0  0  0  0
   18.1767   -9.2235    0.0000 C   0  0  0  0  0  0  0  0  0  0  0  0
   17.3598   -9.3104    0.0000 C   0  0  0  0  0  0  0  0  0  0  0  0
   17.0298  -10.0557    0.0000 C   0  0  0  0  0  0  0  0  0  0  0  0
   16.5048  -12.9513    0.0000 C   0  0  0  0  0  0  0  0  0  0  0  0
   16.1694  -13.6976    0.0000 C   0  0  0  0  0  0  0  0  0  0  0  0
   16.6477  -14.3593    0.0000 C   0  0  0  0  0  0  0  0  0  0  0  0
   17.4615  -14.2757    0.0000 C   0  0  0  0  0  0  0  0  0  0  0  0
   17.7946  -13.5249    0.0000 C   0  0  0  0  0  0  0  0  0  0  0  0
   17.3142  -12.8664    0.0000 C   0  0  0  0  0  0  0  0  0  0  0  0
   18.5094   -8.4771    0.0000 O   0  0  0  0  0  0  0  0  0  0  0  0
   19.3222   -8.3921    0.0000 C   0  0  0  0  0  0  0  0  0  0  0  0
   16.3136  -15.1050    0.0000 Cl  0  0  0  0  0  0  0  0  0  0  0  0
   17.9415  -14.9371    0.0000 Cl  0  0  0  0  0  0  0  0  0  0  0  0
  1  2  2  0
  2  3  1  0
  3  6  2  0
  5  4  2  0
  4  1  1  0
  5  6  1  0
  6  7  1  0
  7  9  1  0
  8  5  1  0
  8  9  2  0
  8 13  1  0
  9 10  1  0
 10 11  1  0
 11 12  1  0
 12 13  1  0
 11 14  1  0
 14 15  2  0
 14 16  1  0
 16 17  2  0
 17 18  1  0
 18 19  2  0
 19 20  1  0
 20 21  2  0
 21 16  1  0
 22 23  2  0
 23 24  1  0
 24 25  2  0
 25 26  1  0
 26 27  2  0
 27 22  1  0
 10 22  1  0
 19 28  1  0
 28 29  1  0
 24 30  1  0
 25 31  1  0
M  END
>  <Classification>  (1092) 
1

>  <pchembl>  (1092) 
6.65

>  <InChI_steorem>  (1092) 
InChI=1S/C25H20Cl2N2O2/c1-31-17-9-6-15(7-10-17)25(30)29-13-12-19-18-4-2-3-5-22(18)28-23(19)24(29)16-8-11-20(26)21(27)14-16/h2-11,14,24,28H,12-13H2,1H3

>  <source>  (1092) 
ChEMBL30

>  <source_id>  (1092) 
30

>  <optional_reference>  (1092) 
10.1016/j.ejmech.2020.112133

>  <optional_origin>  (1092) 
None

>  <target>  (1092) 
MDR1

$$$$

     RDKit          2D

 31 35  0  0  0  0  0  0  0  0999 V2000
   33.8873   -3.8811    0.0000 C   0  0  0  0  0  0  0  0  0  0  0  0
   33.1805   -4.2955    0.0000 C   0  0  0  0  0  0  0  0  0  0  0  0
   33.1892   -5.1181    0.0000 C   0  0  0  0  0  0  0  0  0  0  0  0
   33.9006   -5.5184    0.0000 N   0  0  0  0  0  0  0  0  0  0  0  0
   34.5982   -4.2850    0.0000 N   0  0  0  0  0  0  0  0  0  0  0  0
   34.6019   -5.1089    0.0000 C   0  0  0  0  0  0  0  0  0  0  0  0
   35.3866   -5.3600    0.0000 N   0  0  0  0  0  0  0  0  0  0  0  0
   35.8680   -4.6913    0.0000 C   0  0  0  0  0  0  0  0  0  0  0  0
   35.3806   -4.0270    0.0000 N   0  0  0  0  0  0  0  0  0  0  0  0
   36.6852   -4.6876    0.0000 S   0  0  0  0  0  0  0  0  0  0  0  0
   37.0905   -3.9780    0.0000 C   0  0  0  0  0  0  0  0  0  0  0  0
   37.9077   -3.9743    0.0000 C   0  0  0  0  0  0  0  0  0  0  0  0
   32.4859   -5.5343    0.0000 C   0  0  0  0  0  0  0  0  0  0  0  0
   33.8817   -3.0639    0.0000 N   0  0  0  0  0  0  0  0  0  0  0  0
   38.3924   -4.6278    0.0000 N   0  0  0  0  0  0  0  0  0  0  0  0
   38.3864   -3.3056    0.0000 N   0  0  0  0  0  0  0  0  0  0  0  0
   39.1647   -3.5545    0.0000 C   0  0  0  0  0  0  0  0  0  0  0  0
   39.1649   -4.3689    0.0000 C   0  0  0  0  0  0  0  0  0  0  0  0
   39.8691   -4.7743    0.0000 C   0  0  0  0  0  0  0  0  0  0  0  0
   40.5737   -4.3663    0.0000 C   0  0  0  0  0  0  0  0  0  0  0  0
   40.5697   -3.5488    0.0000 C   0  0  0  0  0  0  0  0  0  0  0  0
   39.8648   -3.1471    0.0000 C   0  0  0  0  0  0  0  0  0  0  0  0
   34.5866   -2.6505    0.0000 C   0  0  0  0  0  0  0  0  0  0  0  0
   35.2958   -3.0572    0.0000 C   0  0  0  0  0  0  0  0  0  0  0  0
   36.0002   -2.6445    0.0000 C   0  0  0  0  0  0  0  0  0  0  0  0
   35.9951   -1.8264    0.0000 C   0  0  0  0  0  0  0  0  0  0  0  0
   35.2796   -1.4228    0.0000 C   0  0  0  0  0  0  0  0  0  0  0  0
   34.5781   -1.8379    0.0000 C   0  0  0  0  0  0  0  0  0  0  0  0
   36.6994   -1.4121    0.0000 C   0  0  0  0  0  0  0  0  0  0  0  0
   37.4104   -1.8149    0.0000 O   0  0  0  0  0  0  0  0  0  0  0  0
   36.6928   -0.5949    0.0000 O   0  0  0  0  0  0  0  0  0  0  0  0
  5  1  1  0
  1  2  2  0
  2  3  1  0
  3  4  2  0
  4  6  1  0
  5  6  1  0
  6  7  2  0
  7  8  1  0
  8  9  2  0
  9  5  1  0
  8 10  1  0
 10 11  1  0
 11 12  1  0
  3 13  1  0
  1 14  1  0
 12 15  1  0
 15 18  1  0
 17 16  1  0
 16 12  2  0
 17 18  2  0
 18 19  1  0
 19 20  2  0
 20 21  1  0
 21 22  2  0
 22 17  1  0
 14 23  1  0
 23 24  2  0
 24 25  1  0
 25 26  2  0
 26 27  1  0
 27 28  2  0
 28 23  1  0
 26 29  1  0
 29 30  1  0
 29 31  2  0
M  END
>  <Classification>  (1093) 
1

>  <pchembl>  (1093) 
5.39

>  <InChI_steorem>  (1093) 
InChI=1S/C21H17N7O2S/c1-12-10-18(23-14-8-6-13(7-9-14)19(29)30)28-20(22-12)26-21(27-28)31-11-17-24-15-4-2-3-5-16(15)25-17/h2-10,23H,11H2,1H3,(H,24,25)(H,29,30)

>  <source>  (1093) 
ChEMBL30

>  <source_id>  (1093) 
30

>  <optional_reference>  (1093) 
10.1021/acs.jmedchem.0c01741

>  <optional_origin>  (1093) 
None

>  <target>  (1093) 
MDR1

$$$$

     RDKit          2D

 31 35  0  0  0  0  0  0  0  0999 V2000
    8.9621   -7.9463    0.0000 C   0  0  0  0  0  0  0  0  0  0  0  0
   11.4418   -8.2619    0.0000 C   0  0  0  0  0  0  0  0  0  0  0  0
   12.2590   -8.2668    0.0000 C   0  0  0  0  0  0  0  0  0  0  0  0
    8.9670   -7.1291    0.0000 N   0  0  0  0  0  0  0  0  0  0  0  0
    7.5440   -7.9347    0.0000 C   0  0  0  0  0  0  0  0  0  0  0  0
   13.5159   -8.6852    0.0000 C   0  0  0  0  0  0  0  0  0  0  0  0
   10.2198   -7.5475    0.0000 C   0  0  0  0  0  0  0  0  0  0  0  0
    9.7365   -8.2013    0.0000 N   0  0  0  0  0  0  0  0  0  0  0  0
   13.5208   -7.8680    0.0000 C   0  0  0  0  0  0  0  0  0  0  0  0
    7.5678   -4.6661    0.0000 C   0  0  0  0  0  0  0  0  0  0  0  0
   14.9348   -7.8795    0.0000 C   0  0  0  0  0  0  0  0  0  0  0  0
    8.2485   -8.3470    0.0000 N   0  0  0  0  0  0  0  0  0  0  0  0
    6.8632   -4.2538    0.0000 C   0  0  0  0  0  0  0  0  0  0  0  0
   12.7359   -8.9312    0.0000 N   0  0  0  0  0  0  0  0  0  0  0  0
    6.8345   -8.3396    0.0000 C   0  0  0  0  0  0  0  0  0  0  0  0
    6.1489   -5.4717    0.0000 C   0  0  0  0  0  0  0  0  0  0  0  0
    7.5629   -5.4832    0.0000 C   0  0  0  0  0  0  0  0  0  0  0  0
    7.5489   -7.1176    0.0000 C   0  0  0  0  0  0  0  0  0  0  0  0
   11.0370   -7.5524    0.0000 S   0  0  0  0  0  0  0  0  0  0  0  0
   14.2163   -9.0974    0.0000 C   0  0  0  0  0  0  0  0  0  0  0  0
    8.2674   -5.8955    0.0000 N   0  0  0  0  0  0  0  0  0  0  0  0
    9.7470   -6.8831    0.0000 N   0  0  0  0  0  0  0  0  0  0  0  0
    6.8534   -5.8881    0.0000 C   0  0  0  0  0  0  0  0  0  0  0  0
    6.1538   -4.6545    0.0000 C   0  0  0  0  0  0  0  0  0  0  0  0
    8.2625   -6.7127    0.0000 C   0  0  0  0  0  0  0  0  0  0  0  0
   14.2303   -7.4631    0.0000 C   0  0  0  0  0  0  0  0  0  0  0  0
   12.7423   -7.6089    0.0000 N   0  0  0  0  0  0  0  0  0  0  0  0
   14.9299   -8.6967    0.0000 C   0  0  0  0  0  0  0  0  0  0  0  0
    5.4493   -4.2405    0.0000 C   0  0  0  0  0  0  0  0  0  0  0  0
    5.4556   -3.4233    0.0000 O   0  0  0  0  0  0  0  0  0  0  0  0
    4.7384   -4.6436    0.0000 C   0  0  0  0  0  0  0  0  0  0  0  0
  7  8  1  0
 17 10  2  0
 22  7  2  0
  2  3  1  0
 27  9  1  0
  3 27  1  0
 25  4  1  0
 10 13  1  0
  9 26  1  0
  1  4  1  0
 21 17  1  0
  9  6  2  0
  6 20  1  0
  4 22  1  0
 17 23  1  0
 20 28  2  0
  7 19  1  0
 13 24  2  0
  3 14  2  0
 25 21  1  0
  1 12  1  0
  1  8  2  0
 24 16  1  0
 12  5  2  0
 11 26  2  0
 28 11  1  0
 16 23  2  0
 19  2  1  0
 18 25  2  0
  5 15  1  0
  5 18  1  0
  6 14  1  0
 24 29  1  0
 29 30  2  0
 29 31  1  0
M  END
>  <Classification>  (1094) 
1

>  <pchembl>  (1094) 
6.12

>  <InChI_steorem>  (1094) 
InChI=1S/C22H19N7OS/c1-13-11-20(24-16-9-7-15(8-10-16)14(2)30)29-21(23-13)27-22(28-29)31-12-19-25-17-5-3-4-6-18(17)26-19/h3-11,24H,12H2,1-2H3,(H,25,26)

>  <source>  (1094) 
ChEMBL30

>  <source_id>  (1094) 
30

>  <optional_reference>  (1094) 
10.1021/acs.jmedchem.0c01741

>  <optional_origin>  (1094) 
None

>  <target>  (1094) 
MDR1

$$$$

     RDKit          2D

 32 36  0  0  0  0  0  0  0  0999 V2000
    5.8772   -6.5169    0.0000 F   0  0  0  0  0  0  0  0  0  0  0  0
    6.2899   -5.8111    0.0000 C   0  0  0  0  0  0  0  0  0  0  0  0
    5.4723   -5.8066    0.0000 F   0  0  0  0  0  0  0  0  0  0  0  0
    9.8040   -9.5187    0.0000 C   0  0  0  0  0  0  0  0  0  0  0  0
   12.2838   -9.8343    0.0000 C   0  0  0  0  0  0  0  0  0  0  0  0
   13.1010   -9.8393    0.0000 C   0  0  0  0  0  0  0  0  0  0  0  0
    9.8090   -8.7016    0.0000 N   0  0  0  0  0  0  0  0  0  0  0  0
    8.3859   -9.5072    0.0000 C   0  0  0  0  0  0  0  0  0  0  0  0
   14.3579  -10.2576    0.0000 C   0  0  0  0  0  0  0  0  0  0  0  0
   11.0618   -9.1200    0.0000 C   0  0  0  0  0  0  0  0  0  0  0  0
   10.5784   -9.7738    0.0000 N   0  0  0  0  0  0  0  0  0  0  0  0
   14.3628   -9.4405    0.0000 C   0  0  0  0  0  0  0  0  0  0  0  0
    8.4097   -6.2386    0.0000 C   0  0  0  0  0  0  0  0  0  0  0  0
   15.7768   -9.4520    0.0000 C   0  0  0  0  0  0  0  0  0  0  0  0
    9.0905   -9.9195    0.0000 N   0  0  0  0  0  0  0  0  0  0  0  0
    7.7052   -5.8263    0.0000 C   0  0  0  0  0  0  0  0  0  0  0  0
   13.5779  -10.5037    0.0000 N   0  0  0  0  0  0  0  0  0  0  0  0
    7.6765   -9.9121    0.0000 C   0  0  0  0  0  0  0  0  0  0  0  0
    6.9908   -7.0442    0.0000 C   0  0  0  0  0  0  0  0  0  0  0  0
    8.4048   -7.0557    0.0000 C   0  0  0  0  0  0  0  0  0  0  0  0
    8.3908   -8.6900    0.0000 C   0  0  0  0  0  0  0  0  0  0  0  0
   11.8789   -9.1249    0.0000 S   0  0  0  0  0  0  0  0  0  0  0  0
   15.0583  -10.6699    0.0000 C   0  0  0  0  0  0  0  0  0  0  0  0
    9.1094   -7.4680    0.0000 N   0  0  0  0  0  0  0  0  0  0  0  0
   10.5890   -8.4555    0.0000 N   0  0  0  0  0  0  0  0  0  0  0  0
    7.6954   -7.4606    0.0000 C   0  0  0  0  0  0  0  0  0  0  0  0
    6.9957   -6.2270    0.0000 C   0  0  0  0  0  0  0  0  0  0  0  0
    9.1044   -8.2852    0.0000 C   0  0  0  0  0  0  0  0  0  0  0  0
   15.0723   -9.0356    0.0000 C   0  0  0  0  0  0  0  0  0  0  0  0
   13.5843   -9.1813    0.0000 N   0  0  0  0  0  0  0  0  0  0  0  0
   15.7719  -10.2692    0.0000 C   0  0  0  0  0  0  0  0  0  0  0  0
    6.2975   -4.9958    0.0000 F   0  0  0  0  0  0  0  0  0  0  0  0
  2  1  1  0
  3  2  1  0
 10 11  1  0
 20 13  2  0
 25 10  2  0
  5  6  1  0
 30 12  1  0
  6 30  1  0
 28  7  1  0
 13 16  1  0
 12 29  1  0
  4  7  1  0
 24 20  1  0
 12  9  2  0
  9 23  1  0
  7 25  1  0
 20 26  1  0
 23 31  2  0
 10 22  1  0
 16 27  2  0
  6 17  2  0
 28 24  1  0
  4 15  1  0
  4 11  2  0
 27 19  1  0
 15  8  2  0
 14 29  2  0
 31 14  1  0
 19 26  2  0
 22  5  1  0
 21 28  2  0
  8 18  1  0
  8 21  1  0
  9 17  1  0
 27  2  1  0
  2 32  1  0
M  END
>  <Classification>  (1095) 
1

>  <pchembl>  (1095) 
6.07

>  <InChI_steorem>  (1095) 
InChI=1S/C21H16F3N7S/c1-12-10-18(26-14-8-6-13(7-9-14)21(22,23)24)31-19(25-12)29-20(30-31)32-11-17-27-15-4-2-3-5-16(15)28-17/h2-10,26H,11H2,1H3,(H,27,28)

>  <source>  (1095) 
ChEMBL30

>  <source_id>  (1095) 
30

>  <optional_reference>  (1095) 
10.1021/acs.jmedchem.0c01741

>  <optional_origin>  (1095) 
None

>  <target>  (1095) 
MDR1

$$$$

     RDKit          2D

 33 36  0  0  0  0  0  0  0  0999 V2000
   17.7792  -25.7283    0.0000 C   0  0  0  0  0  0  0  0  0  0  0  0
   17.0646  -26.1408    0.0000 C   0  0  0  0  0  0  0  0  0  0  0  0
   17.7792  -24.9033    0.0000 O   0  0  0  0  0  0  0  0  0  0  0  0
   18.4937  -26.1408    0.0000 O   0  0  0  0  0  0  0  0  0  0  0  0
   19.9928  -28.4582    0.0000 O   0  0  0  0  0  0  0  0  0  0  0  0
   20.4776  -27.7908    0.0000 C   0  0  0  0  0  0  0  0  0  0  0  0
   19.9928  -27.1234    0.0000 C   0  0  0  0  0  0  0  0  0  0  0  0
   19.2081  -27.3783    0.0000 C   0  0  0  0  0  0  0  0  0  0  0  0
   19.2081  -28.2033    0.0000 C   0  0  0  0  0  0  0  0  0  0  0  0
   18.4937  -26.9658    0.0000 C   0  0  0  0  0  0  0  0  0  0  0  0
   17.7792  -27.3783    0.0000 C   0  0  0  0  0  0  0  0  0  0  0  0
   17.7792  -28.2033    0.0000 C   0  0  0  0  0  0  0  0  0  0  0  0
   18.4937  -28.6158    0.0000 C   0  0  0  0  0  0  0  0  0  0  0  0
   20.0726  -26.3554    0.0000 C   0  0  0  0  0  0  0  0  0  0  0  0
   21.3027  -27.7908    0.0000 N   0  0  0  0  0  0  0  0  0  0  0  0
   17.0646  -28.6158    0.0000 C   0  0  0  0  0  0  0  0  0  0  0  0
   17.0646  -29.4408    0.0000 C   0  0  0  0  0  0  0  0  0  0  0  0
   16.3502  -29.8534    0.0000 C   0  0  0  0  0  0  0  0  0  0  0  0
   15.6357  -29.4408    0.0000 C   0  0  0  0  0  0  0  0  0  0  0  0
   15.6357  -28.6158    0.0000 C   0  0  0  0  0  0  0  0  0  0  0  0
   16.3502  -28.2033    0.0000 C   0  0  0  0  0  0  0  0  0  0  0  0
   14.9212  -29.8534    0.0000 O   0  0  0  0  0  0  0  0  0  0  0  0
   14.2068  -29.4408    0.0000 C   0  0  0  0  0  0  0  0  0  0  0  0
   21.7152  -28.5053    0.0000 C   0  0  0  0  0  0  0  0  0  0  0  0
   22.5338  -28.5011    0.0000 C   0  0  0  0  0  0  0  0  0  0  0  0
   21.3045  -29.2208    0.0000 O   0  0  0  0  0  0  0  0  0  0  0  0
   21.7152  -27.0763    0.0000 C   0  0  0  0  0  0  0  0  0  0  0  0
   22.5402  -27.0763    0.0000 C   0  0  0  0  0  0  0  0  0  0  0  0
   21.3027  -26.3619    0.0000 O   0  0  0  0  0  0  0  0  0  0  0  0
   20.7388  -25.9687    0.0000 S   0  0  0  0  0  0  0  0  0  0  0  0
   20.5776  -25.2135    0.0000 C   0  0  0  0  0  0  0  0  0  0  0  0
   19.8095  -25.1336    0.0000 C   0  0  0  0  0  0  0  0  0  0  0  0
   19.4964  -25.8393    0.0000 C   0  0  0  0  0  0  0  0  0  0  0  0
  1  2  1  0
  1  3  2  0
  1  4  1  0
  5  6  1  0
  6  7  2  0
  7  8  1  0
  8  9  2  0
  5  9  1  0
 10 11  2  0
 11 12  1  0
 12 13  2  0
  9 13  1  0
  8 10  1  0
  7 14  1  0
  6 15  1  0
 16 17  2  0
 17 18  1  0
 18 19  2  0
 19 20  1  0
 20 21  2  0
 16 21  1  0
 22 23  1  0
 19 22  1  0
 12 16  1  0
  4 10  1  0
 15 24  1  0
 25 24  1  0
 24 26  2  0
 15 27  1  0
 27 28  1  0
 27 29  2  0
 14 30  1  0
 30 31  1  0
 31 32  2  0
 32 33  1  0
 33 14  2  0
M  END
>  <Classification>  (1096) 
1

>  <pchembl>  (1096) 
8.35

>  <InChI_steorem>  (1096) 
InChI=1S/C25H21NO6S/c1-14(27)26(15(2)28)25-24(22-6-5-11-33-22)23-20(31-16(3)29)12-18(13-21(23)32-25)17-7-9-19(30-4)10-8-17/h5-13H,1-4H3

>  <source>  (1096) 
ChEMBL30

>  <source_id>  (1096) 
30

>  <optional_reference>  (1096) 
10.1016/j.ejmech.2020.112422

>  <optional_origin>  (1096) 
None

>  <target>  (1096) 
MDR1

$$$$

     RDKit          2D

 33 37  0  0  0  0  0  0  0  0999 V2000
    6.5623   -3.8878    0.0000 F   0  0  0  0  0  0  0  0  0  0  0  0
    5.9845   -4.4698    0.0000 C   0  0  0  0  0  0  0  0  0  0  0  0
    6.7774   -4.6792    0.0000 F   0  0  0  0  0  0  0  0  0  0  0  0
    9.4945   -8.9946    0.0000 C   0  0  0  0  0  0  0  0  0  0  0  0
   11.9743   -9.3102    0.0000 C   0  0  0  0  0  0  0  0  0  0  0  0
   12.7914   -9.3151    0.0000 C   0  0  0  0  0  0  0  0  0  0  0  0
    9.4994   -8.1774    0.0000 N   0  0  0  0  0  0  0  0  0  0  0  0
    8.0764   -8.9830    0.0000 C   0  0  0  0  0  0  0  0  0  0  0  0
   14.0483   -9.7335    0.0000 C   0  0  0  0  0  0  0  0  0  0  0  0
   10.7522   -8.5958    0.0000 C   0  0  0  0  0  0  0  0  0  0  0  0
   10.2689   -9.2496    0.0000 N   0  0  0  0  0  0  0  0  0  0  0  0
   14.0532   -8.9163    0.0000 C   0  0  0  0  0  0  0  0  0  0  0  0
    8.1002   -5.7144    0.0000 C   0  0  0  0  0  0  0  0  0  0  0  0
   15.4672   -8.9279    0.0000 C   0  0  0  0  0  0  0  0  0  0  0  0
    8.7809   -9.3953    0.0000 N   0  0  0  0  0  0  0  0  0  0  0  0
    7.3957   -5.3021    0.0000 C   0  0  0  0  0  0  0  0  0  0  0  0
   13.2683   -9.9795    0.0000 N   0  0  0  0  0  0  0  0  0  0  0  0
    7.3669   -9.3879    0.0000 C   0  0  0  0  0  0  0  0  0  0  0  0
    6.6813   -6.5200    0.0000 C   0  0  0  0  0  0  0  0  0  0  0  0
    8.0953   -6.5316    0.0000 C   0  0  0  0  0  0  0  0  0  0  0  0
    8.0813   -8.1659    0.0000 C   0  0  0  0  0  0  0  0  0  0  0  0
   11.5694   -8.6007    0.0000 S   0  0  0  0  0  0  0  0  0  0  0  0
   14.7487  -10.1458    0.0000 C   0  0  0  0  0  0  0  0  0  0  0  0
    8.7998   -6.9439    0.0000 N   0  0  0  0  0  0  0  0  0  0  0  0
   10.2794   -7.9314    0.0000 N   0  0  0  0  0  0  0  0  0  0  0  0
    7.3858   -6.9364    0.0000 C   0  0  0  0  0  0  0  0  0  0  0  0
    6.6862   -5.7029    0.0000 C   0  0  0  0  0  0  0  0  0  0  0  0
    8.7949   -7.7610    0.0000 C   0  0  0  0  0  0  0  0  0  0  0  0
   14.7627   -8.5114    0.0000 C   0  0  0  0  0  0  0  0  0  0  0  0
   13.2747   -8.6572    0.0000 N   0  0  0  0  0  0  0  0  0  0  0  0
   15.4623   -9.7450    0.0000 C   0  0  0  0  0  0  0  0  0  0  0  0
    5.9817   -5.2888    0.0000 O   0  0  0  0  0  0  0  0  0  0  0  0
    5.2834   -4.0576    0.0000 F   0  0  0  0  0  0  0  0  0  0  0  0
  2  1  1  0
  3  2  1  0
 10 11  1  0
 20 13  2  0
 25 10  2  0
  5  6  1  0
 30 12  1  0
  6 30  1  0
 28  7  1  0
 13 16  1  0
 12 29  1  0
  4  7  1  0
 24 20  1  0
 12  9  2  0
  9 23  1  0
  7 25  1  0
 20 26  1  0
 23 31  2  0
 10 22  1  0
 16 27  2  0
  6 17  2  0
 28 24  1  0
  4 15  1  0
  4 11  2  0
 27 19  1  0
 15  8  2  0
 14 29  2  0
 31 14  1  0
 19 26  2  0
 22  5  1  0
 21 28  2  0
  8 18  1  0
  8 21  1  0
  9 17  1  0
 27 32  1  0
 32  2  1  0
  2 33  1  0
M  END
>  <Classification>  (1097) 
1

>  <pchembl>  (1097) 
6.14

>  <InChI_steorem>  (1097) 
InChI=1S/C21H16F3N7OS/c1-12-10-18(26-13-6-8-14(9-7-13)32-21(22,23)24)31-19(25-12)29-20(30-31)33-11-17-27-15-4-2-3-5-16(15)28-17/h2-10,26H,11H2,1H3,(H,27,28)

>  <source>  (1097) 
ChEMBL30

>  <source_id>  (1097) 
30

>  <optional_reference>  (1097) 
10.1021/acs.jmedchem.0c01741

>  <optional_origin>  (1097) 
None

>  <target>  (1097) 
MDR1

$$$$

     RDKit          2D

 34 37  0  0  0  0  0  0  0  0999 V2000
    1.5208  -15.6837    0.0000 C   0  0  0  0  0  0  0  0  0  0  0  0
    0.8044  -16.0982    0.0000 C   0  0  0  0  0  0  0  0  0  0  0  0
    0.0921  -15.6837    0.0000 C   0  0  0  0  0  0  0  0  0  0  0  0
    0.0921  -14.8588    0.0000 C   0  0  0  0  0  0  0  0  0  0  0  0
   -0.6200  -14.4483    0.0000 C   0  0  0  0  0  0  0  0  0  0  0  0
   -0.6200  -13.6233    0.0000 C   0  0  0  0  0  0  0  0  0  0  0  0
    0.0921  -13.2088    0.0000 C   0  0  0  0  0  0  0  0  0  0  0  0
    0.8044  -13.6233    0.0000 C   0  0  0  0  0  0  0  0  0  0  0  0
    0.8044  -14.4483    0.0000 C   0  0  0  0  0  0  0  0  0  0  0  0
    1.5208  -14.8588    0.0000 O   0  0  0  0  0  0  0  0  0  0  0  0
    2.2372  -16.0982    0.0000 C   0  0  0  0  0  0  0  0  0  0  0  0
    2.2372  -16.9232    0.0000 O   0  0  0  0  0  0  0  0  0  0  0  0
    2.9494  -15.6837    0.0000 N   0  0  0  0  0  0  0  0  0  0  0  0
   -0.6200  -16.0982    0.0000 O   0  0  0  0  0  0  0  0  0  0  0  0
    3.6658  -16.0982    0.0000 C   0  0  0  0  0  0  0  0  0  0  0  0
    4.3822  -15.6837    0.0000 C   0  0  0  0  0  0  0  0  0  0  0  0
    5.0985  -16.0982    0.0000 C   0  0  0  0  0  0  0  0  0  0  0  0
    5.8066  -15.6837    0.0000 C   0  0  0  0  0  0  0  0  0  0  0  0
    6.5230  -16.0982    0.0000 C   0  0  0  0  0  0  0  0  0  0  0  0
    6.5230  -16.9232    0.0000 C   0  0  0  0  0  0  0  0  0  0  0  0
    5.8066  -17.3337    0.0000 C   0  0  0  0  0  0  0  0  0  0  0  0
    5.0985  -16.9232    0.0000 C   0  0  0  0  0  0  0  0  0  0  0  0
    7.2353  -17.3337    0.0000 O   0  0  0  0  0  0  0  0  0  0  0  0
    7.9516  -16.9232    0.0000 C   0  0  0  0  0  0  0  0  0  0  0  0
    7.2353  -15.6837    0.0000 O   0  0  0  0  0  0  0  0  0  0  0  0
    7.9516  -16.0982    0.0000 C   0  0  0  0  0  0  0  0  0  0  0  0
   -1.3365  -14.8588    0.0000 O   0  0  0  0  0  0  0  0  0  0  0  0
   -2.0487  -14.4483    0.0000 C   0  0  0  0  0  0  0  0  0  0  0  0
   -2.7651  -14.8588    0.0000 C   0  0  0  0  0  0  0  0  0  0  0  0
   -2.7651  -15.6837    0.0000 C   0  0  0  0  0  0  0  0  0  0  0  0
   -3.4815  -16.0982    0.0000 C   0  0  0  0  0  0  0  0  0  0  0  0
   -4.1937  -15.6837    0.0000 C   0  0  0  0  0  0  0  0  0  0  0  0
   -4.1937  -14.8588    0.0000 C   0  0  0  0  0  0  0  0  0  0  0  0
   -3.4815  -14.4483    0.0000 C   0  0  0  0  0  0  0  0  0  0  0  0
  1  2  2  0
  2  3  1  0
  3  4  1  0
  4  5  2  0
  5  6  1  0
  6  7  2  0
  7  8  1  0
  8  9  2  0
  4  9  1  0
  9 10  1  0
  1 10  1  0
 11 12  2  0
 11 13  1  0
  1 11  1  0
  3 14  2  0
 15 16  1  0
 16 17  1  0
 17 18  2  0
 18 19  1  0
 19 20  2  0
 20 21  1  0
 21 22  2  0
 17 22  1  0
 23 24  1  0
 20 23  1  0
 25 26  1  0
 19 25  1  0
 13 15  1  0
 28 29  1  0
 29 30  2  0
 30 31  1  0
 31 32  2  0
 32 33  1  0
 33 34  2  0
 29 34  1  0
 27 28  1  0
  5 27  1  0
M  END
>  <Classification>  (1098) 
1

>  <pchembl>  (1098) 
6.71

>  <InChI_steorem>  (1098) 
InChI=1S/C27H25NO6/c1-31-21-12-11-18(15-24(21)32-2)13-14-28-27(30)25-16-20(29)26-22(9-6-10-23(26)34-25)33-17-19-7-4-3-5-8-19/h3-12,15-16H,13-14,17H2,1-2H3,(H,28,30)

>  <source>  (1098) 
ChEMBL30

>  <source_id>  (1098) 
30

>  <optional_reference>  (1098) 
10.1016/j.ejmech.2020.112133

>  <optional_origin>  (1098) 
None

>  <target>  (1098) 
MDR1

$$$$

     RDKit          2D

 34 38  0  0  0  0  0  0  0  0999 V2000
   34.4156  -12.1727    0.0000 C   0  0  0  0  0  0  0  0  0  0  0  0
   33.7088  -12.5871    0.0000 C   0  0  0  0  0  0  0  0  0  0  0  0
   33.7175  -13.4097    0.0000 C   0  0  0  0  0  0  0  0  0  0  0  0
   34.4289  -13.8100    0.0000 N   0  0  0  0  0  0  0  0  0  0  0  0
   35.1265  -12.5766    0.0000 N   0  0  0  0  0  0  0  0  0  0  0  0
   35.1302  -13.4005    0.0000 C   0  0  0  0  0  0  0  0  0  0  0  0
   35.9149  -13.6516    0.0000 N   0  0  0  0  0  0  0  0  0  0  0  0
   36.3963  -12.9829    0.0000 C   0  0  0  0  0  0  0  0  0  0  0  0
   35.9089  -12.3186    0.0000 N   0  0  0  0  0  0  0  0  0  0  0  0
   37.2134  -12.9792    0.0000 S   0  0  0  0  0  0  0  0  0  0  0  0
   37.6188  -12.2696    0.0000 C   0  0  0  0  0  0  0  0  0  0  0  0
   38.4360  -12.2659    0.0000 C   0  0  0  0  0  0  0  0  0  0  0  0
   33.0142  -13.8259    0.0000 C   0  0  0  0  0  0  0  0  0  0  0  0
   34.4100  -11.3555    0.0000 N   0  0  0  0  0  0  0  0  0  0  0  0
   38.9207  -12.9194    0.0000 N   0  0  0  0  0  0  0  0  0  0  0  0
   38.9147  -11.5972    0.0000 N   0  0  0  0  0  0  0  0  0  0  0  0
   39.6930  -11.8461    0.0000 C   0  0  0  0  0  0  0  0  0  0  0  0
   39.6931  -12.6605    0.0000 C   0  0  0  0  0  0  0  0  0  0  0  0
   40.3974  -13.0659    0.0000 C   0  0  0  0  0  0  0  0  0  0  0  0
   41.1020  -12.6579    0.0000 C   0  0  0  0  0  0  0  0  0  0  0  0
   41.0980  -11.8404    0.0000 C   0  0  0  0  0  0  0  0  0  0  0  0
   40.3931  -11.4387    0.0000 C   0  0  0  0  0  0  0  0  0  0  0  0
   35.1149  -10.9421    0.0000 C   0  0  0  0  0  0  0  0  0  0  0  0
   35.8240  -11.3488    0.0000 C   0  0  0  0  0  0  0  0  0  0  0  0
   36.5285  -10.9361    0.0000 C   0  0  0  0  0  0  0  0  0  0  0  0
   36.5233  -10.1180    0.0000 C   0  0  0  0  0  0  0  0  0  0  0  0
   35.8079   -9.7144    0.0000 C   0  0  0  0  0  0  0  0  0  0  0  0
   35.1064  -10.1295    0.0000 C   0  0  0  0  0  0  0  0  0  0  0  0
   37.2277   -9.7037    0.0000 O   0  0  0  0  0  0  0  0  0  0  0  0
   37.9387  -10.1065    0.0000 C   0  0  0  0  0  0  0  0  0  0  0  0
   37.2387  -11.3402    0.0000 O   0  0  0  0  0  0  0  0  0  0  0  0
   37.9439  -10.9271    0.0000 C   0  0  0  0  0  0  0  0  0  0  0  0
   35.7994   -8.8973    0.0000 O   0  0  0  0  0  0  0  0  0  0  0  0
   36.5029   -8.4814    0.0000 C   0  0  0  0  0  0  0  0  0  0  0  0
  5  1  1  0
  1  2  2  0
  2  3  1  0
  3  4  2  0
  4  6  1  0
  5  6  1  0
  6  7  2  0
  7  8  1  0
  8  9  2  0
  9  5  1  0
  8 10  1  0
 10 11  1  0
 11 12  1  0
  3 13  1  0
  1 14  1  0
 12 15  1  0
 15 18  1  0
 17 16  1  0
 16 12  2  0
 17 18  2  0
 18 19  1  0
 19 20  2  0
 20 21  1  0
 21 22  2  0
 22 17  1  0
 14 23  1  0
 23 24  2  0
 24 25  1  0
 25 26  2  0
 26 27  1  0
 27 28  2  0
 28 23  1  0
 26 29  1  0
 29 30  1  0
 25 31  1  0
 31 32  1  0
 27 33  1  0
 33 34  1  0
M  END
>  <Classification>  (1099) 
1

>  <pchembl>  (1099) 
6.6

>  <InChI_steorem>  (1099) 
InChI=1S/C23H23N7O3S/c1-13-9-20(25-14-10-17(31-2)21(33-4)18(11-14)32-3)30-22(24-13)28-23(29-30)34-12-19-26-15-7-5-6-8-16(15)27-19/h5-11,25H,12H2,1-4H3,(H,26,27)

>  <source>  (1099) 
ChEMBL30

>  <source_id>  (1099) 
30

>  <optional_reference>  (1099) 
10.1021/acs.jmedchem.0c01741

>  <optional_origin>  (1099) 
None

>  <target>  (1099) 
MDR1

$$$$

     RDKit          2D

 34 39  0  0  0  0  0  0  0  0999 V2000
    8.9810   -6.6036    0.0000 C   0  0  0  0  0  0  0  0  0  0  0  0
    8.2763   -7.0198    0.0000 C   0  0  0  0  0  0  0  0  0  0  0  0
    8.2810   -7.8369    0.0000 C   0  0  0  0  0  0  0  0  0  0  0  0
    8.9945   -8.2379    0.0000 C   0  0  0  0  0  0  0  0  0  0  0  0
    8.9992   -9.0550    0.0000 C   0  0  0  0  0  0  0  0  0  0  0  0
    9.7085   -9.4601    0.0000 C   0  0  0  0  0  0  0  0  0  0  0  0
   10.4132   -9.0439    0.0000 C   0  0  0  0  0  0  0  0  0  0  0  0
   10.4085   -8.2267    0.0000 C   0  0  0  0  0  0  0  0  0  0  0  0
    9.6991   -7.8258    0.0000 C   0  0  0  0  0  0  0  0  0  0  0  0
    9.6944   -7.0086    0.0000 O   0  0  0  0  0  0  0  0  0  0  0  0
    8.9763   -5.7864    0.0000 O   0  0  0  0  0  0  0  0  0  0  0  0
    7.5805   -8.2490    0.0000 C   0  0  0  0  0  0  0  0  0  0  0  0
   11.1266   -9.4490    0.0000 N   0  0  0  0  0  0  0  0  0  0  0  0
   11.8453  -11.4884    0.0000 C   0  0  0  0  0  0  0  0  0  0  0  0
   11.1407  -11.9004    0.0000 N   0  0  0  0  0  0  0  0  0  0  0  0
   10.4313  -11.4954    0.0000 C   0  0  0  0  0  0  0  0  0  0  0  0
   10.4267  -10.6782    0.0000 C   0  0  0  0  0  0  0  0  0  0  0  0
   11.1313  -10.2661    0.0000 C   0  0  0  0  0  0  0  0  0  0  0  0
   11.8407  -10.6712    0.0000 N   0  0  0  0  0  0  0  0  0  0  0  0
   12.6193  -10.4123    0.0000 N   0  0  0  0  0  0  0  0  0  0  0  0
   13.1024  -11.0703    0.0000 C   0  0  0  0  0  0  0  0  0  0  0  0
   12.6253  -11.7346    0.0000 N   0  0  0  0  0  0  0  0  0  0  0  0
    9.7267  -11.9116    0.0000 C   0  0  0  0  0  0  0  0  0  0  0  0
   13.9195  -11.0615    0.0000 S   0  0  0  0  0  0  0  0  0  0  0  0
   14.3316  -11.7703    0.0000 C   0  0  0  0  0  0  0  0  0  0  0  0
   15.1488  -11.7615    0.0000 C   0  0  0  0  0  0  0  0  0  0  0  0
   15.6259  -11.0972    0.0000 N   0  0  0  0  0  0  0  0  0  0  0  0
   16.4058  -11.3435    0.0000 C   0  0  0  0  0  0  0  0  0  0  0  0
   16.4105  -12.1606    0.0000 C   0  0  0  0  0  0  0  0  0  0  0  0
   15.6361  -12.4195    0.0000 N   0  0  0  0  0  0  0  0  0  0  0  0
   17.1199  -12.5657    0.0000 C   0  0  0  0  0  0  0  0  0  0  0  0
   17.8245  -12.1536    0.0000 C   0  0  0  0  0  0  0  0  0  0  0  0
   17.8198  -11.3365    0.0000 C   0  0  0  0  0  0  0  0  0  0  0  0
   17.1105  -10.9314    0.0000 C   0  0  0  0  0  0  0  0  0  0  0  0
  1  2  1  0
  2  3  2  0
  3  4  1  0
  4  5  2  0
  5  6  1  0
  6  7  2  0
  7  8  1  0
  8  9  2  0
  4  9  1  0
  9 10  1  0
  1 10  1  0
  1 11  2  0
  3 12  1  0
 14 15  1  0
 15 16  2  0
 16 17  1  0
 17 18  2  0
 18 19  1  0
 14 19  1  0
 20 21  2  0
 21 22  1  0
 19 20  1  0
 14 22  2  0
 16 23  1  0
 26 27  1  0
 27 28  1  0
 28 29  2  0
 29 30  1  0
 26 30  2  0
 31 32  2  0
 32 33  1  0
 33 34  2  0
 28 34  1  0
 29 31  1  0
 25 26  1  0
 24 25  1  0
 21 24  1  0
 13 18  1  0
  7 13  1  0
M  END
>  <Classification>  (1100) 
1

>  <pchembl>  (1100) 
5.94

>  <InChI_steorem>  (1100) 
InChI=1S/C24H19N7O2S/c1-13-9-22(32)33-19-11-15(7-8-16(13)19)26-21-10-14(2)25-23-29-24(30-31(21)23)34-12-20-27-17-5-3-4-6-18(17)28-20/h3-11,26H,12H2,1-2H3,(H,27,28)

>  <source>  (1100) 
ChEMBL30

>  <source_id>  (1100) 
30

>  <optional_reference>  (1100) 
10.1021/acs.jmedchem.0c01741

>  <optional_origin>  (1100) 
None

>  <target>  (1100) 
MDR1

$$$$

     RDKit          2D

 34 37  0  0  0  0  0  0  0  0999 V2000
    6.1929  -25.2691    0.0000 N   0  0  0  0  0  0  0  0  0  0  0  0
    5.4094  -25.5217    0.0000 C   0  0  0  0  0  0  0  0  0  0  0  0
    5.4094  -26.3455    0.0000 C   0  0  0  0  0  0  0  0  0  0  0  0
    6.1929  -26.6023    0.0000 C   0  0  0  0  0  0  0  0  0  0  0  0
    6.5259  -27.3515    0.0000 C   0  0  0  0  0  0  0  0  0  0  0  0
    7.3470  -27.4404    0.0000 C   0  0  0  0  0  0  0  0  0  0  0  0
    7.8311  -26.7716    0.0000 C   0  0  0  0  0  0  0  0  0  0  0  0
    7.4939  -26.0183    0.0000 C   0  0  0  0  0  0  0  0  0  0  0  0
    6.6770  -25.9336    0.0000 C   0  0  0  0  0  0  0  0  0  0  0  0
    4.6944  -25.1098    0.0000 C   0  0  0  0  0  0  0  0  0  0  0  0
    4.6944  -26.7575    0.0000 C   0  0  0  0  0  0  0  0  0  0  0  0
    3.9795  -26.3455    0.0000 C   0  0  0  0  0  0  0  0  0  0  0  0
    3.9795  -25.5217    0.0000 N   0  0  0  0  0  0  0  0  0  0  0  0
    3.2688  -26.7575    0.0000 C   0  0  0  0  0  0  0  0  0  0  0  0
    2.5540  -26.3455    0.0000 N   0  0  0  0  0  0  0  0  0  0  0  0
    2.5540  -25.5217    0.0000 C   0  0  0  0  0  0  0  0  0  0  0  0
    3.2688  -25.1098    0.0000 C   0  0  0  0  0  0  0  0  0  0  0  0
    0.4136  -25.1098    0.0000 C   0  0  0  0  0  0  0  0  0  0  0  0
    1.1284  -25.5217    0.0000 C   0  0  0  0  0  0  0  0  0  0  0  0
    1.8391  -25.1098    0.0000 C   0  0  0  0  0  0  0  0  0  0  0  0
    0.4136  -24.2859    0.0000 O   0  0  0  0  0  0  0  0  0  0  0  0
   -0.2971  -25.5217    0.0000 O   0  0  0  0  0  0  0  0  0  0  0  0
    3.2688  -24.2859    0.0000 O   0  0  0  0  0  0  0  0  0  0  0  0
    3.2688  -27.5813    0.0000 O   0  0  0  0  0  0  0  0  0  0  0  0
    4.6944  -24.2859    0.0000 C   0  0  0  0  0  0  0  0  0  0  0  0
    5.4094  -23.8740    0.0000 C   0  0  0  0  0  0  0  0  0  0  0  0
    5.4094  -23.0501    0.0000 C   0  0  0  0  0  0  0  0  0  0  0  0
    6.1242  -24.2859    0.0000 C   0  0  0  0  0  0  0  0  0  0  0  0
    8.6481  -26.8605    0.0000 O   0  0  0  0  0  0  0  0  0  0  0  0
    8.9852  -27.6140    0.0000 C   0  0  0  0  0  0  0  0  0  0  0  0
   -1.0120  -25.1098    0.0000 C   0  0  0  0  0  0  0  0  0  0  0  0
   -1.4239  -25.8247    0.0000 C   0  0  0  0  0  0  0  0  0  0  0  0
   -1.7269  -24.6978    0.0000 C   0  0  0  0  0  0  0  0  0  0  0  0
   -0.6001  -24.3991    0.0000 C   0  0  0  0  0  0  0  0  0  0  0  0
  1  2  1  0
  2  3  2  0
  3  4  1  0
  4  5  2  0
  5  6  1  0
  6  7  2  0
  7  8  1  0
  8  9  2  0
  1  9  1  0
  4  9  1  0
 11 12  1  0
 12 13  1  0
 10 13  1  0
 14 15  1  0
 15 16  1  0
 16 17  1  0
 13 17  1  0
 12 14  1  0
  2 10  1  0
  3 11  1  0
 18 19  1  0
 19 20  1  0
 18 21  2  0
 18 22  1  0
 16 20  1  0
 17 23  2  0
 14 24  2  0
 25 26  1  0
 26 27  1  0
 26 28  1  0
 10 25  1  0
 29 30  1  0
  7 29  1  0
 31 32  1  0
 31 33  1  0
 31 34  1  0
 22 31  1  0
M  END
>  <Classification>  (1101) 
1

>  <pchembl>  (1101) 
6.57

>  <InChI_steorem>  (1101) 
InChI=1S/C26H35N3O5/c1-14(2)11-20-23-17(16-8-7-15(33-6)12-19(16)27-23)13-21-24(31)28-18(25(32)29(20)21)9-10-22(30)34-26(3,4)5/h7-8,12,14,18,20-21,27H,9-11,13H2,1-6H3,(H,28,31)

>  <source>  (1101) 
ChEMBL30

>  <source_id>  (1101) 
30

>  <optional_reference>  (1101) 
10.1016/j.ejmech.2020.112133

>  <optional_origin>  (1101) 
None

>  <target>  (1101) 
MDR1

$$$$

     RDKit          2D

 35 40  0  0  0  0  0  0  0  0999 V2000
   28.2866  -10.9701    0.0000 C   0  0  0  0  0  0  0  0  0  0  0  0
   28.2855  -11.7897    0.0000 C   0  0  0  0  0  0  0  0  0  0  0  0
   28.9935  -12.1986    0.0000 C   0  0  0  0  0  0  0  0  0  0  0  0
   29.7032  -11.7892    0.0000 C   0  0  0  0  0  0  0  0  0  0  0  0
   29.7003  -10.9665    0.0000 C   0  0  0  0  0  0  0  0  0  0  0  0
   28.9917  -10.5613    0.0000 C   0  0  0  0  0  0  0  0  0  0  0  0
   30.4065  -10.5553    0.0000 N   0  0  0  0  0  0  0  0  0  0  0  0
   31.1170  -10.9657    0.0000 C   0  0  0  0  0  0  0  0  0  0  0  0
   31.8211  -10.5579    0.0000 C   0  0  0  0  0  0  0  0  0  0  0  0
   31.8222   -9.7404    0.0000 N   0  0  0  0  0  0  0  0  0  0  0  0
   31.1131   -9.3323    0.0000 C   0  0  0  0  0  0  0  0  0  0  0  0
   30.4029   -9.7417    0.0000 C   0  0  0  0  0  0  0  0  0  0  0  0
   32.5299   -9.3318    0.0000 C   0  0  0  0  0  0  0  0  0  0  0  0
   27.5774  -12.1977    0.0000 N   0  0  0  0  0  0  0  0  0  0  0  0
   27.5768  -13.0149    0.0000 C   0  0  0  0  0  0  0  0  0  0  0  0
   26.8671  -13.4181    0.0000 C   0  0  0  0  0  0  0  0  0  0  0  0
   26.8645  -14.2317    0.0000 C   0  0  0  0  0  0  0  0  0  0  0  0
   27.5701  -14.6447    0.0000 N   0  0  0  0  0  0  0  0  0  0  0  0
   26.1549  -14.6371    0.0000 C   0  0  0  0  0  0  0  0  0  0  0  0
   28.2842  -13.4181    0.0000 N   0  0  0  0  0  0  0  0  0  0  0  0
   28.2833  -14.2377    0.0000 C   0  0  0  0  0  0  0  0  0  0  0  0
   29.0625  -14.4919    0.0000 N   0  0  0  0  0  0  0  0  0  0  0  0
   29.5451  -13.8293    0.0000 C   0  0  0  0  0  0  0  0  0  0  0  0
   29.0639  -13.1658    0.0000 N   0  0  0  0  0  0  0  0  0  0  0  0
   30.3622  -13.8301    0.0000 S   0  0  0  0  0  0  0  0  0  0  0  0
   30.7701  -14.5383    0.0000 C   0  0  0  0  0  0  0  0  0  0  0  0
   31.5873  -14.5391    0.0000 C   0  0  0  0  0  0  0  0  0  0  0  0
   32.0686  -15.1973    0.0000 N   0  0  0  0  0  0  0  0  0  0  0  0
   32.0699  -13.8751    0.0000 N   0  0  0  0  0  0  0  0  0  0  0  0
   32.8469  -14.1283    0.0000 C   0  0  0  0  0  0  0  0  0  0  0  0
   32.8420  -14.9429    0.0000 C   0  0  0  0  0  0  0  0  0  0  0  0
   33.5438  -15.3526    0.0000 C   0  0  0  0  0  0  0  0  0  0  0  0
   34.2510  -14.9489    0.0000 C   0  0  0  0  0  0  0  0  0  0  0  0
   34.2520  -14.1313    0.0000 C   0  0  0  0  0  0  0  0  0  0  0  0
   33.5496  -13.7252    0.0000 C   0  0  0  0  0  0  0  0  0  0  0  0
  1  2  2  0
  2  3  1  0
  3  4  2  0
  4  5  1  0
  5  6  2  0
  6  1  1  0
  5  7  1  0
  7  8  1  0
  7 12  1  0
  8  9  1  0
  9 10  1  0
 10 11  1  0
 11 12  1  0
 10 13  1  0
  2 14  1  0
 14 15  1  0
 15 16  2  0
 15 20  1  0
 16 17  1  0
 17 18  2  0
 18 21  1  0
 17 19  1  0
 20 21  1  0
 21 22  2  0
 22 23  1  0
 23 24  2  0
 24 20  1  0
 23 25  1  0
 25 26  1  0
 26 27  1  0
 27 28  2  0
 28 31  1  0
 30 29  1  0
 29 27  1  0
 30 31  2  0
 31 32  1  0
 32 33  2  0
 33 34  1  0
 34 35  2  0
 35 30  1  0
M  END
>  <Classification>  (1102) 
1

>  <pchembl>  (1102) 
5.8

>  <InChI_steorem>  (1102) 
InChI=1S/C25H27N9S/c1-17-15-23(27-18-7-9-19(10-8-18)33-13-11-32(2)12-14-33)34-24(26-17)30-25(31-34)35-16-22-28-20-5-3-4-6-21(20)29-22/h3-10,15,27H,11-14,16H2,1-2H3,(H,28,29)

>  <source>  (1102) 
ChEMBL30

>  <source_id>  (1102) 
30

>  <optional_reference>  (1102) 
10.1021/acs.jmedchem.0c01741

>  <optional_origin>  (1102) 
None

>  <target>  (1102) 
MDR1

$$$$

     RDKit          2D

 36 39  0  0  0  0  0  0  0  0999 V2000
   18.8724  -13.1411    0.0000 N   0  0  0  0  0  0  0  0  0  0  0  0
   18.8713  -13.9606    0.0000 C   0  0  0  0  0  0  0  0  0  0  0  0
   19.5793  -14.3696    0.0000 N   0  0  0  0  0  0  0  0  0  0  0  0
   20.2890  -13.9601    0.0000 C   0  0  0  0  0  0  0  0  0  0  0  0
   20.2861  -13.1375    0.0000 C   0  0  0  0  0  0  0  0  0  0  0  0
   19.5775  -12.7322    0.0000 C   0  0  0  0  0  0  0  0  0  0  0  0
   20.9901  -12.7250    0.0000 C   0  0  0  0  0  0  0  0  0  0  0  0
   21.6962  -12.3138    0.0000 N   0  0  0  0  0  0  0  0  0  0  0  0
   20.9938  -14.3669    0.0000 C   0  0  0  0  0  0  0  0  0  0  0  0
   20.9937  -15.1851    0.0000 C   0  0  0  0  0  0  0  0  0  0  0  0
   21.7013  -15.5926    0.0000 C   0  0  0  0  0  0  0  0  0  0  0  0
   22.4093  -15.1828    0.0000 C   0  0  0  0  0  0  0  0  0  0  0  0
   22.4054  -14.3614    0.0000 C   0  0  0  0  0  0  0  0  0  0  0  0
   21.6973  -13.9577    0.0000 C   0  0  0  0  0  0  0  0  0  0  0  0
   19.5751  -11.9150    0.0000 N   0  0  0  0  0  0  0  0  0  0  0  0
   18.8661  -11.5085    0.0000 C   0  0  0  0  0  0  0  0  0  0  0  0
   18.8670  -10.6921    0.0000 C   0  0  0  0  0  0  0  0  0  0  0  0
   18.1590  -10.2857    0.0000 C   0  0  0  0  0  0  0  0  0  0  0  0
   17.4515  -10.6964    0.0000 C   0  0  0  0  0  0  0  0  0  0  0  0
   17.4566  -11.5178    0.0000 C   0  0  0  0  0  0  0  0  0  0  0  0
   18.1652  -11.9205    0.0000 C   0  0  0  0  0  0  0  0  0  0  0  0
   18.1632  -14.3686    0.0000 S   0  0  0  0  0  0  0  0  0  0  0  0
   17.4558  -13.9595    0.0000 C   0  0  0  0  0  0  0  0  0  0  0  0
   18.1569   -9.4685    0.0000 Cl  0  0  0  0  0  0  0  0  0  0  0  0
   16.7478  -14.3675    0.0000 C   0  0  0  0  0  0  0  0  0  0  0  0
   16.0404  -13.9584    0.0000 N   0  0  0  0  0  0  0  0  0  0  0  0
   16.7472  -15.1847    0.0000 O   0  0  0  0  0  0  0  0  0  0  0  0
   15.3324  -14.3664    0.0000 C   0  0  0  0  0  0  0  0  0  0  0  0
   14.6250  -13.9572    0.0000 N   0  0  0  0  0  0  0  0  0  0  0  0
   15.3317  -15.1836    0.0000 O   0  0  0  0  0  0  0  0  0  0  0  0
   13.9170  -14.3653    0.0000 C   0  0  0  0  0  0  0  0  0  0  0  0
   13.2122  -13.9545    0.0000 N   0  0  0  0  0  0  0  0  0  0  0  0
   12.5047  -14.3618    0.0000 C   0  0  0  0  0  0  0  0  0  0  0  0
   12.5036  -15.1799    0.0000 C   0  0  0  0  0  0  0  0  0  0  0  0
   13.2159  -15.5889    0.0000 C   0  0  0  0  0  0  0  0  0  0  0  0
   13.9206  -15.1792    0.0000 C   0  0  0  0  0  0  0  0  0  0  0  0
  1  2  2  0
  2  3  1  0
  3  4  2  0
  4  5  1  0
  5  6  2  0
  6  1  1  0
  7  8  3  0
  5  7  1  0
  9 10  2  0
 10 11  1  0
 11 12  2  0
 12 13  1  0
 13 14  2  0
 14  9  1  0
  4  9  1  0
  6 15  1  0
 15 16  1  0
 16 17  2  0
 17 18  1  0
 18 19  2  0
 19 20  1  0
 20 21  2  0
 21 16  1  0
  2 22  1  0
 22 23  1  0
 18 24  1  0
 23 25  1  0
 25 26  1  0
 25 27  2  0
 26 28  1  0
 28 29  1  0
 28 30  2  0
 29 31  1  0
 31 32  2  0
 32 33  1  0
 33 34  2  0
 34 35  1  0
 35 36  2  0
 36 31  1  0
M  END
>  <Classification>  (1103) 
1

>  <pchembl>  (1103) 
5.3

>  <InChI_steorem>  (1103) 
InChI=1S/C25H18ClN7O2S/c26-17-9-6-10-18(13-17)29-23-19(14-27)22(16-7-2-1-3-8-16)32-25(33-23)36-15-21(34)31-24(35)30-20-11-4-5-12-28-20/h1-13H,15H2,(H,29,32,33)(H2,28,30,31,34,35)

>  <source>  (1103) 
ChEMBL30

>  <source_id>  (1103) 
30

>  <optional_reference>  (1103) 
10.1021/acs.jmedchem.0c01741

>  <optional_origin>  (1103) 
None

>  <target>  (1103) 
MDR1

$$$$

     RDKit          2D

 36 40  0  0  0  0  0  0  0  0999 V2000
    0.3335  -10.0835    0.0000 C   0  0  0  0  0  0  0  0  0  0  0  0
   -0.3782  -10.4960    0.0000 C   0  0  0  0  0  0  0  0  0  0  0  0
   -1.0940  -10.0835    0.0000 C   0  0  0  0  0  0  0  0  0  0  0  0
   -1.0940   -9.2586    0.0000 C   0  0  0  0  0  0  0  0  0  0  0  0
   -1.8098   -8.8462    0.0000 C   0  0  0  0  0  0  0  0  0  0  0  0
   -1.8098   -8.0213    0.0000 C   0  0  0  0  0  0  0  0  0  0  0  0
   -1.0940   -7.6088    0.0000 C   0  0  0  0  0  0  0  0  0  0  0  0
   -0.3782   -8.0213    0.0000 C   0  0  0  0  0  0  0  0  0  0  0  0
   -0.3782   -8.8462    0.0000 C   0  0  0  0  0  0  0  0  0  0  0  0
    0.3335   -9.2586    0.0000 O   0  0  0  0  0  0  0  0  0  0  0  0
    1.0492  -10.4960    0.0000 C   0  0  0  0  0  0  0  0  0  0  0  0
    1.0492  -11.3209    0.0000 O   0  0  0  0  0  0  0  0  0  0  0  0
    1.7650  -10.0835    0.0000 N   0  0  0  0  0  0  0  0  0  0  0  0
   -1.8098  -10.4960    0.0000 O   0  0  0  0  0  0  0  0  0  0  0  0
    2.4766  -10.4960    0.0000 C   0  0  0  0  0  0  0  0  0  0  0  0
    3.1924  -10.0835    0.0000 C   0  0  0  0  0  0  0  0  0  0  0  0
    4.6556  -11.5984    0.0000 N   0  0  0  0  0  0  0  0  0  0  0  0
    3.8806  -11.3180    0.0000 C   0  0  0  0  0  0  0  0  0  0  0  0
    3.9081  -10.4960    0.0000 C   0  0  0  0  0  0  0  0  0  0  0  0
    4.6970  -10.2637    0.0000 C   0  0  0  0  0  0  0  0  0  0  0  0
    5.0585   -9.5214    0.0000 C   0  0  0  0  0  0  0  0  0  0  0  0
    5.8798   -9.4644    0.0000 C   0  0  0  0  0  0  0  0  0  0  0  0
    6.3444  -10.1461    0.0000 C   0  0  0  0  0  0  0  0  0  0  0  0
    5.9829  -10.8884    0.0000 C   0  0  0  0  0  0  0  0  0  0  0  0
    5.1616  -10.9454    0.0000 C   0  0  0  0  0  0  0  0  0  0  0  0
    6.2418   -8.7180    0.0000 O   0  0  0  0  0  0  0  0  0  0  0  0
    7.0631   -8.6610    0.0000 C   0  0  0  0  0  0  0  0  0  0  0  0
   -2.5214   -9.2586    0.0000 O   0  0  0  0  0  0  0  0  0  0  0  0
   -3.2371   -8.8462    0.0000 C   0  0  0  0  0  0  0  0  0  0  0  0
   -3.9529   -9.2586    0.0000 C   0  0  0  0  0  0  0  0  0  0  0  0
   -3.9529  -10.0835    0.0000 C   0  0  0  0  0  0  0  0  0  0  0  0
   -4.6645  -10.4960    0.0000 C   0  0  0  0  0  0  0  0  0  0  0  0
   -5.3803  -10.0835    0.0000 C   0  0  0  0  0  0  0  0  0  0  0  0
   -5.3803   -9.2586    0.0000 C   0  0  0  0  0  0  0  0  0  0  0  0
   -4.6645   -8.8462    0.0000 C   0  0  0  0  0  0  0  0  0  0  0  0
   -6.0948  -10.4959    0.0000 Br  0  0  0  0  0  0  0  0  0  0  0  0
  1  2  2  0
  2  3  1  0
  3  4  1  0
  4  5  2  0
  5  6  1  0
  6  7  2  0
  7  8  1  0
  8  9  2  0
  4  9  1  0
  9 10  1  0
  1 10  1  0
 11 12  2  0
 11 13  1  0
  1 11  1  0
  3 14  2  0
 15 16  1  0
 17 18  1  0
 18 19  2  0
 19 20  1  0
 20 21  2  0
 21 22  1  0
 22 23  2  0
 23 24  1  0
 24 25  2  0
 17 25  1  0
 20 25  1  0
 26 27  1  0
 22 26  1  0
 16 19  1  0
 13 15  1  0
 29 30  1  0
 30 31  2  0
 31 32  1  0
 32 33  2  0
 33 34  1  0
 34 35  2  0
 30 35  1  0
 28 29  1  0
  5 28  1  0
 33 36  1  0
M  END
>  <Classification>  (1104) 
1

>  <pchembl>  (1104) 
5.17

>  <InChI_steorem>  (1104) 
InChI=1S/C28H23BrN2O5/c1-34-20-9-10-22-21(13-20)18(15-31-22)11-12-30-28(33)26-14-23(32)27-24(3-2-4-25(27)36-26)35-16-17-5-7-19(29)8-6-17/h2-10,13-15,31H,11-12,16H2,1H3,(H,30,33)

>  <source>  (1104) 
ChEMBL30

>  <source_id>  (1104) 
30

>  <optional_reference>  (1104) 
10.1016/j.ejmech.2020.112133

>  <optional_origin>  (1104) 
None

>  <target>  (1104) 
MDR1

$$$$

     RDKit          2D

 36 40  0  0  0  0  0  0  0  0999 V2000
    4.3624   -1.7073    0.0000 C   0  0  0  0  0  0  0  0  0  0  0  0
    3.6480   -2.1198    0.0000 C   0  0  0  0  0  0  0  0  0  0  0  0
    4.3624   -0.8823    0.0000 O   0  0  0  0  0  0  0  0  0  0  0  0
    5.0769   -2.1198    0.0000 O   0  0  0  0  0  0  0  0  0  0  0  0
    6.5760   -4.4372    0.0000 O   0  0  0  0  0  0  0  0  0  0  0  0
    7.0609   -3.7698    0.0000 C   0  0  0  0  0  0  0  0  0  0  0  0
    6.5760   -3.1024    0.0000 C   0  0  0  0  0  0  0  0  0  0  0  0
    5.7914   -3.3573    0.0000 C   0  0  0  0  0  0  0  0  0  0  0  0
    5.7914   -4.1823    0.0000 C   0  0  0  0  0  0  0  0  0  0  0  0
    5.0769   -2.9448    0.0000 C   0  0  0  0  0  0  0  0  0  0  0  0
    4.3624   -3.3573    0.0000 C   0  0  0  0  0  0  0  0  0  0  0  0
    4.3624   -4.1823    0.0000 C   0  0  0  0  0  0  0  0  0  0  0  0
    5.0769   -4.5948    0.0000 C   0  0  0  0  0  0  0  0  0  0  0  0
    6.8309   -2.3178    0.0000 C   0  0  0  0  0  0  0  0  0  0  0  0
    6.3460   -1.6503    0.0000 C   0  0  0  0  0  0  0  0  0  0  0  0
    6.8309   -0.9829    0.0000 C   0  0  0  0  0  0  0  0  0  0  0  0
    7.6155   -1.2378    0.0000 C   0  0  0  0  0  0  0  0  0  0  0  0
    7.6155   -2.0628    0.0000 S   0  0  0  0  0  0  0  0  0  0  0  0
    7.8859   -3.7698    0.0000 N   0  0  0  0  0  0  0  0  0  0  0  0
    3.6480   -4.5948    0.0000 C   0  0  0  0  0  0  0  0  0  0  0  0
    3.6480   -5.4198    0.0000 C   0  0  0  0  0  0  0  0  0  0  0  0
    2.9335   -5.8323    0.0000 C   0  0  0  0  0  0  0  0  0  0  0  0
    2.2190   -5.4198    0.0000 C   0  0  0  0  0  0  0  0  0  0  0  0
    2.2190   -4.5948    0.0000 C   0  0  0  0  0  0  0  0  0  0  0  0
    2.9335   -4.1823    0.0000 C   0  0  0  0  0  0  0  0  0  0  0  0
    1.5044   -5.8323    0.0000 O   0  0  0  0  0  0  0  0  0  0  0  0
    0.7900   -5.4198    0.0000 C   0  0  0  0  0  0  0  0  0  0  0  0
    8.2984   -4.4843    0.0000 C   0  0  0  0  0  0  0  0  0  0  0  0
    9.1171   -4.4801    0.0000 C   0  0  0  0  0  0  0  0  0  0  0  0
    7.8877   -5.1998    0.0000 O   0  0  0  0  0  0  0  0  0  0  0  0
    9.5274   -5.1887    0.0000 C   0  0  0  0  0  0  0  0  0  0  0  0
   10.3454   -5.1849    0.0000 C   0  0  0  0  0  0  0  0  0  0  0  0
   10.7519   -4.4734    0.0000 C   0  0  0  0  0  0  0  0  0  0  0  0
   10.3346   -3.7641    0.0000 C   0  0  0  0  0  0  0  0  0  0  0  0
    9.5179   -3.7713    0.0000 C   0  0  0  0  0  0  0  0  0  0  0  0
    9.0992   -3.0606    0.0000 Cl  0  0  0  0  0  0  0  0  0  0  0  0
  1  2  1  0
  1  3  2  0
  1  4  1  0
  5  6  1  0
  6  7  2  0
  7  8  1  0
  8  9  2  0
  5  9  1  0
 10 11  2  0
 11 12  1  0
 12 13  2  0
  9 13  1  0
  8 10  1  0
 14 15  2  0
 15 16  1  0
 16 17  2  0
 17 18  1  0
 14 18  1  0
  7 14  1  0
  6 19  1  0
 20 21  2  0
 21 22  1  0
 22 23  2  0
 23 24  1  0
 24 25  2  0
 20 25  1  0
 26 27  1  0
 23 26  1  0
 12 20  1  0
  4 10  1  0
 19 28  1  0
 29 28  1  0
 28 30  2  0
 29 31  2  0
 31 32  1  0
 32 33  2  0
 33 34  1  0
 34 35  2  0
 35 29  1  0
 35 36  1  0
M  END
>  <Classification>  (1105) 
1

>  <pchembl>  (1105) 
9.06

>  <InChI_steorem>  (1105) 
InChI=1S/C28H20ClNO5S/c1-16(31)34-22-14-18(17-9-11-19(33-2)12-10-17)15-23-25(22)26(24-8-5-13-36-24)28(35-23)30-27(32)20-6-3-4-7-21(20)29/h3-15H,1-2H3,(H,30,32)

>  <source>  (1105) 
ChEMBL30

>  <source_id>  (1105) 
30

>  <optional_reference>  (1105) 
10.1016/j.ejmech.2020.112422

>  <optional_origin>  (1105) 
None

>  <target>  (1105) 
MDR1

$$$$

     RDKit          2D

 36 40  0  0  0  0  0  0  0  0999 V2000
    4.3749  -17.7783    0.0000 C   0  0  0  0  0  0  0  0  0  0  0  0
    3.6605  -18.1907    0.0000 C   0  0  0  0  0  0  0  0  0  0  0  0
    4.3749  -16.9533    0.0000 O   0  0  0  0  0  0  0  0  0  0  0  0
    5.0894  -18.1907    0.0000 O   0  0  0  0  0  0  0  0  0  0  0  0
    6.5885  -20.5082    0.0000 O   0  0  0  0  0  0  0  0  0  0  0  0
    7.0734  -19.8407    0.0000 C   0  0  0  0  0  0  0  0  0  0  0  0
    6.5885  -19.1733    0.0000 C   0  0  0  0  0  0  0  0  0  0  0  0
    5.8039  -19.4282    0.0000 C   0  0  0  0  0  0  0  0  0  0  0  0
    5.8039  -20.2532    0.0000 C   0  0  0  0  0  0  0  0  0  0  0  0
    5.0894  -19.0157    0.0000 C   0  0  0  0  0  0  0  0  0  0  0  0
    4.3749  -19.4282    0.0000 C   0  0  0  0  0  0  0  0  0  0  0  0
    4.3749  -20.2532    0.0000 C   0  0  0  0  0  0  0  0  0  0  0  0
    5.0894  -20.6657    0.0000 C   0  0  0  0  0  0  0  0  0  0  0  0
    6.8434  -18.3887    0.0000 C   0  0  0  0  0  0  0  0  0  0  0  0
    6.3585  -17.7212    0.0000 C   0  0  0  0  0  0  0  0  0  0  0  0
    6.8434  -17.0538    0.0000 C   0  0  0  0  0  0  0  0  0  0  0  0
    7.6280  -17.3087    0.0000 C   0  0  0  0  0  0  0  0  0  0  0  0
    7.6280  -18.1338    0.0000 S   0  0  0  0  0  0  0  0  0  0  0  0
    7.8984  -19.8407    0.0000 N   0  0  0  0  0  0  0  0  0  0  0  0
    3.6605  -20.6657    0.0000 C   0  0  0  0  0  0  0  0  0  0  0  0
    3.6605  -21.4907    0.0000 C   0  0  0  0  0  0  0  0  0  0  0  0
    2.9459  -21.9033    0.0000 C   0  0  0  0  0  0  0  0  0  0  0  0
    2.2314  -21.4907    0.0000 C   0  0  0  0  0  0  0  0  0  0  0  0
    2.2314  -20.6657    0.0000 C   0  0  0  0  0  0  0  0  0  0  0  0
    2.9459  -20.2532    0.0000 C   0  0  0  0  0  0  0  0  0  0  0  0
    1.5170  -21.9033    0.0000 O   0  0  0  0  0  0  0  0  0  0  0  0
    0.8025  -21.4907    0.0000 C   0  0  0  0  0  0  0  0  0  0  0  0
    8.3109  -20.5552    0.0000 C   0  0  0  0  0  0  0  0  0  0  0  0
    9.1296  -20.5510    0.0000 C   0  0  0  0  0  0  0  0  0  0  0  0
    7.9002  -21.2708    0.0000 O   0  0  0  0  0  0  0  0  0  0  0  0
    9.5400  -21.2597    0.0000 C   0  0  0  0  0  0  0  0  0  0  0  0
   10.3578  -21.2559    0.0000 C   0  0  0  0  0  0  0  0  0  0  0  0
   10.7644  -20.5443    0.0000 C   0  0  0  0  0  0  0  0  0  0  0  0
   10.3470  -19.8350    0.0000 C   0  0  0  0  0  0  0  0  0  0  0  0
    9.5305  -19.8423    0.0000 C   0  0  0  0  0  0  0  0  0  0  0  0
   10.7533  -19.1170    0.0000 F   0  0  0  0  0  0  0  0  0  0  0  0
  1  2  1  0
  1  3  2  0
  1  4  1  0
  5  6  1  0
  6  7  2  0
  7  8  1  0
  8  9  2  0
  5  9  1  0
 10 11  2  0
 11 12  1  0
 12 13  2  0
  9 13  1  0
  8 10  1  0
 14 15  2  0
 15 16  1  0
 16 17  2  0
 17 18  1  0
 14 18  1  0
  7 14  1  0
  6 19  1  0
 20 21  2  0
 21 22  1  0
 22 23  2  0
 23 24  1  0
 24 25  2  0
 20 25  1  0
 26 27  1  0
 23 26  1  0
 12 20  1  0
  4 10  1  0
 19 28  1  0
 29 28  1  0
 28 30  2  0
 29 31  2  0
 31 32  1  0
 32 33  2  0
 33 34  1  0
 34 35  2  0
 35 29  1  0
 34 36  1  0
M  END
>  <Classification>  (1106) 
1

>  <pchembl>  (1106) 
8.2

>  <InChI_steorem>  (1106) 
InChI=1S/C28H20FNO5S/c1-16(31)34-22-14-19(17-8-10-21(33-2)11-9-17)15-23-25(22)26(24-7-4-12-36-24)28(35-23)30-27(32)18-5-3-6-20(29)13-18/h3-15H,1-2H3,(H,30,32)

>  <source>  (1106) 
ChEMBL30

>  <source_id>  (1106) 
30

>  <optional_reference>  (1106) 
10.1016/j.ejmech.2020.112422

>  <optional_origin>  (1106) 
None

>  <target>  (1106) 
MDR1

$$$$

     RDKit          2D

 36 40  0  0  0  0  0  0  0  0999 V2000
    5.3457   -9.0698    0.0000 C   0  0  0  0  0  0  0  0  0  0  0  0
    4.6313   -9.4823    0.0000 C   0  0  0  0  0  0  0  0  0  0  0  0
    5.3457   -8.2449    0.0000 O   0  0  0  0  0  0  0  0  0  0  0  0
    6.0602   -9.4823    0.0000 O   0  0  0  0  0  0  0  0  0  0  0  0
    7.5593  -11.7998    0.0000 O   0  0  0  0  0  0  0  0  0  0  0  0
    8.0442  -11.1323    0.0000 C   0  0  0  0  0  0  0  0  0  0  0  0
    7.5593  -10.4649    0.0000 C   0  0  0  0  0  0  0  0  0  0  0  0
    6.7747  -10.7198    0.0000 C   0  0  0  0  0  0  0  0  0  0  0  0
    6.7747  -11.5448    0.0000 C   0  0  0  0  0  0  0  0  0  0  0  0
    6.0602  -10.3073    0.0000 C   0  0  0  0  0  0  0  0  0  0  0  0
    5.3457  -10.7198    0.0000 C   0  0  0  0  0  0  0  0  0  0  0  0
    5.3457  -11.5448    0.0000 C   0  0  0  0  0  0  0  0  0  0  0  0
    6.0602  -11.9574    0.0000 C   0  0  0  0  0  0  0  0  0  0  0  0
    7.8142   -9.6803    0.0000 C   0  0  0  0  0  0  0  0  0  0  0  0
    7.3293   -9.0129    0.0000 C   0  0  0  0  0  0  0  0  0  0  0  0
    7.8142   -8.3454    0.0000 C   0  0  0  0  0  0  0  0  0  0  0  0
    8.5988   -8.6004    0.0000 C   0  0  0  0  0  0  0  0  0  0  0  0
    8.5988   -9.4254    0.0000 S   0  0  0  0  0  0  0  0  0  0  0  0
    8.8692  -11.1323    0.0000 N   0  0  0  0  0  0  0  0  0  0  0  0
    4.6313  -11.9574    0.0000 C   0  0  0  0  0  0  0  0  0  0  0  0
    4.6313  -12.7824    0.0000 C   0  0  0  0  0  0  0  0  0  0  0  0
    3.9168  -13.1949    0.0000 C   0  0  0  0  0  0  0  0  0  0  0  0
    3.2023  -12.7824    0.0000 C   0  0  0  0  0  0  0  0  0  0  0  0
    3.2023  -11.9574    0.0000 C   0  0  0  0  0  0  0  0  0  0  0  0
    3.9168  -11.5448    0.0000 C   0  0  0  0  0  0  0  0  0  0  0  0
    2.4879  -13.1949    0.0000 O   0  0  0  0  0  0  0  0  0  0  0  0
    1.7734  -12.7824    0.0000 C   0  0  0  0  0  0  0  0  0  0  0  0
    9.2817  -11.8468    0.0000 C   0  0  0  0  0  0  0  0  0  0  0  0
   10.1005  -11.8427    0.0000 C   0  0  0  0  0  0  0  0  0  0  0  0
    8.8710  -12.5624    0.0000 O   0  0  0  0  0  0  0  0  0  0  0  0
   10.5108  -12.5513    0.0000 C   0  0  0  0  0  0  0  0  0  0  0  0
   11.3287  -12.5475    0.0000 C   0  0  0  0  0  0  0  0  0  0  0  0
   11.7352  -11.8359    0.0000 C   0  0  0  0  0  0  0  0  0  0  0  0
   11.3179  -11.1266    0.0000 C   0  0  0  0  0  0  0  0  0  0  0  0
   10.5014  -11.1340    0.0000 C   0  0  0  0  0  0  0  0  0  0  0  0
   10.0825  -10.4231    0.0000 C   0  0  0  0  0  0  0  0  0  0  0  0
  1  2  1  0
  1  3  2  0
  1  4  1  0
  5  6  1  0
  6  7  2  0
  7  8  1  0
  8  9  2  0
  5  9  1  0
 10 11  2  0
 11 12  1  0
 12 13  2  0
  9 13  1  0
  8 10  1  0
 14 15  2  0
 15 16  1  0
 16 17  2  0
 17 18  1  0
 14 18  1  0
  7 14  1  0
  6 19  1  0
 20 21  2  0
 21 22  1  0
 22 23  2  0
 23 24  1  0
 24 25  2  0
 20 25  1  0
 26 27  1  0
 23 26  1  0
 12 20  1  0
  4 10  1  0
 19 28  1  0
 29 28  1  0
 28 30  2  0
 29 31  2  0
 31 32  1  0
 32 33  2  0
 33 34  1  0
 34 35  2  0
 35 29  1  0
 35 36  1  0
M  END
>  <Classification>  (1107) 
1

>  <pchembl>  (1107) 
9.06

>  <InChI_steorem>  (1107) 
InChI=1S/C29H23NO5S/c1-17-7-4-5-8-22(17)28(32)30-29-27(25-9-6-14-36-25)26-23(34-18(2)31)15-20(16-24(26)35-29)19-10-12-21(33-3)13-11-19/h4-16H,1-3H3,(H,30,32)

>  <source>  (1107) 
ChEMBL30

>  <source_id>  (1107) 
30

>  <optional_reference>  (1107) 
10.1016/j.ejmech.2020.112422

>  <optional_origin>  (1107) 
None

>  <target>  (1107) 
MDR1

$$$$

     RDKit          2D

 37 41  0  0  0  0  0  0  0  0999 V2000
    6.2624  -23.7478    0.0000 C   0  0  0  0  0  0  0  0  0  0  0  0
    5.5520  -23.3417    0.0000 C   0  0  0  0  0  0  0  0  0  0  0  0
    4.8472  -23.7539    0.0000 C   0  0  0  0  0  0  0  0  0  0  0  0
    4.8517  -24.5720    0.0000 C   0  0  0  0  0  0  0  0  0  0  0  0
    5.5668  -24.9761    0.0000 C   0  0  0  0  0  0  0  0  0  0  0  0
    6.2687  -24.5616    0.0000 C   0  0  0  0  0  0  0  0  0  0  0  0
    4.1470  -24.9857    0.0000 C   0  0  0  0  0  0  0  0  0  0  0  0
    4.1530  -25.8029    0.0000 O   0  0  0  0  0  0  0  0  0  0  0  0
    5.5746  -25.7933    0.0000 N   0  0  0  0  0  0  0  0  0  0  0  0
    6.2862  -26.1951    0.0000 C   0  0  0  0  0  0  0  0  0  0  0  0
    6.2940  -27.0122    0.0000 C   0  0  0  0  0  0  0  0  0  0  0  0
    6.9900  -25.7798    0.0000 O   0  0  0  0  0  0  0  0  0  0  0  0
    3.4363  -24.5824    0.0000 C   0  0  0  0  0  0  0  0  0  0  0  0
    2.7316  -24.9961    0.0000 C   0  0  0  0  0  0  0  0  0  0  0  0
    5.5896  -27.4204    0.0000 O   0  0  0  0  0  0  0  0  0  0  0  0
    7.0066  -27.4058    0.0000 C   0  0  0  0  0  0  0  0  0  0  0  0
    7.0108  -28.2256    0.0000 C   0  0  0  0  0  0  0  0  0  0  0  0
    7.7207  -28.6304    0.0000 O   0  0  0  0  0  0  0  0  0  0  0  0
    6.3068  -28.6372    0.0000 C   0  0  0  0  0  0  0  0  0  0  0  0
    5.5974  -28.2335    0.0000 C   0  0  0  0  0  0  0  0  0  0  0  0
    4.8952  -28.6460    0.0000 C   0  0  0  0  0  0  0  0  0  0  0  0
    4.9012  -29.4620    0.0000 C   0  0  0  0  0  0  0  0  0  0  0  0
    5.6153  -29.8637    0.0000 C   0  0  0  0  0  0  0  0  0  0  0  0
    6.3146  -29.4490    0.0000 C   0  0  0  0  0  0  0  0  0  0  0  0
    6.9683  -23.3308    0.0000 C   0  0  0  0  0  0  0  0  0  0  0  0
    7.7169  -23.6587    0.0000 C   0  0  0  0  0  0  0  0  0  0  0  0
    8.2600  -23.0481    0.0000 N   0  0  0  0  0  0  0  0  0  0  0  0
    7.8472  -22.3428    0.0000 N   0  0  0  0  0  0  0  0  0  0  0  0
    7.0489  -22.5176    0.0000 N   0  0  0  0  0  0  0  0  0  0  0  0
    9.0732  -23.1286    0.0000 C   0  0  0  0  0  0  0  0  0  0  0  0
    9.4101  -23.8731    0.0000 C   0  0  0  0  0  0  0  0  0  0  0  0
   10.2233  -23.9537    0.0000 N   0  0  0  0  0  0  0  0  0  0  0  0
   10.5602  -24.6982    0.0000 C   0  0  0  0  0  0  0  0  0  0  0  0
   10.6997  -23.2897    0.0000 C   0  0  0  0  0  0  0  0  0  0  0  0
   11.5129  -23.3702    0.0000 C   0  0  0  0  0  0  0  0  0  0  0  0
   11.8498  -24.1147    0.0000 O   0  0  0  0  0  0  0  0  0  0  0  0
   11.3734  -24.7787    0.0000 C   0  0  0  0  0  0  0  0  0  0  0  0
  1  2  2  0
  2  3  1  0
  3  4  2  0
  4  5  1  0
  5  6  2  0
  6  1  1  0
  4  7  1  0
  7  8  2  0
  5  9  1  0
  9 10  1  0
 10 11  1  0
 10 12  2  0
  7 13  1  0
 13 14  1  0
 11 15  1  0
 11 16  2  0
 15 20  1  0
 17 16  1  0
 17 19  1  0
 17 18  2  0
 19 20  2  0
 20 21  1  0
 21 22  2  0
 22 23  1  0
 23 24  2  0
 24 19  1  0
 25 26  2  0
 26 27  1  0
 27 28  1  0
 28 29  2  0
 29 25  1  0
  1 25  1  0
 27 30  1  0
 30 31  1  0
 31 32  1  0
 32 33  1  0
 32 34  1  0
 34 35  1  0
 33 37  1  0
 35 36  1  0
 36 37  1  0
M  END
>  <Classification>  (1108) 
1

>  <pchembl>  (1108) 
5.87

>  <InChI_steorem>  (1108) 
InChI=1S/C27H27N5O5/c1-2-23(33)19-8-7-18(22-17-32(30-29-22)10-9-31-11-13-36-14-12-31)15-21(19)28-27(35)26-16-24(34)20-5-3-4-6-25(20)37-26/h3-8,15-17H,2,9-14H2,1H3,(H,28,35)

>  <source>  (1108) 
ChEMBL30

>  <source_id>  (1108) 
30

>  <optional_reference>  (1108) 
10.1016/j.ejmech.2020.112958

>  <optional_origin>  (1108) 
None

>  <target>  (1108) 
MDR1

$$$$

     RDKit          2D

 37 41  0  0  0  0  0  0  0  0999 V2000
    8.5184   -5.8824    0.0000 C   0  0  0  0  0  0  0  0  0  0  0  0
    8.9311   -5.1706    0.0000 N   0  0  0  0  0  0  0  0  0  0  0  0
    9.7524   -5.1706    0.0000 C   0  0  0  0  0  0  0  0  0  0  0  0
   10.1610   -5.8824    0.0000 C   0  0  0  0  0  0  0  0  0  0  0  0
    9.7524   -6.5901    0.0000 C   0  0  0  0  0  0  0  0  0  0  0  0
    8.9311   -6.5901    0.0000 N   0  0  0  0  0  0  0  0  0  0  0  0
   10.9824   -5.8824    0.0000 C   0  0  0  0  0  0  0  0  0  0  0  0
   11.8037   -5.8824    0.0000 N   0  0  0  0  0  0  0  0  0  0  0  0
   10.1610   -7.3019    0.0000 N   0  0  0  0  0  0  0  0  0  0  0  0
    9.7524   -8.0138    0.0000 C   0  0  0  0  0  0  0  0  0  0  0  0
   10.1610   -8.7256    0.0000 C   0  0  0  0  0  0  0  0  0  0  0  0
    8.9311   -9.4374    0.0000 C   0  0  0  0  0  0  0  0  0  0  0  0
    8.9311   -8.0138    0.0000 C   0  0  0  0  0  0  0  0  0  0  0  0
    9.7524   -9.4374    0.0000 C   0  0  0  0  0  0  0  0  0  0  0  0
    8.5184   -8.7256    0.0000 C   0  0  0  0  0  0  0  0  0  0  0  0
   10.9824   -8.7256    0.0000 C   0  0  0  0  0  0  0  0  0  0  0  0
   10.1610   -4.4587    0.0000 C   0  0  0  0  0  0  0  0  0  0  0  0
    9.7524   -3.7469    0.0000 C   0  0  0  0  0  0  0  0  0  0  0  0
   10.1610   -3.0350    0.0000 C   0  0  0  0  0  0  0  0  0  0  0  0
   10.9824   -3.0350    0.0000 C   0  0  0  0  0  0  0  0  0  0  0  0
   11.3951   -3.7469    0.0000 C   0  0  0  0  0  0  0  0  0  0  0  0
   10.9824   -4.4587    0.0000 C   0  0  0  0  0  0  0  0  0  0  0  0
    7.6971   -5.8824    0.0000 S   0  0  0  0  0  0  0  0  0  0  0  0
    7.2885   -6.5901    0.0000 C   0  0  0  0  0  0  0  0  0  0  0  0
    5.2014   -7.0028    0.0000 N   0  0  0  0  0  0  0  0  0  0  0  0
    5.2014   -6.1815    0.0000 N   0  0  0  0  0  0  0  0  0  0  0  0
    5.9827   -5.9290    0.0000 N   0  0  0  0  0  0  0  0  0  0  0  0
    6.4672   -6.5901    0.0000 C   0  0  0  0  0  0  0  0  0  0  0  0
    5.9827   -7.2553    0.0000 C   0  0  0  0  0  0  0  0  0  0  0  0
    4.5403   -7.4873    0.0000 C   0  0  0  0  0  0  0  0  0  0  0  0
    3.7896   -7.1508    0.0000 C   0  0  0  0  0  0  0  0  0  0  0  0
    3.1243   -7.6352    0.0000 C   0  0  0  0  0  0  0  0  0  0  0  0
    2.3737   -7.2987    0.0000 C   0  0  0  0  0  0  0  0  0  0  0  0
    2.2883   -6.4819    0.0000 C   0  0  0  0  0  0  0  0  0  0  0  0
    2.9535   -6.0015    0.0000 C   0  0  0  0  0  0  0  0  0  0  0  0
    3.7042   -6.3339    0.0000 C   0  0  0  0  0  0  0  0  0  0  0  0
    1.5376   -6.1495    0.0000 Cl  0  0  0  0  0  0  0  0  0  0  0  0
  1  2  2  0
  2  3  1  0
  3  4  2  0
  4  5  1  0
  5  6  2  0
  1  6  1  0
  7  8  3  0
  4  7  1  0
 10 11  2  0
 10 13  1  0
 11 14  1  0
 12 14  2  0
 12 15  1  0
 13 15  2  0
 11 16  1  0
  9 10  1  0
  5  9  1  0
 17 18  2  0
 18 19  1  0
 19 20  2  0
 20 21  1  0
 21 22  2  0
 17 22  1  0
  3 17  1  0
 23 24  1  0
 25 26  1  0
 26 27  2  0
 27 28  1  0
 28 29  2  0
 25 29  1  0
 30 31  1  0
 31 32  2  0
 32 33  1  0
 33 34  2  0
 34 35  1  0
 35 36  2  0
 31 36  1  0
 34 37  1  0
 25 30  1  0
 24 28  1  0
  1 23  1  0
M  END
>  <Classification>  (1109) 
0

>  <pchembl>  (1109) 
4.44

>  <InChI_steorem>  (1109) 
InChI=1S/C28H22ClN7S/c1-19-7-5-6-10-25(19)31-27-24(15-30)26(21-8-3-2-4-9-21)32-28(33-27)37-18-23-17-36(35-34-23)16-20-11-13-22(29)14-12-20/h2-14,17H,16,18H2,1H3,(H,31,32,33)

>  <source>  (1109) 
ChEMBL30

>  <source_id>  (1109) 
30

>  <optional_reference>  (1109) 
10.1021/acs.jmedchem.0c01741

>  <optional_origin>  (1109) 
None

>  <target>  (1109) 
MDR1

$$$$

     RDKit          2D

 48 53  0  0  0  0  0  0  0  0999 V2000
   11.5062  -19.8529    0.0000 N   0  0  0  0  0  0  0  0  0  0  0  0
   12.2137  -19.4483    0.0000 C   0  0  0  0  0  0  0  0  0  0  0  0
   12.9309  -19.8659    0.0000 C   0  0  0  0  0  0  0  0  0  0  0  0
   12.9237  -20.6876    0.0000 C   0  0  0  0  0  0  0  0  0  0  0  0
   11.5006  -20.6724    0.0000 C   0  0  0  0  0  0  0  0  0  0  0  0
   12.2032  -21.0889    0.0000 C   0  0  0  0  0  0  0  0  0  0  0  0
   12.1938  -21.9063    0.0000 C   0  0  0  0  0  0  0  0  0  0  0  0
   11.4829  -22.3088    0.0000 C   0  0  0  0  0  0  0  0  0  0  0  0
   10.7750  -21.8848    0.0000 C   0  0  0  0  0  0  0  0  0  0  0  0
   10.7898  -21.0694    0.0000 C   0  0  0  0  0  0  0  0  0  0  0  0
   12.2380  -16.9790    0.0000 C   0  0  0  0  0  0  0  0  0  0  0  0
   12.2373  -16.1465    0.0000 C   0  0  0  0  0  0  0  0  0  0  0  0
   11.5179  -15.7416    0.0000 C   0  0  0  0  0  0  0  0  0  0  0  0
   10.8103  -16.1551    0.0000 C   0  0  0  0  0  0  0  0  0  0  0  0
   11.5296  -17.3889    0.0000 C   0  0  0  0  0  0  0  0  0  0  0  0
   10.8219  -16.9888    0.0000 C   0  0  0  0  0  0  0  0  0  0  0  0
   12.2292  -18.6320    0.0000 C   0  0  0  0  0  0  0  0  0  0  0  0
   12.9552  -18.2237    0.0000 O   0  0  0  0  0  0  0  0  0  0  0  0
   10.0936  -17.3919    0.0000 C   0  0  0  0  0  0  0  0  0  0  0  0
    9.3905  -16.9672    0.0000 O   0  0  0  0  0  0  0  0  0  0  0  0
   10.0822  -18.2101    0.0000 O   0  0  0  0  0  0  0  0  0  0  0  0
    9.4040  -16.1489    0.0000 C   0  0  0  0  0  0  0  0  0  0  0  0
   12.9575  -15.7439    0.0000 C   0  0  0  0  0  0  0  0  0  0  0  0
   13.6624  -16.1638    0.0000 O   0  0  0  0  0  0  0  0  0  0  0  0
   13.6902  -14.5184    0.0000 C   0  0  0  0  0  0  0  0  0  0  0  0
   14.3901  -14.9174    0.0000 C   0  0  0  0  0  0  0  0  0  0  0  0
   15.1100  -14.5011    0.0000 C   0  0  0  0  0  0  0  0  0  0  0  0
   15.1052  -13.6684    0.0000 C   0  0  0  0  0  0  0  0  0  0  0  0
   14.3861  -13.2614    0.0000 C   0  0  0  0  0  0  0  0  0  0  0  0
   13.6747  -13.6770    0.0000 C   0  0  0  0  0  0  0  0  0  0  0  0
   15.8253  -13.2658    0.0000 C   0  0  0  0  0  0  0  0  0  0  0  0
   16.5301  -13.6899    0.0000 C   0  0  0  0  0  0  0  0  0  0  0  0
   17.2667  -13.2798    0.0000 N   0  0  0  0  0  0  0  0  0  0  0  0
   17.9681  -13.6976    0.0000 C   0  0  0  0  0  0  0  0  0  0  0  0
   17.9955  -12.0390    0.0000 C   0  0  0  0  0  0  0  0  0  0  0  0
   17.2677  -12.4416    0.0000 C   0  0  0  0  0  0  0  0  0  0  0  0
   18.7027  -12.4670    0.0000 C   0  0  0  0  0  0  0  0  0  0  0  0
   18.6888  -13.2923    0.0000 C   0  0  0  0  0  0  0  0  0  0  0  0
   19.3905  -13.7188    0.0000 C   0  0  0  0  0  0  0  0  0  0  0  0
   20.1146  -13.3230    0.0000 C   0  0  0  0  0  0  0  0  0  0  0  0
   20.1275  -12.4916    0.0000 C   0  0  0  0  0  0  0  0  0  0  0  0
   19.4246  -12.0706    0.0000 C   0  0  0  0  0  0  0  0  0  0  0  0
   20.8234  -13.7477    0.0000 O   0  0  0  0  0  0  0  0  0  0  0  0
   20.8076  -14.5723    0.0000 C   0  0  0  0  0  0  0  0  0  0  0  0
   20.8477  -12.0887    0.0000 O   0  0  0  0  0  0  0  0  0  0  0  0
   21.5564  -12.5136    0.0000 C   0  0  0  0  0  0  0  0  0  0  0  0
   11.5181  -18.2138    0.0000 N   0  0  0  0  0  0  0  0  0  0  0  0
   12.9690  -14.9189    0.0000 N   0  0  0  0  0  0  0  0  0  0  0  0
  2  3  2  0
  3  4  1  0
  4  6  2  0
  5  1  2  0
  5  6  1  0
  6  7  1  0
  7  8  2  0
  8  9  1  0
  9 10  2  0
 10  5  1  0
 15 11  2  0
 11 12  1  0
 12 13  2  0
 13 14  1  0
 14 16  2  0
 15 16  1  0
 17  2  1  0
 17 18  2  0
 19 20  1  0
 19 21  2  0
 16 19  1  0
 20 22  1  0
 12 23  1  0
 23 24  2  0
 25 26  2  0
 26 27  1  0
 27 28  2  0
 28 29  1  0
 29 30  2  0
 30 25  1  0
 28 31  1  0
 31 32  1  0
 32 33  1  0
 33 34  1  0
 33 36  1  0
 34 38  1  0
 37 35  1  0
 35 36  1  0
 37 38  2  0
 38 39  1  0
 39 40  2  0
 40 41  1  0
 41 42  2  0
 42 37  1  0
 40 43  1  0
 43 44  1  0
 41 45  1  0
 45 46  1  0
  1  2  1  0
 15 47  1  0
 47 17  1  0
 23 48  1  0
 48 25  1  0
M  END
>  <Classification>  (1110) 
1

>  <pchembl>  (1110) 
6.53

>  <InChI_steorem>  (1110) 
InChI=1S/C38H36N4O6/c1-46-34-21-26-17-19-42(23-28(26)22-35(34)47-2)18-16-24-8-12-29(13-9-24)39-36(43)27-10-14-30(38(45)48-3)33(20-27)41-37(44)32-15-11-25-6-4-5-7-31(25)40-32/h4-15,20-22H,16-19,23H2,1-3H3,(H,39,43)(H,41,44)

>  <source>  (1110) 
ChEMBL30

>  <source_id>  (1110) 
30

>  <optional_reference>  (1110) 
10.1016/j.ejmech.2020.112133

>  <optional_origin>  (1110) 
None

>  <target>  (1110) 
MDR1

$$$$

     RDKit          2D

 50 56  0  0  0  0  0  0  0  0999 V2000
    8.6755   -1.2986    0.0000 C   0  0  0  0  0  0  0  0  0  0  0  0
    7.8601   -1.2934    0.0000 C   0  0  0  0  0  0  0  0  0  0  0  0
    7.4496   -1.9958    0.0000 C   0  0  0  0  0  0  0  0  0  0  0  0
    7.8534   -2.7040    0.0000 C   0  0  0  0  0  0  0  0  0  0  0  0
    8.6720   -2.7053    0.0000 C   0  0  0  0  0  0  0  0  0  0  0  0
    9.0787   -2.0022    0.0000 C   0  0  0  0  0  0  0  0  0  0  0  0
    9.8959   -2.0039    0.0000 C   0  0  0  0  0  0  0  0  0  0  0  0
   10.3060   -1.2971    0.0000 C   0  0  0  0  0  0  0  0  0  0  0  0
   11.1232   -1.2988    0.0000 N   0  0  0  0  0  0  0  0  0  0  0  0
   11.5332   -0.5919    0.0000 C   0  0  0  0  0  0  0  0  0  0  0  0
   11.5303   -2.0073    0.0000 C   0  0  0  0  0  0  0  0  0  0  0  0
   12.3504   -0.5936    0.0000 C   0  0  0  0  0  0  0  0  0  0  0  0
   12.7576   -1.3021    0.0000 C   0  0  0  0  0  0  0  0  0  0  0  0
   12.3467   -2.0076    0.0000 C   0  0  0  0  0  0  0  0  0  0  0  0
   12.7522   -2.7140    0.0000 C   0  0  0  0  0  0  0  0  0  0  0  0
   13.5683   -2.7161    0.0000 C   0  0  0  0  0  0  0  0  0  0  0  0
   13.9772   -2.0060    0.0000 C   0  0  0  0  0  0  0  0  0  0  0  0
   13.5695   -1.3025    0.0000 C   0  0  0  0  0  0  0  0  0  0  0  0
    6.6332   -1.9965    0.0000 N   0  0  0  0  0  0  0  0  0  0  0  0
    6.1563   -1.3329    0.0000 N   0  0  0  0  0  0  0  0  0  0  0  0
    5.3778   -1.5813    0.0000 N   0  0  0  0  0  0  0  0  0  0  0  0
    5.3735   -2.3985    0.0000 C   0  0  0  0  0  0  0  0  0  0  0  0
    6.1493   -2.6550    0.0000 C   0  0  0  0  0  0  0  0  0  0  0  0
   14.7944   -2.0049    0.0000 O   0  0  0  0  0  0  0  0  0  0  0  0
   15.2040   -2.7120    0.0000 C   0  0  0  0  0  0  0  0  0  0  0  0
   13.9763   -3.4242    0.0000 O   0  0  0  0  0  0  0  0  0  0  0  0
   13.5671   -4.1316    0.0000 C   0  0  0  0  0  0  0  0  0  0  0  0
    4.7134   -2.8747    0.0000 C   0  0  0  0  0  0  0  0  0  0  0  0
    3.9681   -2.5367    0.0000 C   0  0  0  0  0  0  0  0  0  0  0  0
    3.3049   -3.0129    0.0000 C   0  0  0  0  0  0  0  0  0  0  0  0
    3.3857   -3.8270    0.0000 C   0  0  0  0  0  0  0  0  0  0  0  0
    4.1355   -4.1626    0.0000 C   0  0  0  0  0  0  0  0  0  0  0  0
    4.7955   -3.6844    0.0000 C   0  0  0  0  0  0  0  0  0  0  0  0
    2.7228   -4.3047    0.0000 C   0  0  0  0  0  0  0  0  0  0  0  0
    1.9775   -3.9694    0.0000 C   0  0  0  0  0  0  0  0  0  0  0  0
    2.8050   -5.1178    0.0000 O   0  0  0  0  0  0  0  0  0  0  0  0
    4.2195   -4.9754    0.0000 N   0  0  0  0  0  0  0  0  0  0  0  0
    4.9655   -5.3091    0.0000 C   0  0  0  0  0  0  0  0  0  0  0  0
    5.0496   -6.1219    0.0000 C   0  0  0  0  0  0  0  0  0  0  0  0
    5.6274   -4.8298    0.0000 O   0  0  0  0  0  0  0  0  0  0  0  0
    4.3850   -6.5972    0.0000 N   0  0  0  0  0  0  0  0  0  0  0  0
    5.8790   -7.2599    0.0000 C   0  0  0  0  0  0  0  0  0  0  0  0
    5.7921   -6.4495    0.0000 C   0  0  0  0  0  0  0  0  0  0  0  0
    5.2152   -7.7438    0.0000 C   0  0  0  0  0  0  0  0  0  0  0  0
    4.4718   -7.4092    0.0000 C   0  0  0  0  0  0  0  0  0  0  0  0
    3.8124   -7.8855    0.0000 C   0  0  0  0  0  0  0  0  0  0  0  0
    3.8953   -8.6964    0.0000 C   0  0  0  0  0  0  0  0  0  0  0  0
    4.6432   -9.0286    0.0000 C   0  0  0  0  0  0  0  0  0  0  0  0
    5.2994   -8.5502    0.0000 C   0  0  0  0  0  0  0  0  0  0  0  0
    1.3145   -4.4472    0.0000 C   0  0  0  0  0  0  0  0  0  0  0  0
  1  2  2  0
  2  3  1  0
  3  4  2  0
  4  5  1  0
  5  6  2  0
  6  1  1  0
  6  7  1  0
  7  8  1  0
  8  9  1  0
  9 10  1  0
  9 11  1  0
 10 12  1  0
 11 14  1  0
 12 13  1  0
 13 14  2  0
 14 15  1  0
 15 16  2  0
 16 17  1  0
 17 18  2  0
 18 13  1  0
 19 20  1  0
 20 21  2  0
 21 22  1  0
 22 23  2  0
 23 19  1  0
  3 19  1  0
 17 24  1  0
 24 25  1  0
 16 26  1  0
 26 27  1  0
 28 29  2  0
 29 30  1  0
 30 31  2  0
 31 32  1  0
 32 33  2  0
 33 28  1  0
 22 28  1  0
 31 34  1  0
 34 35  1  0
 34 36  2  0
 32 37  1  0
 37 38  1  0
 38 39  1  0
 38 40  2  0
 39 41  2  0
 41 45  1  0
 44 42  1  0
 42 43  2  0
 43 39  1  0
 44 45  2  0
 45 46  1  0
 46 47  2  0
 47 48  1  0
 48 49  2  0
 49 44  1  0
 35 50  1  0
M  END
>  <Classification>  (1111) 
1

>  <pchembl>  (1111) 
7.02

>  <InChI_steorem>  (1111) 
InChI=1S/C40H38N6O4/c1-4-37(47)32-15-11-29(21-35(32)42-40(48)34-16-12-27-7-5-6-8-33(27)41-34)36-25-46(44-43-36)31-13-9-26(10-14-31)17-19-45-20-18-28-22-38(49-2)39(50-3)23-30(28)24-45/h5-16,21-23,25H,4,17-20,24H2,1-3H3,(H,42,48)

>  <source>  (1111) 
ChEMBL30

>  <source_id>  (1111) 
30

>  <optional_reference>  (1111) 
10.1016/j.ejmech.2020.112133

>  <optional_origin>  (1111) 
None

>  <target>  (1111) 
MDR1

$$$$

     RDKit          2D

 59 65  0  0  0  0  0  0  0  0999 V2000
   18.9302  -24.0246    0.0000 C   0  0  0  0  0  0  0  0  0  0  0  0
   18.9290  -24.8482    0.0000 C   0  0  0  0  0  0  0  0  0  0  0  0
   19.6412  -25.2572    0.0000 C   0  0  0  0  0  0  0  0  0  0  0  0
   20.3550  -24.8478    0.0000 C   0  0  0  0  0  0  0  0  0  0  0  0
   20.3522  -24.0210    0.0000 C   0  0  0  0  0  0  0  0  0  0  0  0
   19.6394  -23.6116    0.0000 C   0  0  0  0  0  0  0  0  0  0  0  0
   18.2210  -25.2563    0.0000 C   0  0  0  0  0  0  0  0  0  0  0  0
   18.2204  -26.0776    0.0000 O   0  0  0  0  0  0  0  0  0  0  0  0
   19.6410  -26.0785    0.0000 N   0  0  0  0  0  0  0  0  0  0  0  0
   20.3527  -26.4914    0.0000 C   0  0  0  0  0  0  0  0  0  0  0  0
   20.3525  -27.3127    0.0000 C   0  0  0  0  0  0  0  0  0  0  0  0
   21.0647  -26.0789    0.0000 O   0  0  0  0  0  0  0  0  0  0  0  0
   19.6402  -27.7169    0.0000 N   0  0  0  0  0  0  0  0  0  0  0  0
   21.0662  -28.5342    0.0000 C   0  0  0  0  0  0  0  0  0  0  0  0
   21.0632  -27.7150    0.0000 C   0  0  0  0  0  0  0  0  0  0  0  0
   20.3519  -28.9511    0.0000 C   0  0  0  0  0  0  0  0  0  0  0  0
   19.6431  -28.5386    0.0000 C   0  0  0  0  0  0  0  0  0  0  0  0
   18.9350  -28.9487    0.0000 C   0  0  0  0  0  0  0  0  0  0  0  0
   18.9345  -29.7671    0.0000 C   0  0  0  0  0  0  0  0  0  0  0  0
   19.6480  -30.1737    0.0000 C   0  0  0  0  0  0  0  0  0  0  0  0
   20.3532  -29.7653    0.0000 C   0  0  0  0  0  0  0  0  0  0  0  0
   21.0621  -23.6031    0.0000 C   0  0  0  0  0  0  0  0  0  0  0  0
   21.8140  -23.9326    0.0000 C   0  0  0  0  0  0  0  0  0  0  0  0
   22.3626  -23.3233    0.0000 N   0  0  0  0  0  0  0  0  0  0  0  0
   21.9472  -22.6129    0.0000 N   0  0  0  0  0  0  0  0  0  0  0  0
   21.1444  -22.7860    0.0000 N   0  0  0  0  0  0  0  0  0  0  0  0
   23.1798  -23.4056    0.0000 C   0  0  0  0  0  0  0  0  0  0  0  0
   23.5117  -24.1576    0.0000 C   0  0  0  0  0  0  0  0  0  0  0  0
   24.3281  -24.2402    0.0000 C   0  0  0  0  0  0  0  0  0  0  0  0
   24.8109  -23.5727    0.0000 C   0  0  0  0  0  0  0  0  0  0  0  0
   24.4675  -22.8205    0.0000 C   0  0  0  0  0  0  0  0  0  0  0  0
   23.6521  -22.7415    0.0000 C   0  0  0  0  0  0  0  0  0  0  0  0
   25.6282  -23.6540    0.0000 C   0  0  0  0  0  0  0  0  0  0  0  0
   26.1048  -22.9902    0.0000 C   0  0  0  0  0  0  0  0  0  0  0  0
   26.9180  -23.0710    0.0000 N   0  0  0  0  0  0  0  0  0  0  0  0
   27.3946  -22.4072    0.0000 C   0  0  0  0  0  0  0  0  0  0  0  0
   27.2545  -23.8157    0.0000 C   0  0  0  0  0  0  0  0  0  0  0  0
   28.2078  -22.4881    0.0000 C   0  0  0  0  0  0  0  0  0  0  0  0
   28.5443  -23.2328    0.0000 C   0  0  0  0  0  0  0  0  0  0  0  0
   28.0679  -23.8946    0.0000 C   0  0  0  0  0  0  0  0  0  0  0  0
   28.4030  -24.6360    0.0000 C   0  0  0  0  0  0  0  0  0  0  0  0
   29.2142  -24.7168    0.0000 C   0  0  0  0  0  0  0  0  0  0  0  0
   29.6893  -24.0501    0.0000 C   0  0  0  0  0  0  0  0  0  0  0  0
   29.3516  -23.3114    0.0000 C   0  0  0  0  0  0  0  0  0  0  0  0
   29.5521  -25.4608    0.0000 O   0  0  0  0  0  0  0  0  0  0  0  0
   30.3654  -25.5403    0.0000 C   0  0  0  0  0  0  0  0  0  0  0  0
   30.5028  -24.1278    0.0000 O   0  0  0  0  0  0  0  0  0  0  0  0
   30.9767  -23.4621    0.0000 C   0  0  0  0  0  0  0  0  0  0  0  0
   30.7033  -26.2844    0.0000 C   0  0  0  0  0  0  0  0  0  0  0  0
   31.5166  -26.3638    0.0000 O   0  0  0  0  0  0  0  0  0  0  0  0
   31.8545  -27.1079    0.0000 C   0  0  0  0  0  0  0  0  0  0  0  0
   31.3790  -27.7725    0.0000 C   0  0  0  0  0  0  0  0  0  0  0  0
   31.7169  -28.5166    0.0000 O   0  0  0  0  0  0  0  0  0  0  0  0
   31.2414  -29.1812    0.0000 C   0  0  0  0  0  0  0  0  0  0  0  0
   30.4281  -29.1018    0.0000 C   0  0  0  0  0  0  0  0  0  0  0  0
   29.9526  -29.7664    0.0000 O   0  0  0  0  0  0  0  0  0  0  0  0
   29.1393  -29.6870    0.0000 C   0  0  0  0  0  0  0  0  0  0  0  0
   17.5136  -24.8471    0.0000 C   0  0  0  0  0  0  0  0  0  0  0  0
   16.8056  -25.2551    0.0000 C   0  0  0  0  0  0  0  0  0  0  0  0
  1  2  2  0
  2  3  1  0
  3  4  2  0
  4  5  1  0
  5  6  2  0
  6  1  1  0
  2  7  1  0
  7  8  2  0
  3  9  1  0
  9 10  1  0
 10 11  1  0
 10 12  2  0
 11 13  2  0
 13 17  1  0
 16 14  1  0
 14 15  2  0
 15 11  1  0
 16 17  2  0
 17 18  1  0
 18 19  2  0
 19 20  1  0
 20 21  2  0
 21 16  1  0
 22 23  2  0
 23 24  1  0
 24 25  1  0
 25 26  2  0
 26 22  1  0
  5 22  1  0
 24 27  1  0
 27 28  2  0
 28 29  1  0
 29 30  2  0
 30 31  1  0
 31 32  2  0
 32 27  1  0
 30 33  1  0
 33 34  1  0
 34 35  1  0
 35 36  1  0
 35 37  1  0
 36 38  1  0
 37 40  1  0
 38 39  1  0
 39 40  2  0
 40 41  1  0
 41 42  2  0
 42 43  1  0
 43 44  2  0
 44 39  1  0
 42 45  1  0
 45 46  1  0
 43 47  1  0
 47 48  1  0
 46 49  1  0
 49 50  1  0
 50 51  1  0
 51 52  1  0
 52 53  1  0
 53 54  1  0
 54 55  1  0
 55 56  1  0
 56 57  1  0
  7 58  1  0
 58 59  1  0
M  END
>  <Classification>  (1112) 
1

>  <pchembl>  (1112) 
7.03

>  <InChI_steorem>  (1112) 
InChI=1S/C46H50N6O7/c1-4-43(53)38-15-11-35(27-41(38)48-46(54)40-16-12-33-7-5-6-8-39(33)47-40)42-31-52(50-49-42)37-13-9-32(10-14-37)17-19-51-20-18-34-28-44(56-3)45(29-36(34)30-51)59-26-25-58-24-23-57-22-21-55-2/h5-16,27-29,31H,4,17-26,30H2,1-3H3,(H,48,54)

>  <source>  (1112) 
ChEMBL30

>  <source_id>  (1112) 
30

>  <optional_reference>  (1112) 
10.1016/j.ejmech.2020.112133

>  <optional_origin>  (1112) 
None

>  <target>  (1112) 
MDR1

$$$$

     RDKit          2D

 59 65  0  0  0  0  0  0  0  0999 V2000
    2.6648  -12.1505    0.0000 C   0  0  0  0  0  0  0  0  0  0  0  0
    2.6636  -12.9742    0.0000 C   0  0  0  0  0  0  0  0  0  0  0  0
    3.3758  -13.3832    0.0000 C   0  0  0  0  0  0  0  0  0  0  0  0
    4.0896  -12.9737    0.0000 C   0  0  0  0  0  0  0  0  0  0  0  0
    4.0868  -12.1469    0.0000 C   0  0  0  0  0  0  0  0  0  0  0  0
    3.3740  -11.7375    0.0000 C   0  0  0  0  0  0  0  0  0  0  0  0
    1.9556  -13.3822    0.0000 C   0  0  0  0  0  0  0  0  0  0  0  0
    1.9549  -14.2035    0.0000 O   0  0  0  0  0  0  0  0  0  0  0  0
    3.3756  -14.2045    0.0000 N   0  0  0  0  0  0  0  0  0  0  0  0
    4.0873  -14.6174    0.0000 C   0  0  0  0  0  0  0  0  0  0  0  0
    4.0871  -15.4387    0.0000 C   0  0  0  0  0  0  0  0  0  0  0  0
    4.7993  -14.2048    0.0000 O   0  0  0  0  0  0  0  0  0  0  0  0
    3.3748  -15.8428    0.0000 N   0  0  0  0  0  0  0  0  0  0  0  0
    4.8008  -16.6601    0.0000 C   0  0  0  0  0  0  0  0  0  0  0  0
    4.7978  -15.8409    0.0000 C   0  0  0  0  0  0  0  0  0  0  0  0
    4.0865  -17.0771    0.0000 C   0  0  0  0  0  0  0  0  0  0  0  0
    3.3777  -16.6645    0.0000 C   0  0  0  0  0  0  0  0  0  0  0  0
    2.6696  -17.0747    0.0000 C   0  0  0  0  0  0  0  0  0  0  0  0
    2.6691  -17.8931    0.0000 C   0  0  0  0  0  0  0  0  0  0  0  0
    3.3826  -18.2996    0.0000 C   0  0  0  0  0  0  0  0  0  0  0  0
    4.0878  -17.8913    0.0000 C   0  0  0  0  0  0  0  0  0  0  0  0
    4.7966  -11.7291    0.0000 C   0  0  0  0  0  0  0  0  0  0  0  0
    5.5486  -12.0586    0.0000 C   0  0  0  0  0  0  0  0  0  0  0  0
    6.0972  -11.4492    0.0000 N   0  0  0  0  0  0  0  0  0  0  0  0
    5.6818  -10.7389    0.0000 N   0  0  0  0  0  0  0  0  0  0  0  0
    4.8790  -10.9119    0.0000 N   0  0  0  0  0  0  0  0  0  0  0  0
    6.9144  -11.5316    0.0000 C   0  0  0  0  0  0  0  0  0  0  0  0
    7.2463  -12.2835    0.0000 C   0  0  0  0  0  0  0  0  0  0  0  0
    8.0627  -12.3661    0.0000 C   0  0  0  0  0  0  0  0  0  0  0  0
    8.5455  -11.6986    0.0000 C   0  0  0  0  0  0  0  0  0  0  0  0
    8.2020  -10.9465    0.0000 C   0  0  0  0  0  0  0  0  0  0  0  0
    7.3867  -10.8674    0.0000 C   0  0  0  0  0  0  0  0  0  0  0  0
    9.3628  -11.7799    0.0000 C   0  0  0  0  0  0  0  0  0  0  0  0
    9.8394  -11.1161    0.0000 C   0  0  0  0  0  0  0  0  0  0  0  0
   10.6526  -11.1970    0.0000 N   0  0  0  0  0  0  0  0  0  0  0  0
   11.1292  -10.5332    0.0000 C   0  0  0  0  0  0  0  0  0  0  0  0
   10.9891  -11.9417    0.0000 C   0  0  0  0  0  0  0  0  0  0  0  0
   11.9424  -10.6141    0.0000 C   0  0  0  0  0  0  0  0  0  0  0  0
   12.2789  -11.3587    0.0000 C   0  0  0  0  0  0  0  0  0  0  0  0
   11.8025  -12.0206    0.0000 C   0  0  0  0  0  0  0  0  0  0  0  0
   12.1376  -12.7620    0.0000 C   0  0  0  0  0  0  0  0  0  0  0  0
   12.9488  -12.8427    0.0000 C   0  0  0  0  0  0  0  0  0  0  0  0
   13.4238  -12.1761    0.0000 C   0  0  0  0  0  0  0  0  0  0  0  0
   13.0862  -11.4373    0.0000 C   0  0  0  0  0  0  0  0  0  0  0  0
    1.2482  -12.9731    0.0000 O   0  0  0  0  0  0  0  0  0  0  0  0
    0.5402  -13.3811    0.0000 C   0  0  0  0  0  0  0  0  0  0  0  0
   13.2867  -13.5868    0.0000 O   0  0  0  0  0  0  0  0  0  0  0  0
   14.1000  -13.6663    0.0000 C   0  0  0  0  0  0  0  0  0  0  0  0
   14.2373  -12.2537    0.0000 O   0  0  0  0  0  0  0  0  0  0  0  0
   14.7113  -11.5880    0.0000 C   0  0  0  0  0  0  0  0  0  0  0  0
   14.4379  -14.4103    0.0000 C   0  0  0  0  0  0  0  0  0  0  0  0
   15.2512  -14.4898    0.0000 O   0  0  0  0  0  0  0  0  0  0  0  0
   15.5890  -15.2338    0.0000 C   0  0  0  0  0  0  0  0  0  0  0  0
   15.1136  -15.8985    0.0000 C   0  0  0  0  0  0  0  0  0  0  0  0
   15.4515  -16.6426    0.0000 O   0  0  0  0  0  0  0  0  0  0  0  0
   14.9760  -17.3072    0.0000 C   0  0  0  0  0  0  0  0  0  0  0  0
   14.1627  -17.2278    0.0000 C   0  0  0  0  0  0  0  0  0  0  0  0
   13.6872  -17.8924    0.0000 O   0  0  0  0  0  0  0  0  0  0  0  0
   12.8739  -17.8129    0.0000 C   0  0  0  0  0  0  0  0  0  0  0  0
  1  2  2  0
  2  3  1  0
  3  4  2  0
  4  5  1  0
  5  6  2  0
  6  1  1  0
  2  7  1  0
  7  8  2  0
  3  9  1  0
  9 10  1  0
 10 11  1  0
 10 12  2  0
 11 13  2  0
 13 17  1  0
 16 14  1  0
 14 15  2  0
 15 11  1  0
 16 17  2  0
 17 18  1  0
 18 19  2  0
 19 20  1  0
 20 21  2  0
 21 16  1  0
 22 23  2  0
 23 24  1  0
 24 25  1  0
 25 26  2  0
 26 22  1  0
  5 22  1  0
 24 27  1  0
 27 28  2  0
 28 29  1  0
 29 30  2  0
 30 31  1  0
 31 32  2  0
 32 27  1  0
 30 33  1  0
 33 34  1  0
 34 35  1  0
 35 36  1  0
 35 37  1  0
 36 38  1  0
 37 40  1  0
 38 39  1  0
 39 40  2  0
 40 41  1  0
 41 42  2  0
 42 43  1  0
 43 44  2  0
 44 39  1  0
  7 45  1  0
 45 46  1  0
 42 47  1  0
 47 48  1  0
 43 49  1  0
 49 50  1  0
 48 51  1  0
 51 52  1  0
 52 53  1  0
 53 54  1  0
 54 55  1  0
 55 56  1  0
 56 57  1  0
 57 58  1  0
 58 59  1  0
M  END
>  <Classification>  (1113) 
1

>  <pchembl>  (1113) 
5.79

>  <InChI_steorem>  (1113) 
InChI=1S/C45H48N6O8/c1-54-20-21-57-22-23-58-24-25-59-43-28-35-29-50(19-17-33(35)27-42(43)55-2)18-16-31-8-12-36(13-9-31)51-30-41(48-49-51)34-10-14-37(45(53)56-3)40(26-34)47-44(52)39-15-11-32-6-4-5-7-38(32)46-39/h4-15,26-28,30H,16-25,29H2,1-3H3,(H,47,52)

>  <source>  (1113) 
ChEMBL30

>  <source_id>  (1113) 
30

>  <optional_reference>  (1113) 
10.1016/j.ejmech.2020.112133

>  <optional_origin>  (1113) 
None

>  <target>  (1113) 
MDR1

$$$$
