
     RDKit          2D

 33 37  0  0  0  0  0  0  0  0999 V2000
    0.6417   -3.1042    0.0000 C   0  0  0  0  0  0  0  0  0  0  0  0
   -0.0833   -2.6792    0.0000 N   0  0  0  0  0  0  0  0  0  0  0  0
    0.6292   -3.9292    0.0000 C   0  0  0  0  0  0  0  0  0  0  0  0
    1.3542   -2.6917    0.0000 C   0  0  0  0  0  0  0  0  0  0  0  0
   -0.0833   -4.3500    0.0000 N   0  0  0  0  0  0  0  0  0  0  0  0
    2.0667   -3.9417    0.0000 C   0  0  0  0  0  0  0  0  0  0  0  0
    2.0667   -3.1125    0.0000 C   0  0  0  0  0  0  0  0  0  0  0  0
    1.3500   -4.3542    0.0000 C   0  0  0  0  0  0  0  0  0  0  0  0
   -0.7958   -3.1000    0.0000 C   0  0  0  0  0  0  0  0  0  0  0  0
   -0.8000   -3.9292    0.0000 C   0  0  0  0  0  0  0  0  0  0  0  0
    2.7917   -2.7042    0.0000 N   0  0  0  0  0  0  0  0  0  0  0  0
    2.7792   -4.3625    0.0000 N   0  0  0  0  0  0  0  0  0  0  0  0
   -0.0833   -1.8667    0.0000 C   0  0  0  0  0  0  0  0  0  0  0  0
    0.6292   -1.4542    0.0000 C   0  0  0  0  0  0  0  0  0  0  0  0
   -0.7958   -1.4542    0.0000 C   0  0  0  0  0  0  0  0  0  0  0  0
    3.5000   -3.9542    0.0000 C   0  0  0  0  0  0  0  0  0  0  0  0
   -0.0833   -0.2167    0.0000 C   0  0  0  0  0  0  0  0  0  0  0  0
    4.9292   -3.1417    0.0000 C   0  0  0  0  0  0  0  0  0  0  0  0
   -0.7958   -0.6292    0.0000 C   0  0  0  0  0  0  0  0  0  0  0  0
    0.6375   -0.6292    0.0000 C   0  0  0  0  0  0  0  0  0  0  0  0
    2.7875   -1.8792    0.0000 C   0  0  0  0  0  0  0  0  0  0  0  0
   -0.0833    0.6083    0.0000 Cl  0  0  0  0  0  0  0  0  0  0  0  0
    5.6500   -2.7292    0.0000 Cl  0  0  0  0  0  0  0  0  0  0  0  0
    3.5000   -3.1292    0.0000 C   0  0  0  0  0  0  0  0  0  0  0  0
    4.2042   -4.3750    0.0000 C   0  0  0  0  0  0  0  0  0  0  0  0
    4.9250   -3.9667    0.0000 C   0  0  0  0  0  0  0  0  0  0  0  0
    4.2167   -2.7250    0.0000 C   0  0  0  0  0  0  0  0  0  0  0  0
   -1.5125   -2.6917    0.0000 C   0  0  0  0  0  0  0  0  0  0  0  0
   -1.5125   -4.3417    0.0000 C   0  0  0  0  0  0  0  0  0  0  0  0
    3.4917   -1.4542    0.0000 C   0  0  0  0  0  0  0  0  0  0  0  0
    2.0667   -1.4667    0.0000 C   0  0  0  0  0  0  0  0  0  0  0  0
   -2.2333   -3.1042    0.0000 C   0  0  0  0  0  0  0  0  0  0  0  0
   -2.2333   -3.9292    0.0000 C   0  0  0  0  0  0  0  0  0  0  0  0
  2  1  1  0
  3  1  1  0
  4  1  2  0
  5  3  2  0
  6  7  1  0
  7  4  1  0
  8  3  1  0
  9  2  1  0
 10  5  1  0
 11  7  2  0
 12  6  1  0
 13  2  1  0
 14 13  2  0
 15 13  1  0
 16 12  1  0
 17 19  1  0
 18 26  2  0
 19 15  2  0
 20 14  1  0
 21 11  1  0
 22 17  1  0
 23 18  1  0
 24 16  1  0
 25 16  2  0
 26 25  1  0
 27 24  2  0
 28  9  2  0
 29 10  2  0
 30 21  1  0
 31 21  1  0
 32 28  1  0
 33 29  1  0
  8  6  2  0
  9 10  1  0
 20 17  2  0
 33 32  2  0
 27 18  1  0
M  END
>  <Classification>  (1) 
0

>  <pchembl>  (1) 
4.68

>  <InChI_steorem>  (1) 
InChI=1S/C27H22Cl2N4/c1-17(2)30-24-16-27-25(15-23(24)31-20-11-7-18(28)8-12-20)32-22-5-3-4-6-26(22)33(27)21-13-9-19(29)10-14-21/h3-17,31H,1-2H3

>  <source>  (1) 
ChEMBL25

>  <source_id>  (1) 
25

>  <optional_reference>  (1) 
10.1093/toxsci/kft176

>  <optional_origin>  (1) 
None

>  <target>  (1) 
MRP3

$$$$

     RDKit          2D

 31 34  0  0  0  0  0  0  0  0999 V2000
   -3.5931    0.0959    0.0000 C   0  0  0  0  0  0  0  0  0  0  0  0
   -3.5943   -0.7315    0.0000 C   0  0  0  0  0  0  0  0  0  0  0  0
   -2.8794   -1.1444    0.0000 C   0  0  0  0  0  0  0  0  0  0  0  0
   -2.8812    0.5086    0.0000 C   0  0  0  0  0  0  0  0  0  0  0  0
   -2.8837    1.3336    0.0000 C   0  0  0  0  0  0  0  0  0  0  0  0
   -4.3077    0.5082    0.0000 C   0  0  0  0  0  0  0  0  0  0  0  0
   -4.3091   -1.1434    0.0000 O   0  0  0  0  0  0  0  0  0  0  0  0
   -2.8796   -1.9694    0.0000 C   0  0  0  0  0  0  0  0  0  0  0  0
   -2.1659    0.0995    0.0000 C   0  0  0  0  0  0  0  0  0  0  0  0
   -2.1671   -0.7336    0.0000 C   0  0  0  0  0  0  0  0  0  0  0  0
   -1.4502   -1.1488    0.0000 C   0  0  0  0  0  0  0  0  0  0  0  0
   -0.7275   -0.7356    0.0000 C   0  0  0  0  0  0  0  0  0  0  0  0
   -0.7263    0.0974    0.0000 C   0  0  0  0  0  0  0  0  0  0  0  0
   -1.4478    0.5173    0.0000 O   0  0  0  0  0  0  0  0  0  0  0  0
   -0.0108    0.5082    0.0000 C   0  0  0  0  0  0  0  0  0  0  0  0
    0.7026    0.0939    0.0000 O   0  0  0  0  0  0  0  0  0  0  0  0
    1.4181    0.5047    0.0000 C   0  0  0  0  0  0  0  0  0  0  0  0
    2.1272    0.0881    0.0000 C   0  0  0  0  0  0  0  0  0  0  0  0
    2.8422    0.4981    0.0000 C   0  0  0  0  0  0  0  0  0  0  0  0
    2.8447    1.3240    0.0000 C   0  0  0  0  0  0  0  0  0  0  0  0
    2.1262    1.7381    0.0000 C   0  0  0  0  0  0  0  0  0  0  0  0
    1.4142    1.3257    0.0000 C   0  0  0  0  0  0  0  0  0  0  0  0
    3.5596    1.7357    0.0000 C   0  0  0  0  0  0  0  0  0  0  0  0
    4.2270    1.2509    0.0000 C   0  0  0  0  0  0  0  0  0  0  0  0
    4.2255    0.4290    0.0000 S   0  0  0  0  0  0  0  0  0  0  0  0
    5.0102    0.1743    0.0000 C   0  0  0  0  0  0  0  0  0  0  0  0
    5.4950    0.8419    0.0000 N   0  0  0  0  0  0  0  0  0  0  0  0
    5.0098    1.5091    0.0000 C   0  0  0  0  0  0  0  0  0  0  0  0
    5.2654   -0.6103    0.0000 O   0  0  0  0  0  0  0  0  0  0  0  0
    5.2628    2.2944    0.0000 O   0  0  0  0  0  0  0  0  0  0  0  0
   -0.0167   -0.3125    0.0000 C   0  0  0  0  0  0  0  0  0  0  0  0
 13 15  1  0
  2  7  1  0
 15 16  1  0
  1  2  2  0
 16 17  1  0
  3  8  1  0
 17 18  2  0
  9 10  1  0
 18 19  1  0
  9  4  2  0
 19 20  2  0
  4  1  1  0
 20 21  1  0
 21 22  2  0
 22 17  1  0
  4  5  1  0
 20 23  1  0
  2  3  1  0
 23 24  1  0
 24 25  1  0
  1  6  1  0
  9 14  1  0
 10 11  1  0
 11 12  1  0
 25 26  1  0
 26 27  1  0
 27 28  1  0
 28 24  1  0
 12 13  1  0
 26 29  2  0
 13 14  1  0
 28 30  2  0
  3 10  2  0
 13 31  1  0
M  END
>  <Classification>  (2) 
0

>  <pchembl>  (2) 
4.51

>  <InChI_steorem>  (2) 
InChI=1S/C24H27NO5S/c1-13-14(2)21-18(15(3)20(13)26)9-10-24(4,30-21)12-29-17-7-5-16(6-8-17)11-19-22(27)25-23(28)31-19/h5-8,19,26H,9-12H2,1-4H3,(H,25,27,28)

>  <source>  (2) 
ChEMBL25

>  <source_id>  (2) 
25

>  <optional_reference>  (2) 
10.1093/toxsci/kft176

>  <optional_origin>  (2) 
None

>  <target>  (2) 
MRP3

$$$$

     RDKit          2D

 51 55  0  0  0  0  0  0  0  0999 V2000
   16.2282   -6.1773    0.0000 C   0  0  0  0  0  0  0  0  0  0  0  0
   16.2270   -7.0053    0.0000 C   0  0  0  0  0  0  0  0  0  0  0  0
   16.9429   -7.4205    0.0000 C   0  0  0  0  0  0  0  0  0  0  0  0
   16.9411   -5.7664    0.0000 C   0  0  0  0  0  0  0  0  0  0  0  0
   17.6575   -6.1737    0.0000 C   0  0  0  0  0  0  0  0  0  0  0  0
   17.6609   -7.0027    0.0000 C   0  0  0  0  0  0  0  0  0  0  0  0
   18.3772   -7.4142    0.0000 C   0  0  0  0  0  0  0  0  0  0  0  0
   18.3704   -5.7560    0.0000 C   0  0  0  0  0  0  0  0  0  0  0  0
   19.0913   -6.1679    0.0000 C   0  0  0  0  0  0  0  0  0  0  0  0
   19.0938   -6.9929    0.0000 C   0  0  0  0  0  0  0  0  0  0  0  0
   19.8047   -7.4035    0.0000 C   0  0  0  0  0  0  0  0  0  0  0  0
   19.7958   -5.7552    0.0000 C   0  0  0  0  0  0  0  0  0  0  0  0
   18.3660   -4.9305    0.0000 O   0  0  0  0  0  0  0  0  0  0  0  0
   18.3815   -8.2398    0.0000 O   0  0  0  0  0  0  0  0  0  0  0  0
   16.9486   -8.2456    0.0000 O   0  0  0  0  0  0  0  0  0  0  0  0
   17.6644   -8.6560    0.0000 C   0  0  0  0  0  0  0  0  0  0  0  0
   19.7897   -4.9297    0.0000 O   0  0  0  0  0  0  0  0  0  0  0  0
   19.8081   -8.2291    0.0000 O   0  0  0  0  0  0  0  0  0  0  0  0
   20.5115   -6.1581    0.0000 C   0  0  0  0  0  0  0  0  0  0  0  0
   20.5149   -6.9818    0.0000 C   0  0  0  0  0  0  0  0  0  0  0  0
   21.2268   -7.3906    0.0000 C   0  0  0  0  0  0  0  0  0  0  0  0
   21.9396   -6.9758    0.0000 C   0  0  0  0  0  0  0  0  0  0  0  0
   21.9361   -6.1519    0.0000 C   0  0  0  0  0  0  0  0  0  0  0  0
   21.2197   -5.7429    0.0000 C   0  0  0  0  0  0  0  0  0  0  0  0
   22.6503   -5.7389    0.0000 C   0  0  0  0  0  0  0  0  0  0  0  0
   23.3682   -6.1460    0.0000 C   0  0  0  0  0  0  0  0  0  0  0  0
   22.6485   -4.9120    0.0000 O   0  0  0  0  0  0  0  0  0  0  0  0
   24.0815   -5.7314    0.0000 O   0  0  0  0  0  0  0  0  0  0  0  0
   24.7951   -6.1384    0.0000 C   0  0  0  0  0  0  0  0  0  0  0  0
   22.6476   -6.5632    0.0000 O   0  0  0  0  0  0  0  0  0  0  0  0
   21.2291   -8.2162    0.0000 O   0  0  0  0  0  0  0  0  0  0  0  0
   24.7994   -6.9639    0.0000 O   0  0  0  0  0  0  0  0  0  0  0  0
   25.5084   -5.7239    0.0000 C   0  0  0  0  0  0  0  0  0  0  0  0
   26.2261   -6.1307    0.0000 C   0  0  0  0  0  0  0  0  0  0  0  0
   26.9394   -5.7162    0.0000 C   0  0  0  0  0  0  0  0  0  0  0  0
   27.6572   -6.1231    0.0000 C   0  0  0  0  0  0  0  0  0  0  0  0
   21.9459   -8.6248    0.0000 C   0  0  0  0  0  0  0  0  0  0  0  0
   21.9425   -9.4471    0.0000 C   0  0  0  0  0  0  0  0  0  0  0  0
   22.6551   -9.8598    0.0000 C   0  0  0  0  0  0  0  0  0  0  0  0
   23.3719   -9.4463    0.0000 C   0  0  0  0  0  0  0  0  0  0  0  0
   23.3715   -8.6198    0.0000 C   0  0  0  0  0  0  0  0  0  0  0  0
   22.6543   -8.2067    0.0000 O   0  0  0  0  0  0  0  0  0  0  0  0
   24.0872   -8.2095    0.0000 C   0  0  0  0  0  0  0  0  0  0  0  0
   24.0871   -9.8618    0.0000 O   0  0  0  0  0  0  0  0  0  0  0  0
   22.6544  -10.6855    0.0000 N   0  0  0  0  0  0  0  0  0  0  0  0
   21.9385  -11.0955    0.0000 C   0  0  0  0  0  0  0  0  0  0  0  0
   21.2234  -10.6842    0.0000 C   0  0  0  0  0  0  0  0  0  0  0  0
   21.9378  -11.9211    0.0000 O   0  0  0  0  0  0  0  0  0  0  0  0
   21.2241   -9.8587    0.0000 F   0  0  0  0  0  0  0  0  0  0  0  0
   20.5075  -11.0943    0.0000 F   0  0  0  0  0  0  0  0  0  0  0  0
   20.5028  -10.2680    0.0000 F   0  0  0  0  0  0  0  0  0  0  0  0
 11 20  2  0
 23 25  1  0
 19 12  2  0
 25 26  1  0
 25 27  2  0
 12  9  1  0
 26 28  1  0
  2  3  1  0
 28 29  1  0
  8 13  2  0
 23 30  1  0
  3  6  2  0
 21 31  1  0
  7 14  2  0
  1  2  2  0
 29 32  2  0
  5  8  1  0
 29 33  1  0
 15 16  1  0
 33 34  1  0
  3 15  1  0
 34 35  1  0
  6  7  1  0
 35 36  1  0
 12 17  1  0
 37 31  1  0
 37 38  1  0
  7 10  1  0
 11 18  1  0
 19 20  1  0
  9  8  1  0
  5  4  2  0
 37 42  1  0
 38 39  1  0
 39 40  1  0
 40 41  1  0
 41 42  1  0
  4  1  1  0
 41 43  1  0
  9 10  2  0
 40 44  1  0
  5  6  1  0
 39 45  1  0
 10 11  1  0
 45 46  1  0
 19 24  1  0
 46 47  1  0
 20 21  1  0
 46 48  2  0
 21 22  1  0
 47 49  1  0
 22 23  1  0
 47 50  1  0
 23 24  1  0
 47 51  1  0
M  END
>  <Classification>  (3) 
0

>  <pchembl>  (3) 
4.12

>  <InChI_steorem>  (3) 
InChI=1S/C34H36F3NO13/c1-4-5-9-21(40)49-13-20(39)33(47)11-16-24(19(12-33)51-22-10-17(27(41)14(2)50-22)38-32(46)34(35,36)37)31(45)26-25(29(16)43)28(42)15-7-6-8-18(48-3)23(15)30(26)44/h6-8,14,17,19,22,27,41,43,45,47H,4-5,9-13H2,1-3H3,(H,38,46)

>  <source>  (3) 
ChEMBL25

>  <source_id>  (3) 
25

>  <optional_reference>  (3) 
10.1093/toxsci/kft176

>  <optional_origin>  (3) 
None

>  <target>  (3) 
MRP3

$$$$

     RDKit          2D

 21 22  0  0  0  0  0  0  0  0999 V2000
   -4.6937   -2.8507    0.0000 C   0  0  0  0  0  0  0  0  0  0  0  0
   -5.3960   -3.2822    0.0000 C   0  0  0  0  0  0  0  0  0  0  0  0
   -5.3702   -4.1009    0.0000 C   0  0  0  0  0  0  0  0  0  0  0  0
   -4.6370   -4.4894    0.0000 C   0  0  0  0  0  0  0  0  0  0  0  0
   -3.9470   -4.0685    0.0000 C   0  0  0  0  0  0  0  0  0  0  0  0
   -3.9709   -3.2438    0.0000 C   0  0  0  0  0  0  0  0  0  0  0  0
   -3.2682   -2.8087    0.0000 C   0  0  0  0  0  0  0  0  0  0  0  0
   -2.5408   -3.1992    0.0000 C   0  0  0  0  0  0  0  0  0  0  0  0
   -1.8524   -2.7792    0.0000 C   0  0  0  0  0  0  0  0  0  0  0  0
   -2.5189   -4.0280    0.0000 C   0  0  0  0  0  0  0  0  0  0  0  0
   -1.1250   -3.1699    0.0000 C   0  0  0  0  0  0  0  0  0  0  0  0
   -0.9320   -3.9652    0.0000 S   0  0  0  0  0  0  0  0  0  0  0  0
   -0.1127   -4.0248    0.0000 C   0  0  0  0  0  0  0  0  0  0  0  0
    0.2007   -3.2702    0.0000 N   0  0  0  0  0  0  0  0  0  0  0  0
   -0.4253   -2.7405    0.0000 C   0  0  0  0  0  0  0  0  0  0  0  0
    0.3319   -4.7214    0.0000 S   0  0  0  0  0  0  0  0  0  0  0  0
   -0.3521   -1.9176    0.0000 O   0  0  0  0  0  0  0  0  0  0  0  0
    1.0071   -3.0767    0.0000 C   0  0  0  0  0  0  0  0  0  0  0  0
    1.5743   -3.6811    0.0000 C   0  0  0  0  0  0  0  0  0  0  0  0
    1.3500   -4.4687    0.0000 O   0  0  0  0  0  0  0  0  0  0  0  0
    2.3831   -3.4844    0.0000 O   0  0  0  0  0  0  0  0  0  0  0  0
  2  3  2  0
  9 11  2  3
 11 12  1  0
  5  6  1  0
  6  1  2  0
  1  2  1  0
  6  7  1  0
 12 13  1  0
 13 14  1  0
 14 15  1  0
 15 11  1  0
  3  4  1  0
 13 16  2  0
  7  8  2  3
 15 17  2  0
 14 18  1  0
  8  9  1  0
 18 19  1  0
  4  5  2  0
  8 10  1  0
 19 20  1  0
 19 21  2  0
M  END
>  <Classification>  (4) 
0

>  <pchembl>  (4) 
4.34

>  <InChI_steorem>  (4) 
InChI=1S/C15H13NO3S2/c1-10(7-11-5-3-2-4-6-11)8-12-14(19)16(9-13(17)18)15(20)21-12/h2-8H,9H2,1H3,(H,17,18)

>  <source>  (4) 
ChEMBL25

>  <source_id>  (4) 
25

>  <optional_reference>  (4) 
10.1093/toxsci/kft176

>  <optional_origin>  (4) 
None

>  <target>  (4) 
MRP3

$$$$

     RDKit          2D

 57 62  0  0  0  0  0  0  0  0999 V2000
   -2.5485   -2.8106    0.0000 C   0  0  0  0  0  0  0  0  0  0  0  0
   -1.8348   -2.3979    0.0000 C   0  0  0  0  0  0  0  0  0  0  0  0
   -1.1217   -2.8069    0.0000 C   0  0  0  0  0  0  0  0  0  0  0  0
   -1.1209   -3.6337    0.0000 C   0  0  0  0  0  0  0  0  0  0  0  0
    0.3041   -2.7999    0.0000 C   0  0  0  0  0  0  0  0  0  0  0  0
   -0.4095   -2.3928    0.0000 C   0  0  0  0  0  0  0  0  0  0  0  0
    0.3089   -3.6299    0.0000 C   0  0  0  0  0  0  0  0  0  0  0  0
   -0.4053   -4.0411    0.0000 C   0  0  0  0  0  0  0  0  0  0  0  0
   -0.2365   -4.8537    0.0000 N   0  0  0  0  0  0  0  0  0  0  0  0
    0.9256   -4.1873    0.0000 N   0  0  0  0  0  0  0  0  0  0  0  0
    0.5844   -4.9388    0.0000 C   0  0  0  0  0  0  0  0  0  0  0  0
    1.0686   -5.6073    0.0000 C   0  0  0  0  0  0  0  0  0  0  0  0
    1.8896   -5.5213    0.0000 C   0  0  0  0  0  0  0  0  0  0  0  0
    2.2241   -4.7651    0.0000 C   0  0  0  0  0  0  0  0  0  0  0  0
    1.7421   -4.0998    0.0000 C   0  0  0  0  0  0  0  0  0  0  0  0
    2.3756   -6.1898    0.0000 C   0  0  0  0  0  0  0  0  0  0  0  0
    1.0179   -2.3830    0.0000 N   0  0  0  0  0  0  0  0  0  0  0  0
    1.0128   -1.5580    0.0000 C   0  0  0  0  0  0  0  0  0  0  0  0
    1.7265   -1.1411    0.0000 C   0  0  0  0  0  0  0  0  0  0  0  0
    0.2981   -1.1500    0.0000 O   0  0  0  0  0  0  0  0  0  0  0  0
    2.4412   -1.5491    0.0000 C   0  0  0  0  0  0  0  0  0  0  0  0
    1.7214   -0.3163    0.0000 C   0  0  0  0  0  0  0  0  0  0  0  0
    1.0025    0.0917    0.0000 C   0  0  0  0  0  0  0  0  0  0  0  0
    0.2930   -0.3251    0.0000 C   0  0  0  0  0  0  0  0  0  0  0  0
   -0.4260    0.0829    0.0000 C   0  0  0  0  0  0  0  0  0  0  0  0
   -1.1397   -0.3340    0.0000 C   0  0  0  0  0  0  0  0  0  0  0  0
   -0.4311    0.9077    0.0000 C   0  0  0  0  0  0  0  0  0  0  0  0
   -1.8544    0.0740    0.0000 C   0  0  0  0  0  0  0  0  0  0  0  0
   -1.1346   -1.1589    0.0000 O   0  0  0  0  0  0  0  0  0  0  0  0
   -1.8596    0.8989    0.0000 C   0  0  0  0  0  0  0  0  0  0  0  0
   -2.5682   -0.3429    0.0000 C   0  0  0  0  0  0  0  0  0  0  0  0
   -2.5631   -1.1678    0.0000 C   0  0  0  0  0  0  0  0  0  0  0  0
   -3.2769   -1.5847    0.0000 C   0  0  0  0  0  0  0  0  0  0  0  0
   -3.2718   -2.4095    0.0000 C   0  0  0  0  0  0  0  0  0  0  0  0
   -3.9928   -1.9900    0.0000 O   0  0  0  0  0  0  0  0  0  0  0  0
   -4.7051   -1.5706    0.0000 C   0  0  0  0  0  0  0  0  0  0  0  0
   -5.4212   -1.9760    0.0000 C   0  0  0  0  0  0  0  0  0  0  0  0
   -4.6970   -0.7457    0.0000 O   0  0  0  0  0  0  0  0  0  0  0  0
   -3.9813   -2.8264    0.0000 C   0  0  0  0  0  0  0  0  0  0  0  0
   -3.9762   -3.6514    0.0000 C   0  0  0  0  0  0  0  0  0  0  0  0
   -4.6900   -4.0683    0.0000 C   0  0  0  0  0  0  0  0  0  0  0  0
   -4.6849   -4.8932    0.0000 O   0  0  0  0  0  0  0  0  0  0  0  0
   -1.8329   -4.0508    0.0000 C   0  0  0  0  0  0  0  0  0  0  0  0
   -2.5511   -3.6347    0.0000 C   0  0  0  0  0  0  0  0  0  0  0  0
   -3.1681   -4.1901    0.0000 O   0  0  0  0  0  0  0  0  0  0  0  0
   -2.8349   -4.9463    0.0000 C   0  0  0  0  0  0  0  0  0  0  0  0
   -2.0110   -4.8601    0.0000 C   0  0  0  0  0  0  0  0  0  0  0  0
   -1.4578   -5.4787    0.0000 O   0  0  0  0  0  0  0  0  0  0  0  0
   -3.0531   -5.7404    0.0000 C   0  0  0  0  0  0  0  0  0  0  0  0
   -3.2784   -3.2317    0.0000 C   0  0  0  0  0  0  0  0  0  0  0  0
   -4.7003   -2.4184    0.0000 O   0  0  0  0  0  0  0  0  0  0  0  0
   -5.4097   -2.8353    0.0000 C   0  0  0  0  0  0  0  0  0  0  0  0
   -3.2784   -0.7526    0.0000 C   0  0  0  0  0  0  0  0  0  0  0  0
   -1.8373   -1.5730    0.0000 O   0  0  0  0  0  0  0  0  0  0  0  0
   -0.4139   -1.5679    0.0000 O   0  0  0  0  0  0  0  0  0  0  0  0
   -2.5556   -1.9815    0.0000 C   0  0  0  0  0  0  0  0  0  0  0  0
   -3.2829    0.0651    0.0000 O   0  0  0  0  0  0  0  0  0  0  0  0
 25 27  1  0
 11 12  1  0
 26 28  1  0
  7  5  1  0
 26 29  1  0
 12 13  2  0
 28 30  1  0
  3  2  2  0
 28 31  1  0
 13 14  1  0
 31 57  1  0
  5  6  2  0
 31 32  1  0
 14 15  2  0
 32 33  1  0
 15 10  1  0
 33 34  1  0
  6  3  1  0
 33 35  1  0
 13 16  1  0
 35 36  1  0
  7  8  2  0
 36 37  1  0
  5 17  1  0
 36 38  2  0
  2  1  1  0
 34 39  1  0
 17 18  1  0
 39 40  1  0
  1 44  2  0
 40 41  2  0
 18 19  1  0
 41 42  1  0
 43 44  1  0
 43  4  2  0
 18 20  2  0
  8  9  1  0
 19 21  1  0
  9 11  2  0
 44 45  1  0
 45 46  1  0
 46 47  1  0
 47 43  1  0
 19 22  2  0
 47 48  2  0
 10  7  1  0
 46 49  1  0
 42 46  1  0
 22 23  1  0
 34 50  1  0
  3  4  1  0
 39 51  1  0
 23 24  2  0
 51 52  1  0
  4  8  1  0
 32 53  1  0
 24 25  1  0
  2 54  1  0
 10 11  1  0
  6 55  1  0
 25 26  1  0
  1 56  1  0
M  END
>  <Classification>  (5) 
0

>  <pchembl>  (5) 
4.19

>  <InChI_steorem>  (5) 
InChI=1S/C43H51N3O11/c1-19-14-16-46-28(18-19)44-32-29-30-37(50)25(7)40-31(29)41(52)43(9,57-40)55-17-15-27(54-10)22(4)39(56-26(8)47)24(6)36(49)23(5)35(48)20(2)12-11-13-21(3)42(53)45-33(34(32)46)38(30)51/h11-18,20,22-24,27,35-36,39,48-51H,1-10H3,(H,45,53)

>  <source>  (5) 
ChEMBL25

>  <source_id>  (5) 
25

>  <optional_reference>  (5) 
10.1093/toxsci/kft176

>  <optional_origin>  (5) 
None

>  <target>  (5) 
MRP3

$$$$

     RDKit          2D

 25 25  0  0  0  0  0  0  0  0999 V2000
    9.9359   -1.5500    0.0000 C   0  0  0  0  0  0  0  0  0  0  0  0
    9.3764   -2.1563    0.0000 C   0  0  0  0  0  0  0  0  0  0  0  0
    9.7801   -2.8758    0.0000 C   0  0  0  0  0  0  0  0  0  0  0  0
   10.5894   -2.7138    0.0000 C   0  0  0  0  0  0  0  0  0  0  0  0
   10.6853   -1.8948    0.0000 C   0  0  0  0  0  0  0  0  0  0  0  0
   11.4022   -1.4864    0.0000 C   0  0  0  0  0  0  0  0  0  0  0  0
   11.4069   -0.6614    0.0000 C   0  0  0  0  0  0  0  0  0  0  0  0
    9.7742   -0.7411    0.0000 O   0  0  0  0  0  0  0  0  0  0  0  0
    9.4354   -3.6253    0.0000 O   0  0  0  0  0  0  0  0  0  0  0  0
   11.3055   -3.1233    0.0000 C   0  0  0  0  0  0  0  0  0  0  0  0
   11.3089   -3.9483    0.0000 C   0  0  0  0  0  0  0  0  0  0  0  0
   12.0250   -4.3578    0.0000 C   0  0  0  0  0  0  0  0  0  0  0  0
   12.0284   -5.1828    0.0000 C   0  0  0  0  0  0  0  0  0  0  0  0
   12.7378   -3.9425    0.0000 O   0  0  0  0  0  0  0  0  0  0  0  0
   12.7445   -5.5925    0.0000 C   0  0  0  0  0  0  0  0  0  0  0  0
   12.7479   -6.4175    0.0000 C   0  0  0  0  0  0  0  0  0  0  0  0
   13.4640   -6.8270    0.0000 C   0  0  0  0  0  0  0  0  0  0  0  0
   13.4674   -7.6520    0.0000 C   0  0  0  0  0  0  0  0  0  0  0  0
   12.1237   -0.2530    0.0000 C   0  0  0  0  0  0  0  0  0  0  0  0
   12.1284    0.5720    0.0000 C   0  0  0  0  0  0  0  0  0  0  0  0
   12.8451    0.9804    0.0000 C   0  0  0  0  0  0  0  0  0  0  0  0
   12.8499    1.8054    0.0000 C   0  0  0  0  0  0  0  0  0  0  0  0
   13.5667    2.2138    0.0000 C   0  0  0  0  0  0  0  0  0  0  0  0
   14.2788    1.7972    0.0000 O   0  0  0  0  0  0  0  0  0  0  0  0
   13.5715    3.0387    0.0000 O   0  0  0  0  0  0  0  0  0  0  0  0
  5  6  1  0
 12 13  1  0
 12 14  1  0
  6  7  1  0
 13 15  1  0
  2  3  1  0
 15 16  1  0
  1  8  2  0
 16 17  1  0
  3  4  1  0
 17 18  1  0
  3  9  1  0
  7 19  1  0
  4  5  1  0
 19 20  1  0
  4 10  1  0
 20 21  1  0
  5  1  1  0
 21 22  1  0
 10 11  2  3
 22 23  1  0
  1  2  1  0
 23 24  2  0
 11 12  1  0
 23 25  1  0
M  END
>  <Classification>  (6) 
0

>  <pchembl>  (6) 
4.57

>  <InChI_steorem>  (6) 
InChI=1S/C20H34O5/c1-2-3-6-9-15(21)12-13-17-16(18(22)14-19(17)23)10-7-4-5-8-11-20(24)25/h12-13,15-17,19,21,23H,2-11,14H2,1H3,(H,24,25)

>  <source>  (6) 
ChEMBL25

>  <source_id>  (6) 
25

>  <optional_reference>  (6) 
10.1093/toxsci/kft176

>  <optional_origin>  (6) 
None

>  <target>  (6) 
MRP3

$$$$

     RDKit          2D

 32 36  0  0  0  0  0  0  0  0999 V2000
    0.7058  -11.7907    0.0000 C   0  0  0  0  0  0  0  0  0  0  0  0
    0.2209  -11.1232    0.0000 C   0  0  0  0  0  0  0  0  0  0  0  0
   -0.5637  -11.3782    0.0000 C   0  0  0  0  0  0  0  0  0  0  0  0
   -0.5637  -12.2032    0.0000 C   0  0  0  0  0  0  0  0  0  0  0  0
    0.2209  -12.4581    0.0000 C   0  0  0  0  0  0  0  0  0  0  0  0
    1.1907  -12.4581    0.0000 N   0  0  0  0  0  0  0  0  0  0  0  0
    1.9754  -12.2032    0.0000 C   0  0  0  0  0  0  0  0  0  0  0  0
    1.9754  -11.3782    0.0000 N   0  0  0  0  0  0  0  0  0  0  0  0
    1.1907  -11.1232    0.0000 C   0  0  0  0  0  0  0  0  0  0  0  0
    0.9358  -10.3386    0.0000 O   0  0  0  0  0  0  0  0  0  0  0  0
    2.6428  -12.6881    0.0000 C   0  0  0  0  0  0  0  0  0  0  0  0
    2.5566  -13.5086    0.0000 C   0  0  0  0  0  0  0  0  0  0  0  0
    3.2240  -13.9935    0.0000 C   0  0  0  0  0  0  0  0  0  0  0  0
    3.1378  -14.8140    0.0000 C   0  0  0  0  0  0  0  0  0  0  0  0
    2.6428  -10.8932    0.0000 C   0  0  0  0  0  0  0  0  0  0  0  0
    3.3965  -11.2288    0.0000 C   0  0  0  0  0  0  0  0  0  0  0  0
    4.0639  -10.7439    0.0000 C   0  0  0  0  0  0  0  0  0  0  0  0
    4.8176  -11.0794    0.0000 C   0  0  0  0  0  0  0  0  0  0  0  0
    4.9038  -11.8999    0.0000 C   0  0  0  0  0  0  0  0  0  0  0  0
    4.2364  -12.3848    0.0000 C   0  0  0  0  0  0  0  0  0  0  0  0
    3.4827  -12.0493    0.0000 C   0  0  0  0  0  0  0  0  0  0  0  0
    5.6575  -12.2355    0.0000 C   0  0  0  0  0  0  0  0  0  0  0  0
    6.3249  -11.7505    0.0000 C   0  0  0  0  0  0  0  0  0  0  0  0
    7.0786  -12.0861    0.0000 C   0  0  0  0  0  0  0  0  0  0  0  0
    7.1648  -12.9066    0.0000 C   0  0  0  0  0  0  0  0  0  0  0  0
    6.4974  -13.3915    0.0000 C   0  0  0  0  0  0  0  0  0  0  0  0
    5.7437  -13.0559    0.0000 C   0  0  0  0  0  0  0  0  0  0  0  0
    5.0763  -13.5409    0.0000 C   0  0  0  0  0  0  0  0  0  0  0  0
    5.0763  -14.3659    0.0000 N   0  0  0  0  0  0  0  0  0  0  0  0
    4.2917  -14.6208    0.0000 N   0  0  0  0  0  0  0  0  0  0  0  0
    3.8068  -13.9534    0.0000 N   0  0  0  0  0  0  0  0  0  0  0  0
    4.2917  -13.2859    0.0000 N   0  0  0  0  0  0  0  0  0  0  0  0
  3  4  1  0
 15 16  1  0
  7  8  1  0
 16 17  2  0
  8  9  1  0
 17 18  1  0
  9  1  1  0
 18 19  2  0
  1  6  1  0
 19 20  1  0
  4  5  1  0
 20 21  2  0
 21 16  1  0
  9 10  2  0
 19 22  1  0
  5  1  1  0
 22 23  2  0
  7 11  1  0
 23 24  1  0
  6  7  2  0
 24 25  2  0
 11 12  1  0
 25 26  1  0
  1  2  1  0
 26 27  2  0
 27 22  1  0
 28 29  1  0
 12 13  1  0
 13 14  1  0
  2  3  1  0
  8 15  1  0
 29 30  2  0
 30 31  1  0
 31 32  1  0
 32 28  2  0
 27 28  1  0
M  END
>  <Classification>  (7) 
0

>  <pchembl>  (7) 
4.68

>  <InChI_steorem>  (7) 
InChI=1S/C25H28N6O/c1-2-3-10-22-26-25(15-6-7-16-25)24(32)31(22)17-18-11-13-19(14-12-18)20-8-4-5-9-21(20)23-27-29-30-28-23/h4-5,8-9,11-14H,2-3,6-7,10,15-17H2,1H3,(H,27,28,29,30)

>  <source>  (7) 
ChEMBL25

>  <source_id>  (7) 
25

>  <optional_reference>  (7) 
10.1093/toxsci/kft176

>  <optional_origin>  (7) 
None

>  <target>  (7) 
MRP3

$$$$

     RDKit          2D

 33 35  0  0  0  0  0  0  0  0999 V2000
   15.8981   -9.0304    0.0000 S   0  0  0  0  0  0  0  0  0  0  0  0
   16.6080   -9.4348    0.0000 N   0  0  0  0  0  0  0  0  0  0  0  0
   10.2438  -10.6854    0.0000 C   0  0  0  0  0  0  0  0  0  0  0  0
   17.3137   -9.0180    0.0000 C   0  0  0  0  0  0  0  0  0  0  0  0
   10.9495  -10.2685    0.0000 C   0  0  0  0  0  0  0  0  0  0  0  0
   15.1923   -9.4390    0.0000 C   0  0  0  0  0  0  0  0  0  0  0  0
   15.4689   -8.3246    0.0000 O   0  0  0  0  0  0  0  0  0  0  0  0
   16.2860   -8.3122    0.0000 O   0  0  0  0  0  0  0  0  0  0  0  0
   10.2438  -11.5067    0.0000 C   0  0  0  0  0  0  0  0  0  0  0  0
   18.0195   -9.4266    0.0000 N   0  0  0  0  0  0  0  0  0  0  0  0
    9.5380  -10.2768    0.0000 C   0  0  0  0  0  0  0  0  0  0  0  0
   17.3096   -8.2008    0.0000 O   0  0  0  0  0  0  0  0  0  0  0  0
   10.9495   -9.4514    0.0000 O   0  0  0  0  0  0  0  0  0  0  0  0
   11.6635  -10.6771    0.0000 N   0  0  0  0  0  0  0  0  0  0  0  0
   14.4783   -9.0304    0.0000 C   0  0  0  0  0  0  0  0  0  0  0  0
   15.1965  -10.2562    0.0000 C   0  0  0  0  0  0  0  0  0  0  0  0
    9.5380  -11.9153    0.0000 C   0  0  0  0  0  0  0  0  0  0  0  0
    8.8323  -10.6854    0.0000 C   0  0  0  0  0  0  0  0  0  0  0  0
    8.8323  -11.5067    0.0000 C   0  0  0  0  0  0  0  0  0  0  0  0
   13.7726   -9.4472    0.0000 C   0  0  0  0  0  0  0  0  0  0  0  0
   14.4907  -10.6648    0.0000 C   0  0  0  0  0  0  0  0  0  0  0  0
   13.7849  -10.2562    0.0000 C   0  0  0  0  0  0  0  0  0  0  0  0
    8.1265  -10.2809    0.0000 Cl  0  0  0  0  0  0  0  0  0  0  0  0
   18.0277  -10.2438    0.0000 C   0  0  0  0  0  0  0  0  0  0  0  0
   10.9578  -11.9153    0.0000 O   0  0  0  0  0  0  0  0  0  0  0  0
   12.3693  -10.2685    0.0000 C   0  0  0  0  0  0  0  0  0  0  0  0
   13.0792  -10.6730    0.0000 C   0  0  0  0  0  0  0  0  0  0  0  0
   10.9578  -12.7325    0.0000 C   0  0  0  0  0  0  0  0  0  0  0  0
   17.3220  -10.6524    0.0000 C   0  0  0  0  0  0  0  0  0  0  0  0
   18.7376  -10.6400    0.0000 C   0  0  0  0  0  0  0  0  0  0  0  0
   18.7376  -11.4654    0.0000 C   0  0  0  0  0  0  0  0  0  0  0  0
   17.3220  -11.4654    0.0000 C   0  0  0  0  0  0  0  0  0  0  0  0
   18.0319  -11.8740    0.0000 C   0  0  0  0  0  0  0  0  0  0  0  0
  2  1  1  0
  3  5  1  0
  4  2  1  0
  5 14  1  0
  6  1  1  0
  7  1  2  0
  8  1  2  0
  9  3  2  0
 10  4  1  0
 11  3  1  0
 12  4  2  0
 13  5  2  0
 14 26  1  0
 15  6  2  0
 16  6  1  0
 17  9  1  0
 18 11  2  0
 19 18  1  0
 20 15  1  0
 21 16  2  0
 22 21  1  0
 23 18  1  0
 24 10  1  0
 25  9  1  0
 26 27  1  0
 27 22  1  0
 28 25  1  0
 29 24  1  0
 30 24  1  0
 31 30  1  0
 32 29  1  0
 33 31  1  0
 20 22  2  0
 32 33  1  0
 19 17  2  0
M  END
>  <Classification>  (8) 
0

>  <pchembl>  (8) 
4.48

>  <InChI_steorem>  (8) 
InChI=1S/C23H28ClN3O5S/c1-32-21-12-9-17(24)15-20(21)22(28)25-14-13-16-7-10-19(11-8-16)33(30,31)27-23(29)26-18-5-3-2-4-6-18/h7-12,15,18H,2-6,13-14H2,1H3,(H,25,28)(H2,26,27,29)

>  <source>  (8) 
ChEMBL25

>  <source_id>  (8) 
25

>  <optional_reference>  (8) 
10.1093/toxsci/kft176

>  <optional_origin>  (8) 
None

>  <target>  (8) 
MRP3

$$$$

     RDKit          2D

 14 13  0  0  0  0  0  0  0  0999 V2000
   -0.1127   -3.1046    0.0000 C   0  0  0  0  0  0  0  0  0  0  0  0
    0.6974   -2.9487    0.0000 C   0  0  0  0  0  0  0  0  0  0  0  0
    1.2375   -3.5724    0.0000 C   0  0  0  0  0  0  0  0  0  0  0  0
    0.9675   -4.3519    0.0000 C   0  0  0  0  0  0  0  0  0  0  0  0
    0.1573   -4.5078    0.0000 O   0  0  0  0  0  0  0  0  0  0  0  0
    2.0476   -3.4164    0.0000 N   0  0  0  0  0  0  0  0  0  0  0  0
    2.5877   -4.0401    0.0000 C   0  0  0  0  0  0  0  0  0  0  0  0
    3.3979   -3.8842    0.0000 C   0  0  0  0  0  0  0  0  0  0  0  0
    3.9379   -4.5078    0.0000 N   0  0  0  0  0  0  0  0  0  0  0  0
    4.7481   -4.3519    0.0000 C   0  0  0  0  0  0  0  0  0  0  0  0
    5.2882   -4.9755    0.0000 C   0  0  0  0  0  0  0  0  0  0  0  0
    6.0983   -4.8196    0.0000 C   0  0  0  0  0  0  0  0  0  0  0  0
    5.0181   -3.5724    0.0000 C   0  0  0  0  0  0  0  0  0  0  0  0
    5.8283   -3.4164    0.0000 O   0  0  0  0  0  0  0  0  0  0  0  0
  1  2  1  0
  2  3  1  0
  3  4  1  0
  4  5  1  0
  3  6  1  0
  6  7  1  0
  7  8  1  0
  8  9  1  0
 10  9  1  0
 10 11  1  0
 11 12  1  0
 10 13  1  0
 13 14  1  0
M  END
>  <Classification>  (9) 
0

>  <pchembl>  (9) 
4.05

>  <InChI_steorem>  (9) 
InChI=1S/C10H24N2O2/c1-3-9(7-13)11-5-6-12-10(4-2)8-14/h9-14H,3-8H2,1-2H3

>  <source>  (9) 
ChEMBL25

>  <source_id>  (9) 
25

>  <optional_reference>  (9) 
10.1093/toxsci/kft176

>  <optional_origin>  (9) 
None

>  <target>  (9) 
MRP3

$$$$

     RDKit          2D

 50 53  0  0  0  0  0  0  0  0999 V2000
   -7.6913    6.1464    0.0000 N   0  0  0  0  0  0  0  0  0  0  0  0
   -5.1920    1.5249    0.0000 C   0  0  0  0  0  0  0  0  0  0  0  0
   -7.2212    7.5708    0.0000 C   0  0  0  0  0  0  0  0  0  0  0  0
   -3.8946    0.7703    0.0000 N   0  0  0  0  0  0  0  0  0  0  0  0
   -2.6010   -1.4850    0.0000 C   0  0  0  0  0  0  0  0  0  0  0  0
   -6.4817    5.2810    0.0000 C   0  0  0  0  0  0  0  0  0  0  0  0
   -5.7213    7.5640    0.0000 S   0  0  0  0  0  0  0  0  0  0  0  0
   -3.8984   -0.7305    0.0000 C   0  0  0  0  0  0  0  0  0  0  0  0
    3.9044   -0.7576    0.0000 C   0  0  0  0  0  0  0  0  0  0  0  0
   -5.1882    3.0257    0.0000 N   0  0  0  0  0  0  0  0  0  0  0  0
   -2.6048   -2.9858    0.0000 N   0  0  0  0  0  0  0  0  0  0  0  0
    4.4757    5.2776    0.0000 N   0  0  0  0  0  0  0  0  0  0  0  0
    2.6018   -1.5031    0.0000 N   0  0  0  0  0  0  0  0  0  0  0  0
    5.2203    2.9895    0.0000 C   0  0  0  0  0  0  0  0  0  0  0  0
   -5.2643    6.1353    0.0000 C   0  0  0  0  0  0  0  0  0  0  0  0
    2.5951   -3.0039    0.0000 C   0  0  0  0  0  0  0  0  0  0  0  0
    6.4358    3.8464    0.0000 S   0  0  0  0  0  0  0  0  0  0  0  0
    5.9757    5.2741    0.0000 C   0  0  0  0  0  0  0  0  0  0  0  0
   -6.4855    3.7802    0.0000 C   0  0  0  0  0  0  0  0  0  0  0  0
   -0.0048   -2.9949    0.0000 C   0  0  0  0  0  0  0  0  0  0  0  0
   -1.3074   -3.7403    0.0000 C   0  0  0  0  0  0  0  0  0  0  0  0
    4.0088    3.8522    0.0000 C   0  0  0  0  0  0  0  0  0  0  0  0
    1.2925   -3.7494    0.0000 C   0  0  0  0  0  0  0  0  0  0  0  0
   -6.2329    0.9278    0.0000 O   0  0  0  0  0  0  0  0  0  0  0  0
   -1.5601   -0.8880    0.0000 O   0  0  0  0  0  0  0  0  0  0  0  0
    4.9411   -1.3619    0.0000 O   0  0  0  0  0  0  0  0  0  0  0  0
    3.8902   -3.7623    0.0000 C   0  0  0  0  0  0  0  0  0  0  0  0
    3.9110    0.7432    0.0000 O   0  0  0  0  0  0  0  0  0  0  0  0
   -8.0938    8.7888    0.0000 C   0  0  0  0  0  0  0  0  0  0  0  0
    5.2136    1.4886    0.0000 C   0  0  0  0  0  0  0  0  0  0  0  0
   -1.3157   -5.2412    0.0000 C   0  0  0  0  0  0  0  0  0  0  0  0
   -5.2018   -1.4745    0.0000 C   0  0  0  0  0  0  0  0  0  0  0  0
    3.8819   -5.2632    0.0000 C   0  0  0  0  0  0  0  0  0  0  0  0
    1.2884   -4.9494    0.0000 O   0  0  0  0  0  0  0  0  0  0  0  0
   -2.6192   -5.9852    0.0000 C   0  0  0  0  0  0  0  0  0  0  0  0
   -4.1472    3.6227    0.0000 C   0  0  0  0  0  0  0  0  0  0  0  0
   -7.5991    9.8821    0.0000 C   0  0  0  0  0  0  0  0  0  0  0  0
   -9.2880    8.6709    0.0000 C   0  0  0  0  0  0  0  0  0  0  0  0
   -6.2385   -0.8701    0.0000 C   0  0  0  0  0  0  0  0  0  0  0  0
   -5.2073   -2.6745    0.0000 C   0  0  0  0  0  0  0  0  0  0  0  0
    5.1752   -6.0230    0.0000 C   0  0  0  0  0  0  0  0  0  0  0  0
    2.5772   -6.0033    0.0000 C   0  0  0  0  0  0  0  0  0  0  0  0
   -2.6297   -7.4852    0.0000 C   0  0  0  0  0  0  0  0  0  0  0  0
   -3.9131   -5.2262    0.0000 C   0  0  0  0  0  0  0  0  0  0  0  0
   -5.2173   -5.9672    0.0000 C   0  0  0  0  0  0  0  0  0  0  0  0
    5.1638   -7.5230    0.0000 C   0  0  0  0  0  0  0  0  0  0  0  0
    2.5658   -7.5032    0.0000 C   0  0  0  0  0  0  0  0  0  0  0  0
   -3.9339   -8.2261    0.0000 C   0  0  0  0  0  0  0  0  0  0  0  0
   -5.2277   -7.4672    0.0000 C   0  0  0  0  0  0  0  0  0  0  0  0
    3.8591   -8.2631    0.0000 C   0  0  0  0  0  0  0  0  0  0  0  0
  2 10  1  0
  3  1  2  0
  4  2  1  0
  5  8  1  0
  6  1  1  0
  7  3  1  0
  8  4  1  0
  9 13  1  0
 10 19  1  0
 11  5  1  0
 12 22  1  0
 13 16  1  0
 14 30  1  0
 15  6  2  0
 16 23  1  0
 17 14  1  0
 18 17  1  0
 19  6  1  0
 20 21  1  0
 21 11  1  0
 22 14  2  0
 23 20  1  0
 24  2  2  0
 25  5  2  0
 26  9  2  0
 16 27  1  0
 28  9  1  0
 29  3  1  0
 30 28  1  0
 31 21  1  0
 32  8  1  0
 33 27  1  0
 23 34  1  0
 35 31  1  0
 36 10  1  0
 37 29  1  0
 38 29  1  0
 39 32  1  0
 40 32  1  0
 41 33  2  0
 42 33  1  0
 43 35  2  0
 44 35  1  0
 45 44  2  0
 46 41  1  0
 47 42  2  0
 48 43  1  0
 49 45  1  0
 50 47  1  0
  7 15  1  0
 48 49  2  0
 46 50  2  0
 18 12  2  0
M  END
>  <Classification>  (10) 
0

>  <pchembl>  (10) 
4.96

>  <InChI_steorem>  (10) 
InChI=1S/C37H48N6O5S2/c1-24(2)33(42-36(46)43(5)20-29-22-49-35(40-29)25(3)4)34(45)39-28(16-26-12-8-6-9-13-26)18-32(44)31(17-27-14-10-7-11-15-27)41-37(47)48-21-30-19-38-23-50-30/h6-15,19,22-25,28,31-33,44H,16-18,20-21H2,1-5H3,(H,39,45)(H,41,47)(H,42,46)

>  <source>  (10) 
ChEMBL25

>  <source_id>  (10) 
25

>  <optional_reference>  (10) 
10.1093/toxsci/kft176

>  <optional_origin>  (10) 
None

>  <target>  (10) 
MRP3

$$$$

     RDKit          2D

 49 53  0  0  0  0  0  0  0  0999 V2000
    3.9112   12.0085    0.0000 C   0  0  0  0  0  0  0  0  0  0  0  0
    5.2100   12.7535    0.0000 C   0  0  0  0  0  0  0  0  0  0  0  0
    6.5135   11.9855    0.0000 C   0  0  0  0  0  0  0  0  0  0  0  0
    3.9159   10.4957    0.0000 C   0  0  0  0  0  0  0  0  0  0  0  0
    5.2103    9.7435    0.0000 C   0  0  0  0  0  0  0  0  0  0  0  0
    6.5091   10.4885    0.0000 C   0  0  0  0  0  0  0  0  0  0  0  0
    7.8036    9.7364    0.0000 C   0  0  0  0  0  0  0  0  0  0  0  0
    7.7992    8.2393    0.0000 C   0  0  0  0  0  0  0  0  0  0  0  0
    6.5003    7.4944    0.0000 C   0  0  0  0  0  0  0  0  0  0  0  0
    5.2059    8.2465    0.0000 N   0  0  0  0  0  0  0  0  0  0  0  0
    6.4992    5.9935    0.0000 C   0  0  0  0  0  0  0  0  0  0  0  0
    5.4593    5.3947    0.0000 O   0  0  0  0  0  0  0  0  0  0  0  0
    7.7966    3.7404    0.0000 C   0  0  0  0  0  0  0  0  0  0  0  0
    9.0953    2.9882    0.0000 C   0  0  0  0  0  0  0  0  0  0  0  0
    6.4945    2.9941    0.0000 C   0  0  0  0  0  0  0  0  0  0  0  0
    5.1967    3.7478    0.0000 C   0  0  0  0  0  0  0  0  0  0  0  0
    4.1555    3.1511    0.0000 O   0  0  0  0  0  0  0  0  0  0  0  0
   10.1352    3.5870    0.0000 O   0  0  0  0  0  0  0  0  0  0  0  0
   10.3928    0.7351    0.0000 C   0  0  0  0  0  0  0  0  0  0  0  0
   11.6941    1.4828    0.0000 C   0  0  0  0  0  0  0  0  0  0  0  0
   10.3871   -0.7658    0.0000 C   0  0  0  0  0  0  0  0  0  0  0  0
    9.0850   -1.5121    0.0000 C   0  0  0  0  0  0  0  0  0  0  0  0
    9.0771   -3.0121    0.0000 C   0  0  0  0  0  0  0  0  0  0  0  0
    7.7742   -3.7553    0.0000 C   0  0  0  0  0  0  0  0  0  0  0  0
    6.4791   -2.9985    0.0000 C   0  0  0  0  0  0  0  0  0  0  0  0
    6.4869   -1.4986    0.0000 C   0  0  0  0  0  0  0  0  0  0  0  0
    7.7898   -0.7553    0.0000 C   0  0  0  0  0  0  0  0  0  0  0  0
   12.9928    0.7305    0.0000 C   0  0  0  0  0  0  0  0  0  0  0  0
   14.2941    1.4783    0.0000 N   0  0  0  0  0  0  0  0  0  0  0  0
   15.5911    0.7298    0.0000 C   0  0  0  0  0  0  0  0  0  0  0  0
   16.8960    1.4954    0.0000 C   0  0  0  0  0  0  0  0  0  0  0  0
   14.3011    2.9899    0.0000 C   0  0  0  0  0  0  0  0  0  0  0  0
   15.5968    3.7397    0.0000 C   0  0  0  0  0  0  0  0  0  0  0  0
   16.8943    2.9924    0.0000 C   0  0  0  0  0  0  0  0  0  0  0  0
   18.1901    3.7422    0.0000 C   0  0  0  0  0  0  0  0  0  0  0  0
   18.1883    5.2393    0.0000 C   0  0  0  0  0  0  0  0  0  0  0  0
   16.8909    5.9866    0.0000 C   0  0  0  0  0  0  0  0  0  0  0  0
   15.5951    5.2368    0.0000 C   0  0  0  0  0  0  0  0  0  0  0  0
   15.5894   -0.7709    0.0000 C   0  0  0  0  0  0  0  0  0  0  0  0
   16.6280   -1.3719    0.0000 O   0  0  0  0  0  0  0  0  0  0  0  0
   14.2873   -3.0214    0.0000 C   0  0  0  0  0  0  0  0  0  0  0  0
   13.2477   -3.6207    0.0000 C   0  0  0  0  0  0  0  0  0  0  0  0
   14.2864   -4.2214    0.0000 C   0  0  0  0  0  0  0  0  0  0  0  0
   15.3260   -3.6223    0.0000 C   0  0  0  0  0  0  0  0  0  0  0  0
    7.7978    5.2412    0.0000 N   0  0  0  0  0  0  0  0  0  0  0  0
    5.2001    4.9478    0.0000 N   0  0  0  0  0  0  0  0  0  0  0  0
    9.0941    1.4873    0.0000 N   0  0  0  0  0  0  0  0  0  0  0  0
   11.6962    2.6828    0.0000 O   0  0  0  0  0  0  0  0  0  0  0  0
   14.2892   -1.5205    0.0000 N   0  0  0  0  0  0  0  0  0  0  0  0
  9 10  2  0
 10  5  1  0
  9 11  1  0
 11 12  2  0
 13 14  1  0
 13 15  1  0
 15 16  1  0
 16 17  2  0
 14 18  2  0
 19 20  1  0
 19 21  1  0
 21 22  1  0
 22 23  2  0
 23 24  1  0
 24 25  2  0
 25 26  1  0
 26 27  2  0
 27 22  1  0
 20 28  1  0
 28 29  1  0
 29 30  1  0
 29 32  1  0
 30 31  1  0
 31 34  1  0
 33 32  1  0
 33 34  1  0
 33 38  1  0
 34 35  1  0
 35 36  1  0
 36 37  1  0
 37 38  1  0
 30 39  1  0
 39 40  2  0
 41 42  1  0
 41 43  1  0
 41 44  1  0
  1  2  2  0
  2  3  1  0
  3  6  2  0
  5  4  2  0
 11 45  1  0
 45 13  1  0
 14 47  1  0
 47 19  1  0
 20 48  1  0
 16 46  1  0
 39 49  1  0
 49 41  1  0
  4  1  1  0
  5  6  1  0
  6  7  1  0
  7  8  2  0
  8  9  1  0
M  END
>  <Classification>  (11) 
0

>  <pchembl>  (11) 
4.38

>  <InChI_steorem>  (11) 
InChI=1S/C38H50N6O5/c1-38(2,3)43-37(49)32-20-26-14-7-8-15-27(26)22-44(32)23-33(45)30(19-24-11-5-4-6-12-24)41-36(48)31(21-34(39)46)42-35(47)29-18-17-25-13-9-10-16-28(25)40-29/h4-6,9-13,16-18,26-27,30-33,45H,7-8,14-15,19-23H2,1-3H3,(H2,39,46)(H,41,48)(H,42,47)(H,43,49)

>  <source>  (11) 
ChEMBL25

>  <source_id>  (11) 
25

>  <optional_reference>  (11) 
10.1093/toxsci/kft176

>  <optional_origin>  (11) 
None

>  <target>  (11) 
MRP3

$$$$

     RDKit          2D

 59 63  0  0  0  0  0  0  0  0999 V2000
   -0.6300   -2.6500    0.0000 C   0  0  0  0  0  0  0  0  0  0  0  0
    3.2300   -0.3900    0.0000 C   0  0  0  0  0  0  0  0  0  0  0  0
    3.2300   -1.8800    0.0000 C   0  0  0  0  0  0  0  0  0  0  0  0
   -1.9300   -1.8800    0.0000 C   0  0  0  0  0  0  0  0  0  0  0  0
    0.6600   -0.3900    0.0000 C   0  0  0  0  0  0  0  0  0  0  0  0
    0.6600   -1.8700    0.0000 C   0  0  0  0  0  0  0  0  0  0  0  0
   -2.3800   -4.2600    0.0000 C   0  0  0  0  0  0  0  0  0  0  0  0
    4.1900    0.5300    0.0000 N   0  0  0  0  0  0  0  0  0  0  0  0
   -3.0100   -2.9400    0.0000 O   0  0  0  0  0  0  0  0  0  0  0  0
    1.9500    0.3100    0.0000 C   0  0  0  0  0  0  0  0  0  0  0  0
    1.9500   -2.6500    0.0000 C   0  0  0  0  0  0  0  0  0  0  0  0
   -0.6300    0.3100    0.0000 C   0  0  0  0  0  0  0  0  0  0  0  0
   -0.9200   -4.0700    0.0000 C   0  0  0  0  0  0  0  0  0  0  0  0
   -1.9300   -0.3900    0.0000 C   0  0  0  0  0  0  0  0  0  0  0  0
   -4.3000    2.7200    0.0000 C   0  0  0  0  0  0  0  0  0  0  0  0
    4.1900    2.1300    0.0000 C   0  0  0  0  0  0  0  0  0  0  0  0
   -3.1000    3.5700    0.0000 C   0  0  0  0  0  0  0  0  0  0  0  0
   -2.2100    5.6200    0.0000 C   0  0  0  0  0  0  0  0  0  0  0  0
   -3.5200    5.0300    0.0000 C   0  0  0  0  0  0  0  0  0  0  0  0
    4.5074   -2.6667    0.0000 C   0  0  0  0  0  0  0  0  0  0  0  0
   -3.7300    1.3600    0.0000 C   0  0  0  0  0  0  0  0  0  0  0  0
    5.7441   -4.9537    0.0000 N   0  0  0  0  0  0  0  0  0  0  0  0
   -0.7000    4.9800    0.0000 C   0  0  0  0  0  0  0  0  0  0  0  0
    4.4660   -4.1670    0.0000 N   0  0  0  0  0  0  0  0  0  0  0  0
    5.4300    2.9200    0.0000 C   0  0  0  0  0  0  0  0  0  0  0  0
   -4.8700   -4.7400    0.0000 O   0  0  0  0  0  0  0  0  0  0  0  0
   -5.7879    3.1064    0.0000 O   0  0  0  0  0  0  0  0  0  0  0  0
    8.3021   -6.5212    0.0000 N   0  0  0  0  0  0  0  0  0  0  0  0
   -5.8600   -3.2000    0.0000 C   0  0  0  0  0  0  0  0  0  0  0  0
   -6.1887    4.5527    0.0000 C   0  0  0  0  0  0  0  0  0  0  0  0
   -4.6200   -1.6300    0.0000 C   0  0  0  0  0  0  0  0  0  0  0  0
   -4.9900    0.0000    0.0000 C   0  0  0  0  0  0  0  0  0  0  0  0
    3.9200    5.5200    0.0000 C   0  0  0  0  0  0  0  0  0  0  0  0
   -0.1213   -4.9656    0.0000 O   0  0  0  0  0  0  0  0  0  0  0  0
    5.4300    4.5000    0.0000 C   0  0  0  0  0  0  0  0  0  0  0  0
    3.1522    2.7324    0.0000 O   0  0  0  0  0  0  0  0  0  0  0  0
    5.7049   -6.4533    0.0000 C   0  0  0  0  0  0  0  0  0  0  0  0
    7.0624   -4.2380    0.0000 C   0  0  0  0  0  0  0  0  0  0  0  0
    0.8100    5.4600    0.0000 C   0  0  0  0  0  0  0  0  0  0  0  0
    2.2200    4.6900    0.0000 C   0  0  0  0  0  0  0  0  0  0  0  0
   -7.3502    4.8541    0.0000 O   0  0  0  0  0  0  0  0  0  0  0  0
    1.9500    1.5100    0.0000 O   0  0  0  0  0  0  0  0  0  0  0  0
    1.9500   -3.8500    0.0000 O   0  0  0  0  0  0  0  0  0  0  0  0
   -0.6300    1.5100    0.0000 O   0  0  0  0  0  0  0  0  0  0  0  0
    8.3413   -5.0218    0.0000 C   0  0  0  0  0  0  0  0  0  0  0  0
    6.9839   -7.2370    0.0000 C   0  0  0  0  0  0  0  0  0  0  0  0
   -4.6058    5.5410    0.0000 O   0  0  0  0  0  0  0  0  0  0  0  0
   -0.7000    3.7800    0.0000 O   0  0  0  0  0  0  0  0  0  0  0  0
   -2.2267   -5.4502    0.0000 C   0  0  0  0  0  0  0  0  0  0  0  0
   -2.9674    0.2131    0.0000 C   0  0  0  0  0  0  0  0  0  0  0  0
   -1.9516    3.2220    0.0000 C   0  0  0  0  0  0  0  0  0  0  0  0
   -2.2100    6.8200    0.0000 C   0  0  0  0  0  0  0  0  0  0  0  0
   -6.5219    0.1638    0.0000 O   0  0  0  0  0  0  0  0  0  0  0  0
   -2.5544    1.1190    0.0000 C   0  0  0  0  0  0  0  0  0  0  0  0
    9.3253   -7.1482    0.0000 C   0  0  0  0  0  0  0  0  0  0  0  0
    6.5322    2.4455    0.0000 C   0  0  0  0  0  0  0  0  0  0  0  0
   -5.3472    5.4082    0.0000 C   0  0  0  0  0  0  0  0  0  0  0  0
    0.8100    6.6600    0.0000 C   0  0  0  0  0  0  0  0  0  0  0  0
   -7.0081    1.2608    0.0000 C   0  0  0  0  0  0  0  0  0  0  0  0
  2  3  1  0
  3 11  2  0
  4  1  2  0
  5  6  2  0
  6  1  1  0
  7 13  1  0
  8  2  1  0
  9  4  1  0
 10  5  1  0
 11  6  1  0
 12  5  1  0
 13  1  1  0
 14  4  1  0
 15 21  1  0
 16  8  1  0
 17 15  1  0
 18 19  1  0
 19 17  1  0
 20  3  1  0
 21 32  1  0
 22 24  1  0
 23 18  1  0
 24 20  2  3
 25 16  1  0
 26  7  1  0
 15 27  1  0
 28 45  1  0
 29 26  1  0
 30 27  1  0
 31 29  2  0
 32 31  1  0
 33 35  1  0
 34 13  2  0
 35 25  2  0
 36 16  2  0
 37 22  1  0
 38 22  1  0
 39 40  1  0
 40 33  2  0
 41 30  2  0
 42 10  1  0
 43 11  1  0
 44 12  1  0
 45 38  1  0
 46 37  1  0
 19 47  1  0
 23 48  1  0
  7 49  1  0
 50 14  1  0
 17 51  1  0
 18 52  1  0
 32 53  1  0
 21 54  1  0
 55 28  1  0
 56 25  1  0
 57 30  1  0
 39 58  1  0
 59 53  1  0
 12 14  2  0
  9  7  1  0
 10  2  2  0
 46 28  1  0
 39 23  1  0
M  END
>  <Classification>  (12) 
0

>  <pchembl>  (12) 
4.16

>  <InChI_steorem>  (12) 
InChI=1S/C43H58N4O12/c1-21-12-11-13-22(2)42(55)45-33-28(20-44-47-17-15-46(9)16-18-47)37(52)30-31(38(33)53)36(51)26(6)40-32(30)41(54)43(8,59-40)57-19-14-29(56-10)23(3)39(58-27(7)48)25(5)35(50)24(4)34(21)49/h11-14,19-21,23-25,29,34-35,39,49-53H,15-18H2,1-10H3,(H,45,55)

>  <source>  (12) 
ChEMBL25

>  <source_id>  (12) 
25

>  <optional_reference>  (12) 
10.1093/toxsci/kft176

>  <optional_origin>  (12) 
None

>  <target>  (12) 
MRP3

$$$$

     RDKit          2D

 20 21  0  0  0  0  0  0  0  0999 V2000
   -3.9806   -2.0606    0.0000 C   0  0  0  0  0  0  0  0  0  0  0  0
   -3.9819   -2.8893    0.0000 C   0  0  0  0  0  0  0  0  0  0  0  0
   -3.2679   -3.3027    0.0000 C   0  0  0  0  0  0  0  0  0  0  0  0
   -2.5523   -2.8888    0.0000 C   0  0  0  0  0  0  0  0  0  0  0  0
   -2.5554   -2.0566    0.0000 C   0  0  0  0  0  0  0  0  0  0  0  0
   -3.2699   -1.6472    0.0000 C   0  0  0  0  0  0  0  0  0  0  0  0
   -1.8390   -1.6406    0.0000 C   0  0  0  0  0  0  0  0  0  0  0  0
   -1.1238   -2.0507    0.0000 C   0  0  0  0  0  0  0  0  0  0  0  0
   -1.8424   -0.8145    0.0000 O   0  0  0  0  0  0  0  0  0  0  0  0
   -4.6988   -1.6478    0.0000 O   0  0  0  0  0  0  0  0  0  0  0  0
   -4.7004   -3.3017    0.0000 O   0  0  0  0  0  0  0  0  0  0  0  0
   -3.2673   -4.1321    0.0000 N   0  0  0  0  0  0  0  0  0  0  0  0
   -3.9809   -4.5449    0.0000 O   0  0  0  0  0  0  0  0  0  0  0  0
   -2.5538   -4.5453    0.0000 O   0  0  0  0  0  0  0  0  0  0  0  0
   -1.1240   -2.8741    0.0000 C   0  0  0  0  0  0  0  0  0  0  0  0
   -0.4051   -3.2842    0.0000 C   0  0  0  0  0  0  0  0  0  0  0  0
    0.3077   -2.8681    0.0000 C   0  0  0  0  0  0  0  0  0  0  0  0
    0.3014   -2.0374    0.0000 C   0  0  0  0  0  0  0  0  0  0  0  0
   -0.4136   -1.6315    0.0000 C   0  0  0  0  0  0  0  0  0  0  0  0
    1.0236   -3.2772    0.0000 C   0  0  0  0  0  0  0  0  0  0  0  0
  1 10  1  0
  2  3  2  0
  2 11  1  0
  5  6  1  0
  6  1  2  0
  1  2  1  0
 12 13  1  0
 12 14  2  0
  3 12  1  0
  5  7  1  0
  8 15  2  0
  3  4  1  0
 15 16  1  0
  7  8  1  0
 16 17  2  0
 17 18  1  0
  7  9  2  0
 18 19  2  0
 19  8  1  0
  4  5  2  0
 17 20  1  0
M  CHG  2  12   1  13  -1
M  END
>  <Classification>  (13) 
0

>  <pchembl>  (13) 
4.07

>  <InChI_steorem>  (13) 
InChI=1S/C14H11NO5/c1-8-2-4-9(5-3-8)13(17)10-6-11(15(19)20)14(18)12(16)7-10/h2-7,16,18H,1H3

>  <source>  (13) 
ChEMBL25

>  <source_id>  (13) 
25

>  <optional_reference>  (13) 
10.1093/toxsci/kft176

>  <optional_origin>  (13) 
None

>  <target>  (13) 
MRP3

$$$$

     RDKit          2D

 33 35  0  0  0  0  0  0  0  0999 V2000
    1.9167   -6.4250    0.0000 C   0  0  0  0  0  0  0  0  0  0  0  0
   -3.0750   -7.6792    0.0000 C   0  0  0  0  0  0  0  0  0  0  0  0
   -2.3625   -7.2667    0.0000 C   0  0  0  0  0  0  0  0  0  0  0  0
   -3.0750   -8.5125    0.0000 C   0  0  0  0  0  0  0  0  0  0  0  0
   -2.3583   -8.9250    0.0000 N   0  0  0  0  0  0  0  0  0  0  0  0
    2.6292   -6.0042    0.0000 C   0  0  0  0  0  0  0  0  0  0  0  0
    1.9167   -7.2542    0.0000 C   0  0  0  0  0  0  0  0  0  0  0  0
   -1.6458   -7.6750    0.0000 N   0  0  0  0  0  0  0  0  0  0  0  0
   -0.9333   -7.2625    0.0000 C   0  0  0  0  0  0  0  0  0  0  0  0
    1.1917   -6.0167    0.0000 C   0  0  0  0  0  0  0  0  0  0  0  0
    1.2042   -7.6667    0.0000 C   0  0  0  0  0  0  0  0  0  0  0  0
   -2.3708   -6.4417    0.0000 C   0  0  0  0  0  0  0  0  0  0  0  0
    2.6250   -5.1875    0.0000 O   0  0  0  0  0  0  0  0  0  0  0  0
   -0.9375   -6.4375    0.0000 O   0  0  0  0  0  0  0  0  0  0  0  0
    0.4917   -7.2542    0.0000 C   0  0  0  0  0  0  0  0  0  0  0  0
   -0.2208   -7.6667    0.0000 C   0  0  0  0  0  0  0  0  0  0  0  0
    0.4875   -6.4292    0.0000 C   0  0  0  0  0  0  0  0  0  0  0  0
    3.3417   -6.4167    0.0000 O   0  0  0  0  0  0  0  0  0  0  0  0
    2.6292   -7.6625    0.0000 O   0  0  0  0  0  0  0  0  0  0  0  0
   -3.7958   -7.2667    0.0000 C   0  0  0  0  0  0  0  0  0  0  0  0
   -1.6458   -8.5000    0.0000 C   0  0  0  0  0  0  0  0  0  0  0  0
   -2.3625   -9.7500    0.0000 C   0  0  0  0  0  0  0  0  0  0  0  0
   -3.7958   -8.9250    0.0000 C   0  0  0  0  0  0  0  0  0  0  0  0
   -3.0833   -6.0292    0.0000 C   0  0  0  0  0  0  0  0  0  0  0  0
    2.6375   -8.4875    0.0000 C   0  0  0  0  0  0  0  0  0  0  0  0
   -3.7958   -6.4417    0.0000 C   0  0  0  0  0  0  0  0  0  0  0  0
   -3.0875   -5.2042    0.0000 C   0  0  0  0  0  0  0  0  0  0  0  0
   -4.5083   -7.6875    0.0000 C   0  0  0  0  0  0  0  0  0  0  0  0
   -0.9333   -8.9250    0.0000 C   0  0  0  0  0  0  0  0  0  0  0  0
   -1.6500  -10.1542    0.0000 C   0  0  0  0  0  0  0  0  0  0  0  0
   -4.5083   -8.5125    0.0000 C   0  0  0  0  0  0  0  0  0  0  0  0
    3.3542   -8.9000    0.0000 C   0  0  0  0  0  0  0  0  0  0  0  0
   -0.9333   -9.7500    0.0000 C   0  0  0  0  0  0  0  0  0  0  0  0
  2  3  1  0
  3  8  1  0
  4  2  1  0
  5  4  1  0
  6  1  1  0
  7  1  2  0
  8  9  1  0
  9 16  1  0
 10  1  1  0
 11  7  1  0
  3 12  1  0
 13  6  2  0
 14  9  2  0
 15 17  1  0
 16 15  1  0
 17 10  2  0
 18  6  1  0
 19  7  1  0
 20  2  2  0
 21  5  1  0
 22  5  1  0
 23  4  2  0
 24 12  1  0
 25 19  1  0
 26 24  1  0
 27 24  1  0
 28 20  1  0
 29 21  1  0
 30 22  1  0
 31 28  2  0
 32 25  1  0
 33 30  1  0
 11 15  2  0
 23 31  1  0
 33 29  1  0
M  END
>  <Classification>  (14) 
0

>  <pchembl>  (14) 
4.78

>  <InChI_steorem>  (14) 
InChI=1S/C27H36N2O4/c1-4-33-25-17-20(12-13-22(25)27(31)32)18-26(30)28-23(16-19(2)3)21-10-6-7-11-24(21)29-14-8-5-9-15-29/h6-7,10-13,17,19,23H,4-5,8-9,14-16,18H2,1-3H3,(H,28,30)(H,31,32)

>  <source>  (14) 
ChEMBL25

>  <source_id>  (14) 
25

>  <optional_reference>  (14) 
10.1093/toxsci/kft176

>  <optional_origin>  (14) 
None

>  <target>  (14) 
MRP3

$$$$

     RDKit          2D

 37 40  0  0  0  0  0  0  0  0999 V2000
   13.7208   -6.1188    0.0000 C   0  0  0  0  0  0  0  0  0  0  0  0
   13.7227   -5.2918    0.0000 C   0  0  0  0  0  0  0  0  0  0  0  0
   13.0097   -4.8767    0.0000 C   0  0  0  0  0  0  0  0  0  0  0  0
   12.2948   -5.2886    0.0000 C   0  0  0  0  0  0  0  0  0  0  0  0
   12.2895   -6.1135    0.0000 C   0  0  0  0  0  0  0  0  0  0  0  0
   13.0024   -6.5287    0.0000 C   0  0  0  0  0  0  0  0  0  0  0  0
   14.4337   -6.5341    0.0000 S   0  0  0  0  0  0  0  0  0  0  0  0
   14.0186   -7.2470    0.0000 O   0  0  0  0  0  0  0  0  0  0  0  0
   14.8489   -5.8211    0.0000 O   0  0  0  0  0  0  0  0  0  0  0  0
   15.1467   -6.9492    0.0000 N   0  0  0  0  0  0  0  0  0  0  0  0
   11.5819   -4.8733    0.0000 C   0  0  0  0  0  0  0  0  0  0  0  0
   10.8636   -5.2832    0.0000 C   0  0  0  0  0  0  0  0  0  0  0  0
    9.4358   -5.2798    0.0000 C   0  0  0  0  0  0  0  0  0  0  0  0
   10.1507   -4.8680    0.0000 N   0  0  0  0  0  0  0  0  0  0  0  0
   10.1560   -4.0431    0.0000 C   0  0  0  0  0  0  0  0  0  0  0  0
    9.4431   -3.6278    0.0000 C   0  0  0  0  0  0  0  0  0  0  0  0
    8.7248   -4.0377    0.0000 C   0  0  0  0  0  0  0  0  0  0  0  0
    8.0119   -3.6225    0.0000 C   0  0  0  0  0  0  0  0  0  0  0  0
    7.2970   -4.0343    0.0000 C   0  0  0  0  0  0  0  0  0  0  0  0
    7.2936   -4.8558    0.0000 C   0  0  0  0  0  0  0  0  0  0  0  0
    8.0066   -5.2710    0.0000 C   0  0  0  0  0  0  0  0  0  0  0  0
    8.7229   -4.8646    0.0000 C   0  0  0  0  0  0  0  0  0  0  0  0
   10.8709   -3.6312    0.0000 O   0  0  0  0  0  0  0  0  0  0  0  0
    9.4325   -6.1013    0.0000 O   0  0  0  0  0  0  0  0  0  0  0  0
    8.9131   -2.9951    0.0000 C   0  0  0  0  0  0  0  0  0  0  0  0
    9.9731   -2.9984    0.0000 C   0  0  0  0  0  0  0  0  0  0  0  0
    6.5788   -5.2676    0.0000 O   0  0  0  0  0  0  0  0  0  0  0  0
    5.8659   -4.8525    0.0000 C   0  0  0  0  0  0  0  0  0  0  0  0
   15.1413   -7.7742    0.0000 C   0  0  0  0  0  0  0  0  0  0  0  0
   15.8543   -8.1893    0.0000 N   0  0  0  0  0  0  0  0  0  0  0  0
   14.4265   -8.1860    0.0000 O   0  0  0  0  0  0  0  0  0  0  0  0
   15.8524   -9.0163    0.0000 C   0  0  0  0  0  0  0  0  0  0  0  0
   16.5654   -9.4314    0.0000 C   0  0  0  0  0  0  0  0  0  0  0  0
   16.5620  -10.2529    0.0000 C   0  0  0  0  0  0  0  0  0  0  0  0
   15.8471  -10.6647    0.0000 C   0  0  0  0  0  0  0  0  0  0  0  0
   15.1342  -10.2496    0.0000 C   0  0  0  0  0  0  0  0  0  0  0  0
   15.1361   -9.4226    0.0000 C   0  0  0  0  0  0  0  0  0  0  0  0
  1  2  2  0
  2  3  1  0
  3  4  2  0
  4  5  1  0
  5  6  2  0
  1  6  1  0
  7  8  2  0
  7  9  2  0
  7 10  1  0
  1  7  1  0
 11 12  1  0
 13 14  1  0
 14 15  1  0
 15 16  1  0
 16 17  1  0
 17 18  2  0
 18 19  1  0
 19 20  2  0
 20 21  1  0
 21 22  2  0
 13 22  1  0
 17 22  1  0
 15 23  2  0
 13 24  2  0
 16 25  1  0
 16 26  1  0
 27 28  1  0
 20 27  1  0
 12 14  1  0
  4 11  1  0
 29 30  1  0
 29 31  2  0
 32 33  1  0
 33 34  1  0
 34 35  1  0
 35 36  1  0
 36 37  1  0
 32 37  1  0
 30 32  1  0
 10 29  1  0
M  END
>  <Classification>  (15) 
0

>  <pchembl>  (15) 
4.62

>  <InChI_steorem>  (15) 
InChI=1S/C27H33N3O6S/c1-27(2)23-14-11-20(36-3)17-22(23)24(31)30(25(27)32)16-15-18-9-12-21(13-10-18)37(34,35)29-26(33)28-19-7-5-4-6-8-19/h9-14,17,19H,4-8,15-16H2,1-3H3,(H2,28,29,33)

>  <source>  (15) 
ChEMBL25

>  <source_id>  (15) 
25

>  <optional_reference>  (15) 
10.1093/toxsci/kft176

>  <optional_origin>  (15) 
None

>  <target>  (15) 
MRP3

$$$$

     RDKit          2D

 38 40  0  0  0  0  0  0  0  0999 V2000
    7.9958  -11.4208    0.0000 S   0  0  0  0  0  0  0  0  0  0  0  0
    8.0027  -13.0708    0.0000 C   0  0  0  0  0  0  0  0  0  0  0  0
    8.0016  -13.8982    0.0000 C   0  0  0  0  0  0  0  0  0  0  0  0
    8.7164  -14.3110    0.0000 C   0  0  0  0  0  0  0  0  0  0  0  0
    9.4328  -13.8977    0.0000 C   0  0  0  0  0  0  0  0  0  0  0  0
    9.4300  -13.0672    0.0000 C   0  0  0  0  0  0  0  0  0  0  0  0
    8.7146  -12.6580    0.0000 C   0  0  0  0  0  0  0  0  0  0  0  0
    8.7121  -11.8330    0.0000 N   0  0  0  0  0  0  0  0  0  0  0  0
    7.2868  -14.3101    0.0000 C   0  0  0  0  0  0  0  0  0  0  0  0
    6.5726  -13.8970    0.0000 N   0  0  0  0  0  0  0  0  0  0  0  0
    7.2861  -15.1351    0.0000 O   0  0  0  0  0  0  0  0  0  0  0  0
    5.8578  -14.3090    0.0000 C   0  0  0  0  0  0  0  0  0  0  0  0
    5.1437  -13.8959    0.0000 C   0  0  0  0  0  0  0  0  0  0  0  0
   10.1429  -12.6520    0.0000 O   0  0  0  0  0  0  0  0  0  0  0  0
   10.8589  -13.0618    0.0000 C   0  0  0  0  0  0  0  0  0  0  0  0
   10.8587  -13.8844    0.0000 C   0  0  0  0  0  0  0  0  0  0  0  0
   11.5738  -14.2942    0.0000 C   0  0  0  0  0  0  0  0  0  0  0  0
   12.2877  -13.8789    0.0000 C   0  0  0  0  0  0  0  0  0  0  0  0
   12.2820  -13.0497    0.0000 C   0  0  0  0  0  0  0  0  0  0  0  0
   11.5662  -12.6437    0.0000 C   0  0  0  0  0  0  0  0  0  0  0  0
    7.9940  -10.5977    0.0000 C   0  0  0  0  0  0  0  0  0  0  0  0
    8.7091  -10.1878    0.0000 C   0  0  0  0  0  0  0  0  0  0  0  0
    8.7070   -9.3636    0.0000 C   0  0  0  0  0  0  0  0  0  0  0  0
    7.9907   -8.9524    0.0000 C   0  0  0  0  0  0  0  0  0  0  0  0
    7.2751   -9.3714    0.0000 C   0  0  0  0  0  0  0  0  0  0  0  0
    7.2808  -10.1943    0.0000 C   0  0  0  0  0  0  0  0  0  0  0  0
    9.4234  -10.6005    0.0000 Cl  0  0  0  0  0  0  0  0  0  0  0  0
    7.9872   -8.1274    0.0000 Cl  0  0  0  0  0  0  0  0  0  0  0  0
   13.0043  -14.2878    0.0000 C   0  0  0  0  0  0  0  0  0  0  0  0
   13.7167  -13.8716    0.0000 C   0  0  0  0  0  0  0  0  0  0  0  0
   14.4338  -14.2779    0.0000 O   0  0  0  0  0  0  0  0  0  0  0  0
   13.7131  -13.0441    0.0000 O   0  0  0  0  0  0  0  0  0  0  0  0
   11.5588  -11.8187    0.0000 O   0  0  0  0  0  0  0  0  0  0  0  0
   12.2696  -11.3998    0.0000 C   0  0  0  0  0  0  0  0  0  0  0  0
    7.5792  -12.1333    0.0000 O   0  0  0  0  0  0  0  0  0  0  0  0
    7.2792  -11.0083    0.0000 O   0  0  0  0  0  0  0  0  0  0  0  0
    4.4289  -14.3078    0.0000 C   0  0  0  0  0  0  0  0  0  0  0  0
    3.7148  -13.8948    0.0000 C   0  0  0  0  0  0  0  0  0  0  0  0
  9 10  1  0
 19 20  2  0
 20 15  1  0
  8  1  1  0
  5  6  2  0
  1 21  1  0
  9 11  2  0
 21 22  2  0
  3  4  2  0
 22 23  1  0
 10 12  1  0
 23 24  2  0
  6  7  1  0
 24 25  1  0
 12 13  1  0
 25 26  2  0
 26 21  1  0
  7  2  2  0
 22 27  1  0
  6 14  1  0
 24 28  1  0
  2  3  1  0
 18 29  1  0
 14 15  1  0
 29 30  1  0
  7  8  1  0
 15 16  2  0
 30 31  1  0
 30 32  2  0
  4  5  1  0
 20 33  1  0
 16 17  1  0
 33 34  1  0
  3  9  1  0
  1 35  2  0
 17 18  2  0
  1 36  2  0
 13 37  1  0
 18 19  1  0
 37 38  1  0
M  END
>  <Classification>  (16) 
1

>  <pchembl>  (16) 
5.96

>  <InChI_steorem>  (16) 
InChI=1S/C26H26Cl2N2O7S/c1-3-4-11-29-26(33)17-6-9-21(37-22-8-5-16(13-25(31)32)12-23(22)36-2)20(14-17)30-38(34,35)24-10-7-18(27)15-19(24)28/h5-10,12,14-15,30H,3-4,11,13H2,1-2H3,(H,29,33)(H,31,32)

>  <source>  (16) 
ChEMBL25

>  <source_id>  (16) 
25

>  <optional_reference>  (16) 
10.1093/toxsci/kft176

>  <optional_origin>  (16) 
None

>  <target>  (16) 
MRP3

$$$$

     RDKit          2D

 32 35  0  0  0  0  0  0  0  0999 V2000
    4.6375   -4.4750    0.0000 C   0  0  0  0  0  0  0  0  0  0  0  0
    5.2792   -4.2542    0.0000 C   0  0  0  0  0  0  0  0  0  0  0  0
    2.7792   -5.5125    0.0000 C   0  0  0  0  0  0  0  0  0  0  0  0
    4.0375   -5.5167    0.0000 C   0  0  0  0  0  0  0  0  0  0  0  0
    4.6375   -5.1625    0.0000 C   0  0  0  0  0  0  0  0  0  0  0  0
    3.4167   -5.1792    0.0000 C   0  0  0  0  0  0  0  0  0  0  0  0
    2.7792   -6.2250    0.0000 C   0  0  0  0  0  0  0  0  0  0  0  0
    4.0375   -4.1167    0.0000 C   0  0  0  0  0  0  0  0  0  0  0  0
    3.4167   -4.4750    0.0000 C   0  0  0  0  0  0  0  0  0  0  0  0
    2.1667   -5.1417    0.0000 C   0  0  0  0  0  0  0  0  0  0  0  0
    5.2792   -3.4542    0.0000 C   0  0  0  0  0  0  0  0  0  0  0  0
    2.1542   -6.5667    0.0000 C   0  0  0  0  0  0  0  0  0  0  0  0
    5.9375   -3.9542    0.0000 O   0  0  0  0  0  0  0  0  0  0  0  0
    6.5417   -4.3167    0.0000 C   0  0  0  0  0  0  0  0  0  0  0  0
    5.6750   -4.8292    0.0000 C   0  0  0  0  0  0  0  0  0  0  0  0
    5.3042   -5.3667    0.0000 C   0  0  0  0  0  0  0  0  0  0  0  0
    4.0375   -6.2292    0.0000 C   0  0  0  0  0  0  0  0  0  0  0  0
    1.5292   -5.5125    0.0000 C   0  0  0  0  0  0  0  0  0  0  0  0
    1.5292   -6.1875    0.0000 C   0  0  0  0  0  0  0  0  0  0  0  0
    3.4042   -6.5917    0.0000 C   0  0  0  0  0  0  0  0  0  0  0  0
    5.8917   -3.0917    0.0000 O   0  0  0  0  0  0  0  0  0  0  0  0
    6.5417   -5.0167    0.0000 O   0  0  0  0  0  0  0  0  0  0  0  0
    4.6792   -3.0917    0.0000 O   0  0  0  0  0  0  0  0  0  0  0  0
    0.9125   -6.5167    0.0000 O   0  0  0  0  0  0  0  0  0  0  0  0
    4.6375   -3.7667    0.0000 C   0  0  0  0  0  0  0  0  0  0  0  0
    6.5042   -3.4542    0.0000 C   0  0  0  0  0  0  0  0  0  0  0  0
    2.8000   -4.1167    0.0000 O   0  0  0  0  0  0  0  0  0  0  0  0
    7.1417   -3.9542    0.0000 O   0  0  0  0  0  0  0  0  0  0  0  0
    2.7792   -4.8375    0.0000 C   0  0  0  0  0  0  0  0  0  0  0  0
    7.0792   -3.0917    0.0000 Cl  0  0  0  0  0  0  0  0  0  0  0  0
    7.7875   -4.3167    0.0000 C   0  0  0  0  0  0  0  0  0  0  0  0
    8.3875   -3.9542    0.0000 C   0  0  0  0  0  0  0  0  0  0  0  0
  2  1  1  0
  3  6  1  0
  4  5  1  0
  5  1  1  0
  6  9  1  0
  7  3  1  0
  8  1  1  0
  9  8  1  0
 10  3  1  0
 11  2  1  0
 12  7  2  0
  2 13  1  0
 14 13  1  0
 15  2  1  0
 16  5  1  0
 17  4  1  0
 18 10  2  0
 19 18  1  0
 20 17  1  0
 21 11  1  0
 22 14  2  0
 23 11  2  0
 24 19  2  0
  1 25  1  0
 26 21  1  0
  9 27  1  0
 28 14  1  0
  3 29  1  0
 30 26  1  0
 31 28  1  0
 32 31  1  0
 16 15  1  0
  6  4  1  0
  7 20  1  0
 19 12  1  0
M  END
>  <Classification>  (17) 
0

>  <pchembl>  (17) 
4.81

>  <InChI_steorem>  (17) 
InChI=1S/C24H31ClO7/c1-4-30-21(29)32-24(20(28)31-13-25)10-8-17-16-6-5-14-11-15(26)7-9-22(14,2)19(16)18(27)12-23(17,24)3/h7,9,11,16-19,27H,4-6,8,10,12-13H2,1-3H3

>  <source>  (17) 
ChEMBL25

>  <source_id>  (17) 
25

>  <optional_reference>  (17) 
10.1093/toxsci/kft176

>  <optional_origin>  (17) 
None

>  <target>  (17) 
MRP3

$$$$

     RDKit          2D

 41 45  0  0  0  0  0  0  0  0999 V2000
    3.1917   -2.8667    0.0000 C   0  0  0  0  0  0  0  0  0  0  0  0
    3.4042   -2.1917    0.0000 C   0  0  0  0  0  0  0  0  0  0  0  0
    3.7667   -3.2792    0.0000 N   0  0  0  0  0  0  0  0  0  0  0  0
    4.1167   -2.1917    0.0000 N   0  0  0  0  0  0  0  0  0  0  0  0
    4.3542   -2.8667    0.0000 C   0  0  0  0  0  0  0  0  0  0  0  0
    6.9417   -4.4042    0.0000 C   0  0  0  0  0  0  0  0  0  0  0  0
    6.5917   -3.2917    0.0000 N   0  0  0  0  0  0  0  0  0  0  0  0
    0.8042   -2.8667    0.0000 C   0  0  0  0  0  0  0  0  0  0  0  0
    6.3542   -4.0167    0.0000 N   0  0  0  0  0  0  0  0  0  0  0  0
    7.3417   -3.2917    0.0000 N   0  0  0  0  0  0  0  0  0  0  0  0
   -0.3208   -2.9125    0.0000 C   0  0  0  0  0  0  0  0  0  0  0  0
    0.2417   -3.3167    0.0000 O   0  0  0  0  0  0  0  0  0  0  0  0
    2.5917   -3.2167    0.0000 C   0  0  0  0  0  0  0  0  0  0  0  0
   -0.1208   -2.2667    0.0000 O   0  0  0  0  0  0  0  0  0  0  0  0
    7.5417   -4.0417    0.0000 N   0  0  0  0  0  0  0  0  0  0  0  0
    0.5917   -2.2667    0.0000 C   0  0  0  0  0  0  0  0  0  0  0  0
    6.9417   -5.0542    0.0000 C   0  0  0  0  0  0  0  0  0  0  0  0
    2.7875   -1.8417    0.0000 C   0  0  0  0  0  0  0  0  0  0  0  0
    6.3042   -5.4167    0.0000 C   0  0  0  0  0  0  0  0  0  0  0  0
    3.7792   -3.9792    0.0000 C   0  0  0  0  0  0  0  0  0  0  0  0
    2.0042   -2.8667    0.0000 O   0  0  0  0  0  0  0  0  0  0  0  0
    1.4042   -3.2167    0.0000 C   0  0  0  0  0  0  0  0  0  0  0  0
    5.6667   -5.0667    0.0000 C   0  0  0  0  0  0  0  0  0  0  0  0
   -0.9958   -3.1333    0.0000 O   0  0  0  0  0  0  0  0  0  0  0  0
    2.5917   -3.9167    0.0000 O   0  0  0  0  0  0  0  0  0  0  0  0
    5.0292   -5.4417    0.0000 C   0  0  0  0  0  0  0  0  0  0  0  0
    5.6667   -4.3417    0.0000 C   0  0  0  0  0  0  0  0  0  0  0  0
    4.4042   -4.3417    0.0000 C   0  0  0  0  0  0  0  0  0  0  0  0
    2.1708   -2.1958    0.0000 O   0  0  0  0  0  0  0  0  0  0  0  0
    4.9667   -3.2292    0.0000 C   0  0  0  0  0  0  0  0  0  0  0  0
    5.0292   -3.9667    0.0000 C   0  0  0  0  0  0  0  0  0  0  0  0
    4.4042   -5.0667    0.0000 C   0  0  0  0  0  0  0  0  0  0  0  0
    1.0417   -1.7292    0.0000 C   0  0  0  0  0  0  0  0  0  0  0  0
    7.5542   -5.4167    0.0000 C   0  0  0  0  0  0  0  0  0  0  0  0
    6.3042   -6.1292    0.0000 C   0  0  0  0  0  0  0  0  0  0  0  0
    2.4292   -1.2250    0.0000 C   0  0  0  0  0  0  0  0  0  0  0  0
    3.1375   -1.2250    0.0000 C   0  0  0  0  0  0  0  0  0  0  0  0
    5.5417   -2.8667    0.0000 C   0  0  0  0  0  0  0  0  0  0  0  0
    7.5542   -6.1292    0.0000 C   0  0  0  0  0  0  0  0  0  0  0  0
    6.9417   -6.4917    0.0000 C   0  0  0  0  0  0  0  0  0  0  0  0
    5.5417   -2.1917    0.0000 C   0  0  0  0  0  0  0  0  0  0  0  0
  2  1  2  0
  3  1  1  0
  4  2  1  0
  5  3  1  0
  6 17  1  0
  7  9  1  0
  8 22  1  0
  9  6  2  0
 10 15  1  0
 11 12  1  0
 12  8  1  0
 13  1  1  0
 14 16  1  0
 15  6  1  0
 16  8  2  0
 17 19  1  0
 18  2  1  0
 19 23  1  0
 20  3  1  0
 21 13  1  0
 22 21  1  0
 23 27  2  0
 24 11  2  0
 25 13  2  0
 26 32  2  0
 27 31  1  0
 28 20  1  0
 29 18  1  0
 30  5  1  0
 31 28  2  0
 32 28  1  0
 33 16  1  0
 34 17  2  0
 35 19  2  0
 36 18  1  0
 37 18  1  0
 38 30  1  0
 39 40  2  0
 40 35  1  0
 41 38  1  0
  4  5  2  0
 23 26  1  0
 11 14  1  0
 39 34  1  0
  7 10  2  0
M  END
>  <Classification>  (18) 
1

>  <pchembl>  (18) 
5.7

>  <InChI_steorem>  (18) 
InChI=1S/C29H30N6O6/c1-5-8-23-30-25(29(3,4)38)24(27(36)39-16-22-17(2)40-28(37)41-22)35(23)15-18-11-13-19(14-12-18)20-9-6-7-10-21(20)26-31-33-34-32-26/h6-7,9-14,38H,5,8,15-16H2,1-4H3,(H,31,32,33,34)

>  <source>  (18) 
ChEMBL25

>  <source_id>  (18) 
25

>  <optional_reference>  (18) 
10.1093/toxsci/kft176

>  <optional_origin>  (18) 
None

>  <target>  (18) 
MRP3

$$$$

     RDKit          2D

 46 53  0  0  0  0  0  0  0  0999 V2000
   12.8538    3.3285    0.0000 C   0  0  0  0  0  0  0  0  0  0  0  0
   12.8538    2.5035    0.0000 O   0  0  0  0  0  0  0  0  0  0  0  0
   12.1394    2.0910    0.0000 C   0  0  0  0  0  0  0  0  0  0  0  0
   12.1394    1.2660    0.0000 C   0  0  0  0  0  0  0  0  0  0  0  0
   11.4249    0.8535    0.0000 C   0  0  0  0  0  0  0  0  0  0  0  0
   10.7104    1.2660    0.0000 C   0  0  0  0  0  0  0  0  0  0  0  0
   10.7104    2.0910    0.0000 C   0  0  0  0  0  0  0  0  0  0  0  0
    9.9960    2.5035    0.0000 O   0  0  0  0  0  0  0  0  0  0  0  0
    9.9960    3.3285    0.0000 C   0  0  0  0  0  0  0  0  0  0  0  0
   11.4249    2.5035    0.0000 C   0  0  0  0  0  0  0  0  0  0  0  0
   11.4249    3.3285    0.0000 O   0  0  0  0  0  0  0  0  0  0  0  0
   11.4249    0.0285    0.0000 C   0  0  0  0  0  0  0  0  0  0  0  0
   12.1394   -0.3840    0.0000 C   0  0  0  0  0  0  0  0  0  0  0  0
   12.1394   -1.2090    0.0000 C   0  0  0  0  0  0  0  0  0  0  0  0
   12.9240   -1.4639    0.0000 C   0  0  0  0  0  0  0  0  0  0  0  0
   13.4089   -0.7965    0.0000 O   0  0  0  0  0  0  0  0  0  0  0  0
   12.9240   -0.1291    0.0000 C   0  0  0  0  0  0  0  0  0  0  0  0
   13.1789    0.6556    0.0000 O   0  0  0  0  0  0  0  0  0  0  0  0
   11.4249   -1.6215    0.0000 C   0  0  0  0  0  0  0  0  0  0  0  0
   11.4249   -2.4465    0.0000 O   0  0  0  0  0  0  0  0  0  0  0  0
   10.7104   -1.2090    0.0000 C   0  0  0  0  0  0  0  0  0  0  0  0
    9.9960   -1.6215    0.0000 C   0  0  0  0  0  0  0  0  0  0  0  0
    9.2815   -1.2090    0.0000 C   0  0  0  0  0  0  0  0  0  0  0  0
    8.4969   -1.4639    0.0000 O   0  0  0  0  0  0  0  0  0  0  0  0
    8.0119   -0.7965    0.0000 C   0  0  0  0  0  0  0  0  0  0  0  0
    8.4969   -0.1291    0.0000 O   0  0  0  0  0  0  0  0  0  0  0  0
    9.2815   -0.3840    0.0000 C   0  0  0  0  0  0  0  0  0  0  0  0
    9.9960    0.0285    0.0000 C   0  0  0  0  0  0  0  0  0  0  0  0
   10.7104   -0.3840    0.0000 C   0  0  0  0  0  0  0  0  0  0  0  0
   12.1394   -2.8590    0.0000 C   0  0  0  0  0  0  0  0  0  0  0  0
   12.8538   -2.4465    0.0000 O   0  0  0  0  0  0  0  0  0  0  0  0
   13.5683   -2.8590    0.0000 C   0  0  0  0  0  0  0  0  0  0  0  0
   13.5683   -3.6840    0.0000 C   0  0  0  0  0  0  0  0  0  0  0  0
   12.8538   -4.0965    0.0000 C   0  0  0  0  0  0  0  0  0  0  0  0
   12.1394   -3.6840    0.0000 C   0  0  0  0  0  0  0  0  0  0  0  0
   14.2828   -2.4465    0.0000 C   0  0  0  0  0  0  0  0  0  0  0  0
   14.9972   -2.8590    0.0000 O   0  0  0  0  0  0  0  0  0  0  0  0
   12.8538   -4.9215    0.0000 O   0  0  0  0  0  0  0  0  0  0  0  0
   11.4249   -4.0965    0.0000 O   0  0  0  0  0  0  0  0  0  0  0  0
   14.2828   -4.0965    0.0000 O   0  0  0  0  0  0  0  0  0  0  0  0
   14.9972   -3.6840    0.0000 C   0  0  0  0  0  0  0  0  0  0  0  0
   15.7117   -4.0965    0.0000 C   0  0  0  0  0  0  0  0  0  0  0  0
   16.4654   -3.7610    0.0000 S   0  0  0  0  0  0  0  0  0  0  0  0
   17.0174   -4.3740    0.0000 C   0  0  0  0  0  0  0  0  0  0  0  0
   16.6049   -5.0885    0.0000 C   0  0  0  0  0  0  0  0  0  0  0  0
   15.7980   -4.9170    0.0000 C   0  0  0  0  0  0  0  0  0  0  0  0
  1  2  1  0
  2  3  1  0
  3  4  2  0
  4  5  1  0
  5  6  2  0
  6  7  1  0
  7  8  1  0
  8  9  1  0
  7 10  2  0
  3 10  1  0
 10 11  1  0
 12  5  1  0
 12 13  1  0
 13 14  1  0
 14 15  1  0
 15 16  1  0
 16 17  1  0
 13 17  1  0
 17 18  2  0
 14 19  1  0
 19 20  1  0
 19 21  1  0
 21 22  2  0
 22 23  1  0
 23 24  1  0
 24 25  1  0
 25 26  1  0
 26 27  1  0
 23 27  2  0
 27 28  1  0
 28 29  2  0
 12 29  1  0
 21 29  1  0
 31 32  1  0
 32 33  1  0
 33 34  1  0
 34 35  1  0
 30 31  1  0
 35 30  1  0
 36 37  1  0
 34 38  1  0
 35 39  1  0
 32 36  1  0
 30 20  1  0
 33 40  1  0
 40 41  1  0
 37 41  1  0
 41 42  1  0
 43 44  1  0
 44 45  2  0
 45 46  1  0
 42 43  1  0
 42 46  2  0
M  END
>  <Classification>  (19) 
0

>  <pchembl>  (19) 
4.69

>  <InChI_steorem>  (19) 
InChI=1S/C32H32O13S/c1-37-19-6-13(7-20(38-2)25(19)33)23-14-8-17-18(42-12-41-17)9-15(14)28(16-10-39-30(36)24(16)23)44-32-27(35)26(34)29-21(43-32)11-40-31(45-29)22-4-3-5-46-22/h3-9,16,21,23-24,26-29,31-35H,10-12H2,1-2H3

>  <source>  (19) 
ChEMBL25

>  <source_id>  (19) 
25

>  <optional_reference>  (19) 
10.1093/toxsci/kft176

>  <optional_origin>  (19) 
None

>  <target>  (19) 
MRP3

$$$$

     RDKit          2D

 34 36  0  0  0  0  0  0  0  0999 V2000
    0.2464   -0.1668    0.0000 C   0  0  0  0  0  0  0  0  0  0  0  0
    0.9608    0.2457    0.0000 C   0  0  0  0  0  0  0  0  0  0  0  0
    0.9608    1.0707    0.0000 C   0  0  0  0  0  0  0  0  0  0  0  0
    0.2464    1.4832    0.0000 C   0  0  0  0  0  0  0  0  0  0  0  0
   -0.4681    1.0707    0.0000 C   0  0  0  0  0  0  0  0  0  0  0  0
   -0.4681    0.2457    0.0000 C   0  0  0  0  0  0  0  0  0  0  0  0
   -1.1826    1.4832    0.0000 S   0  0  0  0  0  0  0  0  0  0  0  0
   -1.8970    1.8957    0.0000 N   0  0  0  0  0  0  0  0  0  0  0  0
   -1.5951    0.7687    0.0000 O   0  0  0  0  0  0  0  0  0  0  0  0
   -0.7701    2.1977    0.0000 O   0  0  0  0  0  0  0  0  0  0  0  0
   -2.6115    1.4832    0.0000 C   0  0  0  0  0  0  0  0  0  0  0  0
   -3.3260    1.8957    0.0000 N   0  0  0  0  0  0  0  0  0  0  0  0
   -2.6115    0.6582    0.0000 O   0  0  0  0  0  0  0  0  0  0  0  0
   -4.0405    1.4832    0.0000 C   0  0  0  0  0  0  0  0  0  0  0  0
   -4.7549    1.8957    0.0000 C   0  0  0  0  0  0  0  0  0  0  0  0
   -5.4694    1.4832    0.0000 C   0  0  0  0  0  0  0  0  0  0  0  0
   -5.4694    0.6582    0.0000 C   0  0  0  0  0  0  0  0  0  0  0  0
   -4.7549    0.2457    0.0000 C   0  0  0  0  0  0  0  0  0  0  0  0
   -4.0405    0.6582    0.0000 C   0  0  0  0  0  0  0  0  0  0  0  0
   -6.1839    0.2457    0.0000 C   0  0  0  0  0  0  0  0  0  0  0  0
    1.6753   -0.1668    0.0000 C   0  0  0  0  0  0  0  0  0  0  0  0
    2.3898    0.2457    0.0000 C   0  0  0  0  0  0  0  0  0  0  0  0
    3.1043   -0.1668    0.0000 N   0  0  0  0  0  0  0  0  0  0  0  0
    3.8187    0.2457    0.0000 C   0  0  0  0  0  0  0  0  0  0  0  0
    4.5332   -0.1668    0.0000 N   0  0  0  0  0  0  0  0  0  0  0  0
    3.8187    1.0707    0.0000 O   0  0  0  0  0  0  0  0  0  0  0  0
    5.2869    0.1688    0.0000 C   0  0  0  0  0  0  0  0  0  0  0  0
    5.8389   -0.4443    0.0000 C   0  0  0  0  0  0  0  0  0  0  0  0
    5.4264   -1.1588    0.0000 C   0  0  0  0  0  0  0  0  0  0  0  0
    4.6194   -0.9873    0.0000 C   0  0  0  0  0  0  0  0  0  0  0  0
    5.4584    0.9758    0.0000 O   0  0  0  0  0  0  0  0  0  0  0  0
    5.7620   -1.9125    0.0000 C   0  0  0  0  0  0  0  0  0  0  0  0
    6.6594   -0.3581    0.0000 C   0  0  0  0  0  0  0  0  0  0  0  0
    7.1443   -1.0255    0.0000 C   0  0  0  0  0  0  0  0  0  0  0  0
  7  9  2  0
 14 19  1  0
 15 16  1  0
 16 17  1  0
 17 18  1  0
 18 19  1  0
  4  5  2  0
 17 20  1  0
  7 10  2  0
  2 21  1  0
  2  3  2  0
 21 22  1  0
  8 11  1  0
 22 23  1  0
  5  6  1  0
 23 24  1  0
 11 12  1  0
 24 25  1  0
  6  1  2  0
 24 26  2  0
 25 27  1  0
 11 13  2  0
  1  2  1  0
 14 12  1  0
 14 15  1  0
 27 28  1  0
 28 29  2  0
 29 30  1  0
 30 25  1  0
  5  7  1  0
 27 31  2  0
  3  4  1  0
 29 32  1  0
  7  8  1  0
 28 33  1  0
 33 34  1  0
M  END
>  <Classification>  (20) 
1

>  <pchembl>  (20) 
5.19

>  <InChI_steorem>  (20) 
InChI=1S/C24H34N4O5S/c1-4-21-17(3)15-28(22(21)29)24(31)25-14-13-18-7-11-20(12-8-18)34(32,33)27-23(30)26-19-9-5-16(2)6-10-19/h7-8,11-12,16,19H,4-6,9-10,13-15H2,1-3H3,(H,25,31)(H2,26,27,30)

>  <source>  (20) 
ChEMBL25

>  <source_id>  (20) 
25

>  <optional_reference>  (20) 
10.1093/toxsci/kft176

>  <optional_origin>  (20) 
None

>  <target>  (20) 
MRP3

$$$$

     RDKit          2D

 33 34  0  0  0  0  0  0  0  0999 V2000
   -3.7780   -8.8881    0.0000 C   0  0  0  0  0  0  0  0  0  0  0  0
   -5.2061   -8.8881    0.0000 S   0  0  0  0  0  0  0  0  0  0  0  0
   -3.0640   -8.4780    0.0000 N   0  0  0  0  0  0  0  0  0  0  0  0
   -3.7780   -9.7227    0.0000 N   0  0  0  0  0  0  0  0  0  0  0  0
   -4.4920   -8.4780    0.0000 N   0  0  0  0  0  0  0  0  0  0  0  0
   -2.3500   -9.7227    0.0000 C   0  0  0  0  0  0  0  0  0  0  0  0
   -2.3500   -8.8881    0.0000 C   0  0  0  0  0  0  0  0  0  0  0  0
   -3.0640  -10.1328    0.0000 C   0  0  0  0  0  0  0  0  0  0  0  0
   -1.6311  -10.1328    0.0000 C   0  0  0  0  0  0  0  0  0  0  0  0
    2.6530  -10.1183    0.0000 C   0  0  0  0  0  0  0  0  0  0  0  0
    1.9390   -9.7035    0.0000 C   0  0  0  0  0  0  0  0  0  0  0  0
   -4.7960   -9.6021    0.0000 O   0  0  0  0  0  0  0  0  0  0  0  0
   -5.6210   -9.6021    0.0000 O   0  0  0  0  0  0  0  0  0  0  0  0
   -1.6408   -8.4732    0.0000 C   0  0  0  0  0  0  0  0  0  0  0  0
   -0.9219   -9.7179    0.0000 C   0  0  0  0  0  0  0  0  0  0  0  0
    3.3671   -9.6986    0.0000 O   0  0  0  0  0  0  0  0  0  0  0  0
    2.6579  -10.9433    0.0000 O   0  0  0  0  0  0  0  0  0  0  0  0
    1.2250  -10.1232    0.0000 C   0  0  0  0  0  0  0  0  0  0  0  0
    0.5062   -9.7082    0.0000 C   0  0  0  0  0  0  0  0  0  0  0  0
   -3.0592  -10.9578    0.0000 C   0  0  0  0  0  0  0  0  0  0  0  0
   -0.9267   -8.8832    0.0000 C   0  0  0  0  0  0  0  0  0  0  0  0
   -1.6456   -7.6530    0.0000 C   0  0  0  0  0  0  0  0  0  0  0  0
   -5.9249   -8.4780    0.0000 C   0  0  0  0  0  0  0  0  0  0  0  0
   -0.2175   -7.6482    0.0000 C   0  0  0  0  0  0  0  0  0  0  0  0
   -0.2079  -10.1279    0.0000 C   0  0  0  0  0  0  0  0  0  0  0  0
   -4.4920   -7.6530    0.0000 C   0  0  0  0  0  0  0  0  0  0  0  0
   -0.2175   -8.4732    0.0000 C   0  0  0  0  0  0  0  0  0  0  0  0
   -0.9412   -7.2332    0.0000 C   0  0  0  0  0  0  0  0  0  0  0  0
    0.4964   -7.2285    0.0000 F   0  0  0  0  0  0  0  0  0  0  0  0
    1.2250  -10.9482    0.0000 O   0  0  0  0  0  0  0  0  0  0  0  0
   -0.2030  -10.9529    0.0000 O   0  0  0  0  0  0  0  0  0  0  0  0
   -3.7732  -11.3726    0.0000 C   0  0  0  0  0  0  0  0  0  0  0  0
   -2.3451  -11.3726    0.0000 C   0  0  0  0  0  0  0  0  0  0  0  0
  2  5  1  0
  3  1  2  0
  4  1  1  0
  5  1  1  0
  6  7  2  0
  7  3  1  0
  8  4  2  0
  9  6  1  0
 10 11  1  0
 11 18  1  0
 12  2  2  0
 13  2  2  0
 14  7  1  0
 15  9  2  3
 16 10  1  0
 17 10  2  0
 18 19  1  0
 19 25  1  0
 20  8  1  0
 21 14  2  0
 22 14  1  0
 23  2  1  0
 24 28  1  0
 25 15  1  0
 26  5  1  0
 27 21  1  0
 28 22  2  0
 29 24  1  0
 18 30  1  0
 25 31  1  0
 32 20  1  0
 33 20  1  0
  6  8  1  0
 24 27  2  0
M  END
>  <Classification>  (21) 
0

>  <pchembl>  (21) 
4.23

>  <InChI_steorem>  (21) 
InChI=1S/C22H28FN3O6S/c1-13(2)20-18(10-9-16(27)11-17(28)12-19(29)30)21(14-5-7-15(23)8-6-14)25-22(24-20)26(3)33(4,31)32/h5-10,13,16-17,27-28H,11-12H2,1-4H3,(H,29,30)

>  <source>  (21) 
ChEMBL25

>  <source_id>  (21) 
25

>  <optional_reference>  (21) 
10.1093/toxsci/kft176

>  <optional_origin>  (21) 
None

>  <target>  (21) 
MRP3

$$$$

     RDKit          2D

 22 22  0  0  0  0  0  0  0  0999 V2000
    3.7565   -2.3374    0.0000 C   0  0  0  0  0  0  0  0  0  0  0  0
    3.7553   -3.1648    0.0000 C   0  0  0  0  0  0  0  0  0  0  0  0
    4.4728   -3.5777    0.0000 C   0  0  0  0  0  0  0  0  0  0  0  0
    5.1875   -3.1644    0.0000 C   0  0  0  0  0  0  0  0  0  0  0  0
    5.1843   -2.3333    0.0000 C   0  0  0  0  0  0  0  0  0  0  0  0
    4.4708   -1.9245    0.0000 C   0  0  0  0  0  0  0  0  0  0  0  0
    5.8997   -1.9178    0.0000 C   0  0  0  0  0  0  0  0  0  0  0  0
    6.6140   -2.3273    0.0000 C   0  0  0  0  0  0  0  0  0  0  0  0
    3.0438   -1.9250    0.0000 O   0  0  0  0  0  0  0  0  0  0  0  0
    3.0423   -3.5768    0.0000 O   0  0  0  0  0  0  0  0  0  0  0  0
    4.4734   -4.4059    0.0000 N   0  0  0  0  0  0  0  0  0  0  0  0
    3.7562   -4.8182    0.0000 O   0  0  0  0  0  0  0  0  0  0  0  0
    5.1858   -4.8186    0.0000 O   0  0  0  0  0  0  0  0  0  0  0  0
    7.3248   -1.9120    0.0000 C   0  0  0  0  0  0  0  0  0  0  0  0
    8.0436   -2.3215    0.0000 N   0  0  0  0  0  0  0  0  0  0  0  0
    7.3260   -1.0871    0.0000 O   0  0  0  0  0  0  0  0  0  0  0  0
    8.0470   -3.1465    0.0000 C   0  0  0  0  0  0  0  0  0  0  0  0
    8.7613   -3.5560    0.0000 C   0  0  0  0  0  0  0  0  0  0  0  0
    8.7545   -1.9061    0.0000 C   0  0  0  0  0  0  0  0  0  0  0  0
    9.4733   -2.3156    0.0000 C   0  0  0  0  0  0  0  0  0  0  0  0
    6.6174   -3.1523    0.0000 C   0  0  0  0  0  0  0  0  0  0  0  0
    6.6208   -3.9817    0.0000 N   0  0  0  0  0  0  0  0  0  0  0  0
  5  6  1  0
  6  1  2  0
 11 12  1  0
 11 13  2  0
  3 11  1  0
  1  2  1  0
  8 14  1  0
  5  7  1  0
 14 15  1  0
  3  4  1  0
 14 16  2  0
  7  8  2  3
 15 17  1  0
 17 18  1  0
  1  9  1  0
 15 19  1  0
  4  5  2  0
 19 20  1  0
  2 10  1  0
  2  3  2  0
  8 21  1  0
 21 22  3  0
M  CHG  2  11   1  12  -1
M  END
>  <Classification>  (22) 
0

>  <pchembl>  (22) 
4.46

>  <InChI_steorem>  (22) 
InChI=1S/C14H15N3O5/c1-3-16(4-2)14(20)10(8-15)5-9-6-11(17(21)22)13(19)12(18)7-9/h5-7,18-19H,3-4H2,1-2H3

>  <source>  (22) 
ChEMBL25

>  <source_id>  (22) 
25

>  <optional_reference>  (22) 
10.1093/toxsci/kft176

>  <optional_origin>  (22) 
None

>  <target>  (22) 
MRP3

$$$$

     RDKit          2D

 85 85  0  0  0  0  0  0  0  0999 V2000
    2.7490    9.6727    0.0000 C   0  0  0  0  0  0  0  0  0  0  0  0
    3.4920    8.7304    0.0000 C   0  0  0  0  0  0  0  0  0  0  0  0
    2.9324    7.3249    0.0000 C   0  0  0  0  0  0  0  0  0  0  0  0
    1.4932    7.7475    0.0000 N   0  0  0  0  0  0  0  0  0  0  0  0
    0.0000    7.8901    0.0000 C   0  0  0  0  0  0  0  0  0  0  0  0
    0.0000    9.0901    0.0000 O   0  0  0  0  0  0  0  0  0  0  0  0
   -1.4932    7.7475    0.0000 C   0  0  0  0  0  0  0  0  0  0  0  0
   -1.7775    9.2333    0.0000 C   0  0  0  0  0  0  0  0  0  0  0  0
   -0.8692   10.0176    0.0000 O   0  0  0  0  0  0  0  0  0  0  0  0
   -3.1947    9.7271    0.0000 C   0  0  0  0  0  0  0  0  0  0  0  0
   -4.1030    8.9428    0.0000 C   0  0  0  0  0  0  0  0  0  0  0  0
   -3.4767   11.2012    0.0000 C   0  0  0  0  0  0  0  0  0  0  0  0
   -4.8940   11.6949    0.0000 C   0  0  0  0  0  0  0  0  0  0  0  0
   -5.1760   13.1690    0.0000 C   0  0  0  0  0  0  0  0  0  0  0  0
   -6.3092   13.5638    0.0000 C   0  0  0  0  0  0  0  0  0  0  0  0
   -2.9325    7.3249    0.0000 N   0  0  0  0  0  0  0  0  0  0  0  0
   -3.3785    8.4389    0.0000 C   0  0  0  0  0  0  0  0  0  0  0  0
   -4.2657    6.6375    0.0000 C   0  0  0  0  0  0  0  0  0  0  0  0
   -4.9145    7.6470    0.0000 O   0  0  0  0  0  0  0  0  0  0  0  0
   -5.4448    5.7103    0.0000 C   0  0  0  0  0  0  0  0  0  0  0  0
   -6.4866    6.8071    0.0000 C   0  0  0  0  0  0  0  0  0  0  0  0
   -6.1470    7.9581    0.0000 C   0  0  0  0  0  0  0  0  0  0  0  0
   -7.6532    6.5261    0.0000 C   0  0  0  0  0  0  0  0  0  0  0  0
   -6.4271    4.5767    0.0000 N   0  0  0  0  0  0  0  0  0  0  0  0
   -7.4046    5.2727    0.0000 C   0  0  0  0  0  0  0  0  0  0  0  0
   -7.1771    3.2776    0.0000 C   0  0  0  0  0  0  0  0  0  0  0  0
   -8.2687    3.7761    0.0000 O   0  0  0  0  0  0  0  0  0  0  0  0
   -7.6677    1.8601    0.0000 C   0  0  0  0  0  0  0  0  0  0  0  0
   -9.1371    2.2196    0.0000 C   0  0  0  0  0  0  0  0  0  0  0  0
   -9.5580    3.6602    0.0000 C   0  0  0  0  0  0  0  0  0  0  0  0
  -10.7237    3.9454    0.0000 C   0  0  0  0  0  0  0  0  0  0  0  0
   -8.7285    4.5273    0.0000 C   0  0  0  0  0  0  0  0  0  0  0  0
   -7.8812    0.3754    0.0000 N   0  0  0  0  0  0  0  0  0  0  0  0
   -9.0798    0.4325    0.0000 C   0  0  0  0  0  0  0  0  0  0  0  0
   -7.8098   -1.1229    0.0000 C   0  0  0  0  0  0  0  0  0  0  0  0
   -8.9976   -1.2937    0.0000 O   0  0  0  0  0  0  0  0  0  0  0  0
   -7.4561   -2.5806    0.0000 C   0  0  0  0  0  0  0  0  0  0  0  0
   -8.8866   -3.0726    0.0000 C   0  0  0  0  0  0  0  0  0  0  0  0
  -10.0196   -2.0883    0.0000 C   0  0  0  0  0  0  0  0  0  0  0  0
  -11.1543   -2.4786    0.0000 C   0  0  0  0  0  0  0  0  0  0  0  0
   -9.7906   -0.9104    0.0000 C   0  0  0  0  0  0  0  0  0  0  0  0
   -6.8330   -3.9451    0.0000 N   0  0  0  0  0  0  0  0  0  0  0  0
   -7.8722   -4.5451    0.0000 C   0  0  0  0  0  0  0  0  0  0  0  0
   -5.9629   -5.1669    0.0000 C   0  0  0  0  0  0  0  0  0  0  0  0
   -6.8698   -5.9528    0.0000 O   0  0  0  0  0  0  0  0  0  0  0  0
   -4.8773   -6.2020    0.0000 C   0  0  0  0  0  0  0  0  0  0  0  0
   -5.6191   -7.1453    0.0000 C   0  0  0  0  0  0  0  0  0  0  0  0
   -3.6154   -7.0130    0.0000 N   0  0  0  0  0  0  0  0  0  0  0  0
   -2.2229   -7.5705    0.0000 C   0  0  0  0  0  0  0  0  0  0  0  0
   -2.5609   -8.7219    0.0000 O   0  0  0  0  0  0  0  0  0  0  0  0
   -0.7500   -7.8544    0.0000 C   0  0  0  0  0  0  0  0  0  0  0  0
   -0.8640   -9.0489    0.0000 C   0  0  0  0  0  0  0  0  0  0  0  0
    0.7500   -7.8544    0.0000 N   0  0  0  0  0  0  0  0  0  0  0  0
    2.2229   -7.5705    0.0000 C   0  0  0  0  0  0  0  0  0  0  0  0
    2.5610   -8.7219    0.0000 O   0  0  0  0  0  0  0  0  0  0  0  0
    3.6155   -7.0130    0.0000 C   0  0  0  0  0  0  0  0  0  0  0  0
    4.3061   -8.3589    0.0000 C   0  0  0  0  0  0  0  0  0  0  0  0
    3.4930   -9.6204    0.0000 C   0  0  0  0  0  0  0  0  0  0  0  0
    4.0408  -10.6881    0.0000 C   0  0  0  0  0  0  0  0  0  0  0  0
    2.2944   -9.5614    0.0000 C   0  0  0  0  0  0  0  0  0  0  0  0
    4.8773   -6.2020    0.0000 N   0  0  0  0  0  0  0  0  0  0  0  0
    5.6191   -7.1453    0.0000 C   0  0  0  0  0  0  0  0  0  0  0  0
    5.9629   -5.1669    0.0000 C   0  0  0  0  0  0  0  0  0  0  0  0
    6.8698   -5.9527    0.0000 O   0  0  0  0  0  0  0  0  0  0  0  0
    6.8330   -3.9450    0.0000 C   0  0  0  0  0  0  0  0  0  0  0  0
    7.4561   -2.5806    0.0000 N   0  0  0  0  0  0  0  0  0  0  0  0
    7.8098   -1.1229    0.0000 C   0  0  0  0  0  0  0  0  0  0  0  0
    8.9976   -1.2936    0.0000 O   0  0  0  0  0  0  0  0  0  0  0  0
    7.8812    0.3754    0.0000 C   0  0  0  0  0  0  0  0  0  0  0  0
    9.3923    0.4445    0.0000 C   0  0  0  0  0  0  0  0  0  0  0  0
   10.2021   -0.8191    0.0000 C   0  0  0  0  0  0  0  0  0  0  0  0
   11.4008   -0.7644    0.0000 C   0  0  0  0  0  0  0  0  0  0  0  0
    9.6505   -1.8848    0.0000 C   0  0  0  0  0  0  0  0  0  0  0  0
    7.6677    1.8602    0.0000 N   0  0  0  0  0  0  0  0  0  0  0  0
    8.8339    2.1431    0.0000 C   0  0  0  0  0  0  0  0  0  0  0  0
    7.1771    3.2777    0.0000 C   0  0  0  0  0  0  0  0  0  0  0  0
    8.2686    3.7762    0.0000 O   0  0  0  0  0  0  0  0  0  0  0  0
    6.4271    4.5767    0.0000 C   0  0  0  0  0  0  0  0  0  0  0  0
    5.4448    5.7103    0.0000 N   0  0  0  0  0  0  0  0  0  0  0  0
    6.2729    6.5788    0.0000 C   0  0  0  0  0  0  0  0  0  0  0  0
    4.2657    6.6376    0.0000 C   0  0  0  0  0  0  0  0  0  0  0  0
    4.9145    7.6471    0.0000 O   0  0  0  0  0  0  0  0  0  0  0  0
    8.1416   -4.7039    0.0000 C   0  0  0  0  0  0  0  0  0  0  0  0
    8.1401   -5.9039    0.0000 C   0  0  0  0  0  0  0  0  0  0  0  0
    9.1818   -4.1056    0.0000 C   0  0  0  0  0  0  0  0  0  0  0  0
  1  2  1  0
  3  2  1  0
  3  4  1  0
  4  5  1  0
  5  6  2  0
  7  5  1  0
  7  8  1  0
  8  9  1  0
  8 10  1  0
 10 11  1  0
 10 12  1  0
 12 13  1  0
 13 14  2  3
 14 15  1  0
  7 16  1  0
 16 17  1  0
 16 18  1  0
 18 19  2  0
 18 20  1  0
 20 21  1  0
 21 22  1  0
 21 23  1  0
 20 24  1  0
 24 25  1  0
 24 26  1  0
 26 27  2  0
 26 28  1  0
 28 29  1  0
 29 30  1  0
 30 31  1  0
 30 32  1  0
 28 33  1  0
 33 34  1  0
 33 35  1  0
 35 36  2  0
 35 37  1  0
 37 38  1  0
 38 39  1  0
 39 40  1  0
 39 41  1  0
 37 42  1  0
 42 43  1  0
 42 44  1  0
 44 45  2  0
 44 46  1  0
 46 47  1  0
 46 48  1  0
 48 49  1  0
 49 50  2  0
 49 51  1  0
 51 52  1  0
 51 53  1  0
 53 54  1  0
 54 55  2  0
 54 56  1  0
 56 57  1  0
 57 58  1  0
 58 59  1  0
 58 60  1  0
 56 61  1  0
 61 62  1  0
 61 63  1  0
 63 64  2  0
 63 65  1  0
 65 66  1  0
 66 67  1  0
 67 68  2  0
 67 69  1  0
 69 70  1  0
 70 71  1  0
 71 72  1  0
 71 73  1  0
 69 74  1  0
 74 75  1  0
 74 76  1  0
 76 77  2  0
 76 78  1  0
 78 79  1  0
 79 80  1  0
 79 81  1  0
 81  3  1  0
 81 82  2  0
 65 83  1  0
 83 84  1  0
 83 85  1  0
M  END
>  <Classification>  (23) 
0

>  <pchembl>  (23) 
4.64

>  <InChI_steorem>  (23) 
InChI=1S/C62H111N11O12/c1-25-27-28-40(15)52(75)51-56(79)65-43(26-2)58(81)67(18)33-48(74)68(19)44(29-34(3)4)55(78)66-49(38(11)12)61(84)69(20)45(30-35(5)6)54(77)63-41(16)53(76)64-42(17)57(80)70(21)46(31-36(7)8)59(82)71(22)47(32-37(9)10)60(83)72(23)50(39(13)14)62(85)73(51)24/h25,27,34-47,49-52,75H,26,28-33H2,1-24H3,(H,63,77)(H,64,76)(H,65,79)(H,66,78)

>  <source>  (23) 
ChEMBL25

>  <source_id>  (23) 
25

>  <optional_reference>  (23) 
10.1093/toxsci/kft176

>  <optional_origin>  (23) 
None

>  <target>  (23) 
MRP3

$$$$

     RDKit          2D

 25 27  0  0  0  0  0  0  0  0999 V2000
    2.5956   -2.7031    0.0000 C   0  0  0  0  0  0  0  0  0  0  0  0
    2.5973   -1.5031    0.0000 O   0  0  0  0  0  0  0  0  0  0  0  0
    1.2990   -0.7500    0.0000 C   0  0  0  0  0  0  0  0  0  0  0  0
    1.2990    0.7500    0.0000 C   0  0  0  0  0  0  0  0  0  0  0  0
    0.0000    1.5000    0.0000 C   0  0  0  0  0  0  0  0  0  0  0  0
   -1.2990    0.7500    0.0000 C   0  0  0  0  0  0  0  0  0  0  0  0
   -1.2990   -0.7500    0.0000 C   0  0  0  0  0  0  0  0  0  0  0  0
    0.0000   -1.5000    0.0000 C   0  0  0  0  0  0  0  0  0  0  0  0
   -2.7248   -1.2135    0.0000 C   0  0  0  0  0  0  0  0  0  0  0  0
   -3.1904   -2.6376    0.0000 C   0  0  0  0  0  0  0  0  0  0  0  0
   -4.6588   -2.9478    0.0000 C   0  0  0  0  0  0  0  0  0  0  0  0
   -5.0318   -4.0884    0.0000 O   0  0  0  0  0  0  0  0  0  0  0  0
   -5.4604   -2.0548    0.0000 O   0  0  0  0  0  0  0  0  0  0  0  0
   -3.6065    0.0000    0.0000 C   0  0  0  0  0  0  0  0  0  0  0  0
   -4.8065    0.0000    0.0000 C   0  0  0  0  0  0  0  0  0  0  0  0
   -2.7248    1.2135    0.0000 N   0  0  0  0  0  0  0  0  0  0  0  0
   -3.1905    2.6376    0.0000 C   0  0  0  0  0  0  0  0  0  0  0  0
   -2.3889    3.5306    0.0000 O   0  0  0  0  0  0  0  0  0  0  0  0
   -4.6589    2.9478    0.0000 C   0  0  0  0  0  0  0  0  0  0  0  0
   -5.1272    4.3728    0.0000 C   0  0  0  0  0  0  0  0  0  0  0  0
   -6.5954    4.6799    0.0000 C   0  0  0  0  0  0  0  0  0  0  0  0
   -7.5954    3.5619    0.0000 C   0  0  0  0  0  0  0  0  0  0  0  0
   -8.7700    3.8075    0.0000 Cl  0  0  0  0  0  0  0  0  0  0  0  0
   -7.1272    2.1368    0.0000 C   0  0  0  0  0  0  0  0  0  0  0  0
   -5.6590    1.8298    0.0000 C   0  0  0  0  0  0  0  0  0  0  0  0
  1  2  1  0
  2  3  1  0
  3  4  2  0
  4  5  1  0
  5  6  2  0
  6  7  1  0
  7  8  2  0
  8  3  1  0
  7  9  1  0
  9 10  1  0
 10 11  1  0
 11 12  2  0
 11 13  1  0
  9 14  2  0
 14 15  1  0
 14 16  1  0
 16  6  1  0
 16 17  1  0
 17 18  2  0
 17 19  1  0
 19 20  2  0
 20 21  1  0
 21 22  2  0
 22 23  1  0
 22 24  1  0
 24 25  2  0
 25 19  1  0
M  END
>  <Classification>  (24) 
0

>  <pchembl>  (24) 
4.18

>  <InChI_steorem>  (24) 
InChI=1S/C19H16ClNO4/c1-11-15(10-18(22)23)16-9-14(25-2)7-8-17(16)21(11)19(24)12-3-5-13(20)6-4-12/h3-9H,10H2,1-2H3,(H,22,23)

>  <source>  (24) 
ChEMBL25

>  <source_id>  (24) 
25

>  <optional_reference>  (24) 
10.1093/toxsci/kft176

>  <optional_origin>  (24) 
None

>  <target>  (24) 
MRP3

$$$$

     RDKit          2D

 68 71  0  0  0  0  0  0  0  0999 V2000
   14.9835  -12.6841    0.0000 C   0  0  0  0  0  0  0  0  0  0  0  0
   14.9835  -13.5139    0.0000 C   0  0  0  0  0  0  0  0  0  0  0  0
   15.7010  -12.2741    0.0000 C   0  0  0  0  0  0  0  0  0  0  0  0
   15.7010  -11.4491    0.0000 N   0  0  0  0  0  0  0  0  0  0  0  0
   17.1264  -11.4394    0.0000 C   0  0  0  0  0  0  0  0  0  0  0  0
   21.4122  -12.2692    0.0000 C   0  0  0  0  0  0  0  0  0  0  0  0
   17.8391  -11.0294    0.0000 O   0  0  0  0  0  0  0  0  0  0  0  0
   22.1298  -12.6841    0.0000 C   0  0  0  0  0  0  0  0  0  0  0  0
   20.6996  -11.0294    0.0000 C   0  0  0  0  0  0  0  0  0  0  0  0
   16.4089  -11.0294    0.0000 C   0  0  0  0  0  0  0  0  0  0  0  0
   15.6913  -13.9240    0.0000 O   0  0  0  0  0  0  0  0  0  0  0  0
   21.4122  -11.4394    0.0000 C   0  0  0  0  0  0  0  0  0  0  0  0
   20.6996  -10.2093    0.0000 C   0  0  0  0  0  0  0  0  0  0  0  0
   17.8391  -10.2093    0.0000 C   0  0  0  0  0  0  0  0  0  0  0  0
   19.2742  -10.2093    0.0000 C   0  0  0  0  0  0  0  0  0  0  0  0
   18.5469   -9.7943    0.0000 C   0  0  0  0  0  0  0  0  0  0  0  0
   22.1201  -13.5139    0.0000 C   0  0  0  0  0  0  0  0  0  0  0  0
   19.9820   -9.7943    0.0000 C   0  0  0  0  0  0  0  0  0  0  0  0
   17.8391  -15.1590    0.0000 C   0  0  0  0  0  0  0  0  0  0  0  0
   17.1264  -14.7441    0.0000 C   0  0  0  0  0  0  0  0  0  0  0  0
   14.2708  -12.2741    0.0000 O   0  0  0  0  0  0  0  0  0  0  0  0
   14.2708  -13.9240    0.0000 C   0  0  0  0  0  0  0  0  0  0  0  0
   16.4089  -15.1590    0.0000 C   0  0  0  0  0  0  0  0  0  0  0  0
   16.4089  -12.6841    0.0000 O   0  0  0  0  0  0  0  0  0  0  0  0
   15.6913  -14.7490    0.0000 C   0  0  0  0  0  0  0  0  0  0  0  0
   17.1264  -12.2692    0.0000 O   0  0  0  0  0  0  0  0  0  0  0  0
   14.9835   -8.5545    0.0000 C   0  0  0  0  0  0  0  0  0  0  0  0
   17.1264   -9.7943    0.0000 C   0  0  0  0  0  0  0  0  0  0  0  0
   22.8376  -12.2692    0.0000 O   0  0  0  0  0  0  0  0  0  0  0  0
   18.5469  -14.7441    0.0000 C   0  0  0  0  0  0  0  0  0  0  0  0
   14.9737  -14.3389    0.0000 O   0  0  0  0  0  0  0  0  0  0  0  0
   22.8327  -13.9240    0.0000 C   0  0  0  0  0  0  0  0  0  0  0  0
   15.6913   -8.9645    0.0000 C   0  0  0  0  0  0  0  0  0  0  0  0
   19.2742  -11.0294    0.0000 O   0  0  0  0  0  0  0  0  0  0  0  0
   17.1264   -8.9645    0.0000 C   0  0  0  0  0  0  0  0  0  0  0  0
   14.9835   -7.7295    0.0000 C   0  0  0  0  0  0  0  0  0  0  0  0
   19.2645  -15.1590    0.0000 C   0  0  0  0  0  0  0  0  0  0  0  0
   16.4089   -8.5545    0.0000 C   0  0  0  0  0  0  0  0  0  0  0  0
   19.9820  -14.7441    0.0000 C   0  0  0  0  0  0  0  0  0  0  0  0
   20.6996  -15.1590    0.0000 C   0  0  0  0  0  0  0  0  0  0  0  0
   21.4122  -14.7441    0.0000 C   0  0  0  0  0  0  0  0  0  0  0  0
   14.2708  -14.7490    0.0000 C   0  0  0  0  0  0  0  0  0  0  0  0
   15.7010   -7.3097    0.0000 C   0  0  0  0  0  0  0  0  0  0  0  0
   20.6996  -12.6841    0.0000 O   0  0  0  0  0  0  0  0  0  0  0  0
   14.9835  -11.0294    0.0000 C   0  0  0  0  0  0  0  0  0  0  0  0
   22.1298  -11.0294    0.0000 O   0  0  0  0  0  0  0  0  0  0  0  0
   14.9835  -15.1590    0.0000 C   0  0  0  0  0  0  0  0  0  0  0  0
   22.8620  -14.7733    0.0000 C   0  0  0  0  0  0  0  0  0  0  0  0
   16.4089   -7.7295    0.0000 C   0  0  0  0  0  0  0  0  0  0  0  0
   17.1264  -13.9143    0.0000 O   0  0  0  0  0  0  0  0  0  0  0  0
   14.2659   -8.9596    0.0000 O   0  0  0  0  0  0  0  0  0  0  0  0
   19.9820  -11.4394    0.0000 C   0  0  0  0  0  0  0  0  0  0  0  0
   14.2708   -7.3097    0.0000 O   0  0  0  0  0  0  0  0  0  0  0  0
   16.4089  -10.2093    0.0000 C   0  0  0  0  0  0  0  0  0  0  0  0
   12.1279   -7.7198    0.0000 O   0  0  0  0  0  0  0  0  0  0  0  0
   17.8391  -15.9791    0.0000 C   0  0  0  0  0  0  0  0  0  0  0  0
   21.4122  -13.9143    0.0000 C   0  0  0  0  0  0  0  0  0  0  0  0
   19.9820   -8.9645    0.0000 C   0  0  0  0  0  0  0  0  0  0  0  0
   17.1215  -10.6193    0.0000 C   0  0  0  0  0  0  0  0  0  0  0  0
   13.5533  -13.5139    0.0000 C   0  0  0  0  0  0  0  0  0  0  0  0
   12.8357   -7.3048    0.0000 C   0  0  0  0  0  0  0  0  0  0  0  0
   13.5533   -7.7198    0.0000 C   0  0  0  0  0  0  0  0  0  0  0  0
   19.9820  -12.2692    0.0000 C   0  0  0  0  0  0  0  0  0  0  0  0
   17.8391  -13.5042    0.0000 C   0  0  0  0  0  0  0  0  0  0  0  0
   13.5533   -8.5496    0.0000 C   0  0  0  0  0  0  0  0  0  0  0  0
   23.5796  -15.1883    0.0000 C   0  0  0  0  0  0  0  0  0  0  0  0
   14.9884  -10.2093    0.0000 C   0  0  0  0  0  0  0  0  0  0  0  0
   15.7010   -9.7943    0.0000 C   0  0  0  0  0  0  0  0  0  0  0  0
  2  1  1  0
  3  1  1  0
  4  3  1  0
 10  5  1  0
  6 12  1  0
  7  5  1  0
  8  6  1  0
  9 13  2  0
 10  4  1  0
 11  2  1  0
 12  9  1  0
 13 18  1  0
 14  7  1  0
 15 16  1  0
 16 14  1  0
 17 32  1  0
 18 15  1  0
 19 20  1  0
 20 23  1  0
 21  1  2  0
 22  2  1  0
 23 25  1  0
 24  3  2  0
 25 11  1  0
 26  5  2  0
 27 33  1  0
 28 14  1  0
 29  8  2  0
 30 19  2  0
  2 31  1  0
 32 48  1  0
 33 38  1  0
 34 15  2  0
 35 28  1  0
 36 43  1  0
 37 30  1  0
 38 35  1  0
 39 37  2  0
 40 39  1  0
 41 40  2  0
 42 22  1  0
 43 49  1  0
  6 44  1  0
 45  4  1  0
 12 46  1  0
 47 42  1  0
 48 41  1  0
 49 38  1  0
 20 50  1  0
 27 51  1  0
 52  9  1  0
 36 53  1  0
 54 10  1  0
 55 61  1  0
 56 19  1  0
 17 57  1  0
 18 58  1  0
 28 59  1  0
 22 60  1  0
 61 62  1  0
 62 53  1  0
 63 44  1  0
 64 50  1  0
 65 51  1  0
 48 66  1  0
 67 45  1  0
 68 67  1  0
 25 47  1  0
 54 68  1  0
 27 36  1  0
  8 17  1  0
M  END
>  <Classification>  (25) 
0

>  <pchembl>  (25) 
4.08

>  <InChI_steorem>  (25) 
InChI=1S/C53H83NO14/c1-32-16-12-11-13-17-33(2)44(63-8)30-40-21-19-38(7)53(62,68-40)50(59)51(60)54-23-15-14-18-41(54)52(61)67-45(35(4)28-39-20-22-43(66-25-24-55)46(29-39)64-9)31-42(56)34(3)27-37(6)48(58)49(65-10)47(57)36(5)26-32/h11-13,16-17,27,32,34-36,38-41,43-46,48-49,55,58,62H,14-15,18-26,28-31H2,1-10H3

>  <source>  (25) 
ChEMBL25

>  <source_id>  (25) 
25

>  <optional_reference>  (25) 
10.1093/toxsci/kft176

>  <optional_origin>  (25) 
None

>  <target>  (25) 
MRP3

$$$$

     RDKit          2D

 27 28  0  0  0  0  0  0  0  0999 V2000
   -2.4458   -0.2375    0.0000 C   0  0  0  0  0  0  0  0  0  0  0  0
   -2.1500    0.7500    0.0000 C   0  0  0  0  0  0  0  0  0  0  0  0
   -1.1833    1.0958    0.0000 N   0  0  0  0  0  0  0  0  0  0  0  0
   -0.0500    2.4458    0.0000 C   0  0  0  0  0  0  0  0  0  0  0  0
    0.1292   -1.2292    0.0000 C   0  0  0  0  0  0  0  0  0  0  0  0
   -0.7583   -0.7167    0.0000 S   0  0  0  0  0  0  0  0  0  0  0  0
   -3.4458   -0.4792    0.0000 C   0  0  0  0  0  0  0  0  0  0  0  0
   -1.7250   -0.9792    0.0000 C   0  0  0  0  0  0  0  0  0  0  0  0
   -2.8083    1.5958    0.0000 O   0  0  0  0  0  0  0  0  0  0  0  0
   -0.0500    3.4583    0.0000 O   0  0  0  0  0  0  0  0  0  0  0  0
    1.0167   -0.7167    0.0000 O   0  0  0  0  0  0  0  0  0  0  0  0
    0.7917    1.8500    0.0000 O   0  0  0  0  0  0  0  0  0  0  0  0
   -0.9958    2.1083    0.0000 C   0  0  0  0  0  0  0  0  0  0  0  0
    1.7292    2.2833    0.0000 C   0  0  0  0  0  0  0  0  0  0  0  0
   -3.4458   -1.5125    0.0000 C   0  0  0  0  0  0  0  0  0  0  0  0
    2.5667    1.6875    0.0000 C   0  0  0  0  0  0  0  0  0  0  0  0
    0.1292   -2.2542    0.0000 C   0  0  0  0  0  0  0  0  0  0  0  0
   -2.5583   -2.0292    0.0000 C   0  0  0  0  0  0  0  0  0  0  0  0
   -4.3458   -2.0167    0.0000 C   0  0  0  0  0  0  0  0  0  0  0  0
    2.4750    0.6625    0.0000 C   0  0  0  0  0  0  0  0  0  0  0  0
    3.5000    2.1208    0.0000 C   0  0  0  0  0  0  0  0  0  0  0  0
   -2.5708   -3.0542    0.0000 C   0  0  0  0  0  0  0  0  0  0  0  0
   -4.3458   -3.0417    0.0000 C   0  0  0  0  0  0  0  0  0  0  0  0
    3.3042    0.0708    0.0000 C   0  0  0  0  0  0  0  0  0  0  0  0
    4.3417    1.5208    0.0000 C   0  0  0  0  0  0  0  0  0  0  0  0
   -3.4625   -3.5667    0.0000 C   0  0  0  0  0  0  0  0  0  0  0  0
    4.2417    0.4958    0.0000 C   0  0  0  0  0  0  0  0  0  0  0  0
  2  1  1  0
  3  2  1  0
  4 13  1  0
  5  6  1  0
  6  8  1  0
  7  1  1  0
  8  1  1  0
  9  2  2  0
 10  4  2  0
 11  5  2  0
 12  4  1  0
 13  3  1  0
 14 12  1  0
 15  7  1  0
 16 14  1  0
 17  5  1  0
 18 15  2  0
 19 15  1  0
 20 16  2  0
 21 16  1  0
 22 18  1  0
 23 19  2  0
 24 20  1  0
 25 21  2  0
 26 23  1  0
 27 25  1  0
 22 26  2  0
 24 27  2  0
M  END
>  <Classification>  (26) 
0

>  <pchembl>  (26) 
4.0

>  <InChI_steorem>  (26) 
InChI=1S/C21H23NO4S/c1-16(23)27-15-19(12-17-8-4-2-5-9-17)21(25)22-13-20(24)26-14-18-10-6-3-7-11-18/h2-11,19H,12-15H2,1H3,(H,22,25)

>  <source>  (26) 
ChEMBL25

>  <source_id>  (26) 
25

>  <optional_reference>  (26) 
10.1093/toxsci/kft176

>  <optional_origin>  (26) 
None

>  <target>  (26) 
MRP3

$$$$

     RDKit          2D

 19 19  0  0  0  0  0  0  0  0999 V2000
    2.0583   -8.8958    0.0000 C   0  0  0  0  0  0  0  0  0  0  0  0
    2.6708   -9.2500    0.0000 C   0  0  0  0  0  0  0  0  0  0  0  0
    1.4458   -9.2500    0.0000 C   0  0  0  0  0  0  0  0  0  0  0  0
    3.2833   -8.8958    0.0000 C   0  0  0  0  0  0  0  0  0  0  0  0
    2.0583   -8.1875    0.0000 C   0  0  0  0  0  0  0  0  0  0  0  0
    0.8292   -8.8958    0.0000 C   0  0  0  0  0  0  0  0  0  0  0  0
    3.2833   -8.1833    0.0000 C   0  0  0  0  0  0  0  0  0  0  0  0
    5.1208   -7.8208    0.0000 C   0  0  0  0  0  0  0  0  0  0  0  0
    1.4458   -9.9583    0.0000 O   0  0  0  0  0  0  0  0  0  0  0  0
    3.8958   -7.8250    0.0000 O   0  0  0  0  0  0  0  0  0  0  0  0
    5.7375   -8.1750    0.0000 O   0  0  0  0  0  0  0  0  0  0  0  0
    2.6708   -7.8292    0.0000 C   0  0  0  0  0  0  0  0  0  0  0  0
    5.1208   -7.1125    0.0000 O   0  0  0  0  0  0  0  0  0  0  0  0
    2.6750   -9.9583    0.0000 Cl  0  0  0  0  0  0  0  0  0  0  0  0
    3.9000   -9.2500    0.0000 Cl  0  0  0  0  0  0  0  0  0  0  0  0
    0.8333   -8.1875    0.0000 C   0  0  0  0  0  0  0  0  0  0  0  0
    4.5083   -8.1792    0.0000 C   0  0  0  0  0  0  0  0  0  0  0  0
    0.2167   -9.2500    0.0000 C   0  0  0  0  0  0  0  0  0  0  0  0
   -0.3958   -8.8958    0.0000 C   0  0  0  0  0  0  0  0  0  0  0  0
  2  1  2  0
  3  1  1  0
  4  2  1  0
  5  1  1  0
  6  3  1  0
  7  4  2  0
  8 17  1  0
  9  3  2  0
 10  7  1  0
 11  8  1  0
 12  5  2  0
 13  8  2  0
 14  2  1  0
 15  4  1  0
 16  6  2  0
 17 10  1  0
 18  6  1  0
 19 18  1  0
 12  7  1  0
M  END
>  <Classification>  (27) 
0

>  <pchembl>  (27) 
4.02

>  <InChI_steorem>  (27) 
InChI=1S/C13H12Cl2O4/c1-3-7(2)13(18)8-4-5-9(12(15)11(8)14)19-6-10(16)17/h4-5H,2-3,6H2,1H3,(H,16,17)

>  <source>  (27) 
ChEMBL25

>  <source_id>  (27) 
25

>  <optional_reference>  (27) 
10.1093/toxsci/kft176

>  <optional_origin>  (27) 
None

>  <target>  (27) 
MRP3

$$$$

     RDKit          2D

 28 30  0  0  0  0  0  0  0  0999 V2000
   -2.5976   -2.4851    0.0000 C   0  0  0  0  0  0  0  0  0  0  0  0
   -1.8831   -2.8976    0.0000 C   0  0  0  0  0  0  0  0  0  0  0  0
   -1.8831   -3.7226    0.0000 C   0  0  0  0  0  0  0  0  0  0  0  0
   -2.5976   -4.1351    0.0000 C   0  0  0  0  0  0  0  0  0  0  0  0
   -3.3121   -3.7226    0.0000 C   0  0  0  0  0  0  0  0  0  0  0  0
   -3.3121   -2.8976    0.0000 N   0  0  0  0  0  0  0  0  0  0  0  0
   -2.5976   -1.6601    0.0000 N   0  0  0  0  0  0  0  0  0  0  0  0
   -1.8831   -1.2476    0.0000 S   0  0  0  0  0  0  0  0  0  0  0  0
   -1.4706   -1.9621    0.0000 O   0  0  0  0  0  0  0  0  0  0  0  0
   -2.2956   -0.5331    0.0000 O   0  0  0  0  0  0  0  0  0  0  0  0
   -1.1687   -0.8351    0.0000 C   0  0  0  0  0  0  0  0  0  0  0  0
   -1.1687   -0.0101    0.0000 C   0  0  0  0  0  0  0  0  0  0  0  0
   -0.4542    0.4024    0.0000 C   0  0  0  0  0  0  0  0  0  0  0  0
    0.2603   -0.0101    0.0000 C   0  0  0  0  0  0  0  0  0  0  0  0
    0.2603   -0.8351    0.0000 C   0  0  0  0  0  0  0  0  0  0  0  0
   -0.4542   -1.2476    0.0000 C   0  0  0  0  0  0  0  0  0  0  0  0
    0.9748    0.4024    0.0000 N   0  0  0  0  0  0  0  0  0  0  0  0
    0.9748    1.2274    0.0000 N   0  0  0  0  0  0  0  0  0  0  0  0
    1.6892    1.6399    0.0000 C   0  0  0  0  0  0  0  0  0  0  0  0
    1.6892    2.4649    0.0000 C   0  0  0  0  0  0  0  0  0  0  0  0
    2.4037    2.8774    0.0000 C   0  0  0  0  0  0  0  0  0  0  0  0
    3.1182    2.4649    0.0000 C   0  0  0  0  0  0  0  0  0  0  0  0
    3.1182    1.6399    0.0000 C   0  0  0  0  0  0  0  0  0  0  0  0
    2.4037    1.2274    0.0000 C   0  0  0  0  0  0  0  0  0  0  0  0
    2.4037    3.7024    0.0000 C   0  0  0  0  0  0  0  0  0  0  0  0
    3.8326    2.8774    0.0000 O   0  0  0  0  0  0  0  0  0  0  0  0
    3.1182    4.1149    0.0000 O   0  0  0  0  0  0  0  0  0  0  0  0
    1.6892    4.1149    0.0000 O   0  0  0  0  0  0  0  0  0  0  0  0
  1  2  2  0
  1  6  1  0
  1  7  1  0
  2  3  1  0
  3  4  2  0
  4  5  1  0
  5  6  2  0
  7  8  1  0
  9  8  2  0
 10  8  2  0
 11  8  1  0
 11 12  2  0
 16 11  1  0
 12 13  1  0
 13 14  2  0
 15 14  1  0
 14 17  1  0
 15 16  2  0
 17 18  2  3
 19 18  1  0
 19 20  2  0
 19 24  1  0
 20 21  1  0
 21 22  2  0
 21 25  1  0
 22 23  1  0
 22 26  1  0
 23 24  2  0
 25 27  2  0
 25 28  1  0
M  END
>  <Classification>  (28) 
0

>  <pchembl>  (28) 
4.84

>  <InChI_steorem>  (28) 
InChI=1S/C18H14N4O5S/c23-16-9-6-13(11-15(16)18(24)25)21-20-12-4-7-14(8-5-12)28(26,27)22-17-3-1-2-10-19-17/h1-11,23H,(H,19,22)(H,24,25)

>  <source>  (28) 
ChEMBL25

>  <source_id>  (28) 
25

>  <optional_reference>  (28) 
10.1093/toxsci/kft176

>  <optional_origin>  (28) 
None

>  <target>  (28) 
MRP3

$$$$

     RDKit          2D

 29 32  0  0  0  0  0  0  0  0999 V2000
    2.2688    2.5045    0.0000 C   0  0  0  0  0  0  0  0  0  0  0  0
    1.5543    2.0920    0.0000 C   0  0  0  0  0  0  0  0  0  0  0  0
    1.5543    1.2670    0.0000 C   0  0  0  0  0  0  0  0  0  0  0  0
    2.2688    0.8545    0.0000 C   0  0  0  0  0  0  0  0  0  0  0  0
    2.9833    1.2670    0.0000 C   0  0  0  0  0  0  0  0  0  0  0  0
    2.9833    2.0920    0.0000 C   0  0  0  0  0  0  0  0  0  0  0  0
    3.7678    1.0120    0.0000 O   0  0  0  0  0  0  0  0  0  0  0  0
    4.2528    1.6795    0.0000 C   0  0  0  0  0  0  0  0  0  0  0  0
    3.7679    2.3469    0.0000 O   0  0  0  0  0  0  0  0  0  0  0  0
    0.8398    2.5045    0.0000 C   0  0  0  0  0  0  0  0  0  0  0  0
    0.8398    0.8545    0.0000 C   0  0  0  0  0  0  0  0  0  0  0  0
    0.1253    1.2670    0.0000 C   0  0  0  0  0  0  0  0  0  0  0  0
   -0.5892    0.8545    0.0000 C   0  0  0  0  0  0  0  0  0  0  0  0
    0.1253    2.0920    0.0000 O   0  0  0  0  0  0  0  0  0  0  0  0
   -1.3428    1.1900    0.0000 S   0  0  0  0  0  0  0  0  0  0  0  0
   -1.8948    0.5769    0.0000 C   0  0  0  0  0  0  0  0  0  0  0  0
   -1.4823   -0.1375    0.0000 C   0  0  0  0  0  0  0  0  0  0  0  0
   -0.6754    0.0340    0.0000 C   0  0  0  0  0  0  0  0  0  0  0  0
   -0.0623   -0.5181    0.0000 S   0  0  0  0  0  0  0  0  0  0  0  0
    0.5210   -1.1014    0.0000 N   0  0  0  0  0  0  0  0  0  0  0  0
    0.5056    0.0804    0.0000 O   0  0  0  0  0  0  0  0  0  0  0  0
   -0.6302   -1.1165    0.0000 O   0  0  0  0  0  0  0  0  0  0  0  0
    1.3460   -1.1014    0.0000 C   0  0  0  0  0  0  0  0  0  0  0  0
    1.8310   -1.7689    0.0000 C   0  0  0  0  0  0  0  0  0  0  0  0
    2.6156   -1.5139    0.0000 C   0  0  0  0  0  0  0  0  0  0  0  0
    2.6156   -0.6889    0.0000 N   0  0  0  0  0  0  0  0  0  0  0  0
    1.8310   -0.4340    0.0000 O   0  0  0  0  0  0  0  0  0  0  0  0
    3.2830   -1.9988    0.0000 C   0  0  0  0  0  0  0  0  0  0  0  0
    1.5760   -2.5535    0.0000 Cl  0  0  0  0  0  0  0  0  0  0  0  0
  1  2  2  0
  1  6  1  0
  2  3  1  0
  3  4  2  0
  4  5  1  0
  6  9  1  0
  6  5  2  0
  5  7  1  0
  7  8  1  0
  8  9  1  0
  2 10  1  0
  3 11  1  0
 11 12  1  0
 12 13  1  0
 12 14  2  0
 13 15  1  0
 13 18  2  0
 15 16  1  0
 16 17  2  0
 17 18  1  0
 18 19  1  0
 19 20  1  0
 19 21  2  0
 19 22  2  0
 20 23  1  0
 23 24  2  0
 23 27  1  0
 24 25  1  0
 25 26  2  0
 26 27  1  0
 25 28  1  0
 24 29  1  0
M  END
>  <Classification>  (29) 
0

>  <pchembl>  (29) 
4.34

>  <InChI_steorem>  (29) 
InChI=1S/C18H15ClN2O6S2/c1-9-5-13-14(26-8-25-13)7-11(9)6-12(22)17-15(3-4-28-17)29(23,24)21-18-16(19)10(2)20-27-18/h3-5,7,21H,6,8H2,1-2H3

>  <source>  (29) 
ChEMBL25

>  <source_id>  (29) 
25

>  <optional_reference>  (29) 
10.1093/toxsci/kft176

>  <optional_origin>  (29) 
None

>  <target>  (29) 
MRP3

$$$$

     RDKit          2D

 30 32  0  0  0  0  0  0  0  0999 V2000
    3.2292   -4.5292    0.0000 N   0  0  0  0  0  0  0  0  0  0  0  0
    2.6125   -4.1042    0.0000 C   0  0  0  0  0  0  0  0  0  0  0  0
    3.5667   -3.4042    0.0000 N   0  0  0  0  0  0  0  0  0  0  0  0
    1.3792   -4.1167    0.0000 C   0  0  0  0  0  0  0  0  0  0  0  0
    2.0000   -4.4792    0.0000 C   0  0  0  0  0  0  0  0  0  0  0  0
    3.7667   -4.0792    0.0000 C   0  0  0  0  0  0  0  0  0  0  0  0
    2.8167   -3.4042    0.0000 C   0  0  0  0  0  0  0  0  0  0  0  0
    0.7750   -4.4875    0.0000 C   0  0  0  0  0  0  0  0  0  0  0  0
    5.6792   -6.5750    0.0000 C   0  0  0  0  0  0  0  0  0  0  0  0
    0.7542   -3.0375    0.0000 C   0  0  0  0  0  0  0  0  0  0  0  0
    0.1667   -3.4417    0.0000 S   0  0  0  0  0  0  0  0  0  0  0  0
    3.2292   -5.1792    0.0000 C   0  0  0  0  0  0  0  0  0  0  0  0
    1.3667   -3.3875    0.0000 C   0  0  0  0  0  0  0  0  0  0  0  0
    5.0875   -6.2292    0.0000 C   0  0  0  0  0  0  0  0  0  0  0  0
   -0.3958   -3.0542    0.0000 C   0  0  0  0  0  0  0  0  0  0  0  0
    0.7792   -5.1792    0.0000 O   0  0  0  0  0  0  0  0  0  0  0  0
    0.4917   -2.3667    0.0000 C   0  0  0  0  0  0  0  0  0  0  0  0
    5.6792   -7.2792    0.0000 O   0  0  0  0  0  0  0  0  0  0  0  0
   -0.1833   -2.3750    0.0000 C   0  0  0  0  0  0  0  0  0  0  0  0
    4.4667   -6.5917    0.0000 C   0  0  0  0  0  0  0  0  0  0  0  0
    5.0875   -5.5292    0.0000 C   0  0  0  0  0  0  0  0  0  0  0  0
    3.8417   -5.5292    0.0000 C   0  0  0  0  0  0  0  0  0  0  0  0
    0.1542   -4.1417    0.0000 O   0  0  0  0  0  0  0  0  0  0  0  0
    6.3042   -6.2167    0.0000 O   0  0  0  0  0  0  0  0  0  0  0  0
    3.8417   -6.2292    0.0000 C   0  0  0  0  0  0  0  0  0  0  0  0
    4.4667   -5.1542    0.0000 C   0  0  0  0  0  0  0  0  0  0  0  0
    4.3792   -4.4458    0.0000 C   0  0  0  0  0  0  0  0  0  0  0  0
    5.0000   -4.0917    0.0000 C   0  0  0  0  0  0  0  0  0  0  0  0
    5.6167   -4.4542    0.0000 C   0  0  0  0  0  0  0  0  0  0  0  0
    6.2167   -4.0667    0.0000 C   0  0  0  0  0  0  0  0  0  0  0  0
  2  1  1  0
  3  6  2  0
  4  5  2  3
  5  2  1  0
  6  1  1  0
  7  2  2  0
  8  4  1  0
  9 14  1  0
 10 13  1  0
 11 10  1  0
 12  1  1  0
 13  4  1  0
 14 20  2  0
 15 11  1  0
 16  8  2  0
 17 10  2  0
 18  9  2  0
 19 17  1  0
 20 25  1  0
 21 26  2  0
 22 12  1  0
 23  8  1  0
 24  9  1  0
 25 22  2  0
 26 22  1  0
 27  6  1  0
 28 27  1  0
 29 28  1  0
 30 29  1  0
  3  7  1  0
 14 21  1  0
 15 19  2  0
M  END
>  <Classification>  (30) 
1

>  <pchembl>  (30) 
5.18

>  <InChI_steorem>  (30) 
InChI=1S/C23H24N2O4S/c1-2-3-6-21-24-14-19(12-18(23(28)29)13-20-5-4-11-30-20)25(21)15-16-7-9-17(10-8-16)22(26)27/h4-5,7-12,14H,2-3,6,13,15H2,1H3,(H,26,27)(H,28,29)

>  <source>  (30) 
ChEMBL25

>  <source_id>  (30) 
25

>  <optional_reference>  (30) 
10.1093/toxsci/kft176

>  <optional_origin>  (30) 
None

>  <target>  (30) 
MRP3

$$$$

     RDKit          2D

 30 32  0  0  0  0  0  0  0  0999 V2000
    2.1559  -25.6767    0.0000 C   0  0  0  0  0  0  0  0  0  0  0  0
    2.5669  -26.3948    0.0000 C   0  0  0  0  0  0  0  0  0  0  0  0
    3.3924  -26.3969    0.0000 C   0  0  0  0  0  0  0  0  0  0  0  0
    2.5677  -24.9643    0.0000 C   0  0  0  0  0  0  0  0  0  0  0  0
    3.3918  -24.9629    0.0000 C   0  0  0  0  0  0  0  0  0  0  0  0
    3.8076  -25.6771    0.0000 C   0  0  0  0  0  0  0  0  0  0  0  0
    4.6154  -25.5025    0.0000 C   0  0  0  0  0  0  0  0  0  0  0  0
    4.6989  -24.6802    0.0000 C   0  0  0  0  0  0  0  0  0  0  0  0
    3.9427  -24.3468    0.0000 N   0  0  0  0  0  0  0  0  0  0  0  0
    3.7684  -23.5404    0.0000 C   0  0  0  0  0  0  0  0  0  0  0  0
    4.3795  -22.9863    0.0000 C   0  0  0  0  0  0  0  0  0  0  0  0
    2.9828  -23.2883    0.0000 C   0  0  0  0  0  0  0  0  0  0  0  0
    5.2269  -26.0491    0.0000 C   0  0  0  0  0  0  0  0  0  0  0  0
    5.0567  -26.8574    0.0000 C   0  0  0  0  0  0  0  0  0  0  0  0
    5.6709  -27.4071    0.0000 C   0  0  0  0  0  0  0  0  0  0  0  0
    6.4556  -27.1496    0.0000 C   0  0  0  0  0  0  0  0  0  0  0  0
    6.6226  -26.3373    0.0000 C   0  0  0  0  0  0  0  0  0  0  0  0
    6.0070  -25.7912    0.0000 C   0  0  0  0  0  0  0  0  0  0  0  0
    7.0713  -27.6987    0.0000 F   0  0  0  0  0  0  0  0  0  0  0  0
    5.4119  -24.2652    0.0000 C   0  0  0  0  0  0  0  0  0  0  0  0
    6.1279  -24.6752    0.0000 C   0  0  0  0  0  0  0  0  0  0  0  0
    6.8409  -24.2601    0.0000 C   0  0  0  0  0  0  0  0  0  0  0  0
    7.5568  -24.6701    0.0000 C   0  0  0  0  0  0  0  0  0  0  0  0
    8.2698  -24.2551    0.0000 C   0  0  0  0  0  0  0  0  0  0  0  0
    8.9857  -24.6650    0.0000 C   0  0  0  0  0  0  0  0  0  0  0  0
    9.6987  -24.2500    0.0000 C   0  0  0  0  0  0  0  0  0  0  0  0
   10.4163  -24.6573    0.0000 O   0  0  0  0  0  0  0  0  0  0  0  0
    9.6974  -23.4224    0.0000 O   0  0  0  0  0  0  0  0  0  0  0  0
    6.8379  -23.4351    0.0000 O   0  0  0  0  0  0  0  0  0  0  0  0
    8.2669  -23.4301    0.0000 O   0  0  0  0  0  0  0  0  0  0  0  0
 14 15  2  0
  3  6  1  0
 15 16  1  0
 16 17  2  0
  6  7  1  0
 17 18  1  0
 18 13  2  0
  7 13  1  0
  7  8  2  0
 16 19  1  0
  8  9  1  0
  8 20  1  0
  9  5  1  0
 20 21  2  3
  5  4  1  0
 21 22  1  0
  9 10  1  0
 22 23  1  0
  4  1  2  0
 23 24  1  0
 10 11  1  0
 24 25  1  0
  5  6  2  0
 25 26  1  0
 10 12  1  0
  1  2  1  0
 26 27  1  0
 26 28  2  0
 22 29  1  0
 13 14  1  0
 24 30  1  0
  2  3  2  0
M  END
>  <Classification>  (31) 
0

>  <pchembl>  (31) 
4.24

>  <InChI_steorem>  (31) 
InChI=1S/C24H26FNO4/c1-15(2)26-21-6-4-3-5-20(21)24(16-7-9-17(25)10-8-16)22(26)12-11-18(27)13-19(28)14-23(29)30/h3-12,15,18-19,27-28H,13-14H2,1-2H3,(H,29,30)

>  <source>  (31) 
ChEMBL25

>  <source_id>  (31) 
25

>  <optional_reference>  (31) 
10.1093/toxsci/kft176

>  <optional_origin>  (31) 
None

>  <target>  (31) 
MRP3

$$$$

     RDKit          2D

 34 36  0  0  0  0  0  0  0  0999 V2000
   19.8440  -19.9772    0.0000 C   0  0  0  0  0  0  0  0  0  0  0  0
   19.1281  -20.3897    0.0000 N   0  0  0  0  0  0  0  0  0  0  0  0
   18.4164  -19.9772    0.0000 C   0  0  0  0  0  0  0  0  0  0  0  0
   19.1281  -21.2147    0.0000 C   0  0  0  0  0  0  0  0  0  0  0  0
   18.4164  -21.6272    0.0000 O   0  0  0  0  0  0  0  0  0  0  0  0
   19.8440  -21.6272    0.0000 C   0  0  0  0  0  0  0  0  0  0  0  0
   19.8440  -22.4564    0.0000 C   0  0  0  0  0  0  0  0  0  0  0  0
   19.1281  -22.8689    0.0000 S   0  0  0  0  0  0  0  0  0  0  0  0
   19.1281  -23.6939    0.0000 C   0  0  0  0  0  0  0  0  0  0  0  0
   18.4164  -24.1064    0.0000 C   0  0  0  0  0  0  0  0  0  0  0  0
   18.4164  -24.9314    0.0000 C   0  0  0  0  0  0  0  0  0  0  0  0
   17.7006  -25.3439    0.0000 C   0  0  0  0  0  0  0  0  0  0  0  0
   16.9847  -24.9314    0.0000 C   0  0  0  0  0  0  0  0  0  0  0  0
   16.9847  -24.1064    0.0000 C   0  0  0  0  0  0  0  0  0  0  0  0
   17.7006  -23.6939    0.0000 C   0  0  0  0  0  0  0  0  0  0  0  0
   16.2730  -23.6939    0.0000 C   0  0  0  0  0  0  0  0  0  0  0  0
   15.5571  -24.1064    0.0000 C   0  0  0  0  0  0  0  0  0  0  0  0
   14.8413  -23.6939    0.0000 C   0  0  0  0  0  0  0  0  0  0  0  0
   14.1254  -24.1064    0.0000 N   0  0  0  0  0  0  0  0  0  0  0  0
   13.4137  -23.6939    0.0000 C   0  0  0  0  0  0  0  0  0  0  0  0
   13.4137  -22.8689    0.0000 C   0  0  0  0  0  0  0  0  0  0  0  0
   12.6978  -22.4564    0.0000 C   0  0  0  0  0  0  0  0  0  0  0  0
   11.9861  -22.8689    0.0000 C   0  0  0  0  0  0  0  0  0  0  0  0
   11.9861  -23.6939    0.0000 C   0  0  0  0  0  0  0  0  0  0  0  0
   12.6978  -24.1064    0.0000 C   0  0  0  0  0  0  0  0  0  0  0  0
   11.2703  -24.1064    0.0000 Cl  0  0  0  0  0  0  0  0  0  0  0  0
   14.1254  -22.4564    0.0000 C   0  0  0  0  0  0  0  0  0  0  0  0
   14.8413  -22.8689    0.0000 C   0  0  0  0  0  0  0  0  0  0  0  0
   19.8440  -24.1064    0.0000 S   0  0  0  0  0  0  0  0  0  0  0  0
   20.5598  -23.6939    0.0000 C   0  0  0  0  0  0  0  0  0  0  0  0
   20.5598  -22.8689    0.0000 C   0  0  0  0  0  0  0  0  0  0  0  0
   21.2715  -22.4564    0.0000 C   0  0  0  0  0  0  0  0  0  0  0  0
   21.2715  -21.6272    0.0000 O   0  0  0  0  0  0  0  0  0  0  0  0
   21.9874  -22.8689    0.0000 O   0  0  0  0  0  0  0  0  0  0  0  0
  1  2  1  0
  2  3  1  0
  2  4  1  0
  4  5  2  0
  4  6  1  0
  6  7  1  0
  7  8  1  0
  8  9  1  0
  9 10  1  0
 10 11  2  0
 11 12  1  0
 12 13  2  0
 13 14  1  0
 14 15  2  0
 10 15  1  0
 14 16  1  0
 16 17  2  3
 17 18  1  0
 18 19  2  0
 19 20  1  0
 20 21  2  0
 21 22  1  0
 22 23  2  0
 23 24  1  0
 24 25  2  0
 20 25  1  0
 24 26  1  0
 21 27  1  0
 27 28  2  0
 18 28  1  0
  9 29  1  0
 29 30  1  0
 30 31  1  0
 31 32  1  0
 32 33  2  0
 32 34  1  0
M  END
>  <Classification>  (32) 
1

>  <pchembl>  (32) 
5.03

>  <InChI_steorem>  (32) 
InChI=1S/C26H27ClN2O3S2/c1-29(2)24(30)12-14-33-26(34-15-13-25(31)32)20-5-3-4-18(16-20)6-10-22-11-8-19-7-9-21(27)17-23(19)28-22/h3-11,16-17,26H,12-15H2,1-2H3,(H,31,32)

>  <source>  (32) 
ChEMBL25

>  <source_id>  (32) 
25

>  <optional_reference>  (32) 
10.1093/toxsci/kft176

>  <optional_origin>  (32) 
None

>  <target>  (32) 
MRP3

$$$$

     RDKit          2D

 36 39  0  0  0  0  0  0  0  0999 V2000
    5.1875   -7.8417    0.0000 C   0  0  0  0  0  0  0  0  0  0  0  0
    5.8917   -8.5500    0.0000 N   0  0  0  0  0  0  0  0  0  0  0  0
    5.1875   -8.5500    0.0000 C   0  0  0  0  0  0  0  0  0  0  0  0
    5.8958   -7.8417    0.0000 C   0  0  0  0  0  0  0  0  0  0  0  0
    2.4750   -6.9917    0.0000 C   0  0  0  0  0  0  0  0  0  0  0  0
    8.9583   -8.9000    0.0000 C   0  0  0  0  0  0  0  0  0  0  0  0
    6.5042   -8.9042    0.0000 C   0  0  0  0  0  0  0  0  0  0  0  0
    4.5667   -7.4875    0.0000 N   0  0  0  0  0  0  0  0  0  0  0  0
    1.8542   -6.6375    0.0000 C   0  0  0  0  0  0  0  0  0  0  0  0
    2.6625   -7.6750    0.0000 S   0  0  0  0  0  0  0  0  0  0  0  0
    3.1583   -6.8083    0.0000 S   0  0  0  0  0  0  0  0  0  0  0  0
    9.5375   -8.4833    0.0000 N   0  0  0  0  0  0  0  0  0  0  0  0
    9.1792   -9.5792    0.0000 N   0  0  0  0  0  0  0  0  0  0  0  0
    9.8917   -9.5792    0.0000 N   0  0  0  0  0  0  0  0  0  0  0  0
    3.3417   -7.4875    0.0000 C   0  0  0  0  0  0  0  0  0  0  0  0
   10.1083   -8.9000    0.0000 N   0  0  0  0  0  0  0  0  0  0  0  0
    6.5042   -7.4875    0.0000 S   0  0  0  0  0  0  0  0  0  0  0  0
    7.1167   -8.5500    0.0000 C   0  0  0  0  0  0  0  0  0  0  0  0
    3.9542   -7.8417    0.0000 C   0  0  0  0  0  0  0  0  0  0  0  0
    1.8542   -5.9292    0.0000 C   0  0  0  0  0  0  0  0  0  0  0  0
    6.5042   -9.6125    0.0000 C   0  0  0  0  0  0  0  0  0  0  0  0
    1.2417   -6.9917    0.0000 C   0  0  0  0  0  0  0  0  0  0  0  0
    8.3458   -8.5458    0.0000 S   0  0  0  0  0  0  0  0  0  0  0  0
    7.1167   -7.8417    0.0000 C   0  0  0  0  0  0  0  0  0  0  0  0
    4.6833   -9.0500    0.0000 O   0  0  0  0  0  0  0  0  0  0  0  0
    7.7333   -8.9000    0.0000 C   0  0  0  0  0  0  0  0  0  0  0  0
    5.1792   -7.1292    0.0000 O   0  0  0  0  0  0  0  0  0  0  0  0
    1.2417   -5.5750    0.0000 O   0  0  0  0  0  0  0  0  0  0  0  0
    7.1208   -9.9667    0.0000 O   0  0  0  0  0  0  0  0  0  0  0  0
    3.9583   -8.5500    0.0000 O   0  0  0  0  0  0  0  0  0  0  0  0
    2.4667   -5.5708    0.0000 O   0  0  0  0  0  0  0  0  0  0  0  0
    5.8917   -9.9667    0.0000 O   0  0  0  0  0  0  0  0  0  0  0  0
    1.2458   -7.7000    0.0000 O   0  0  0  0  0  0  0  0  0  0  0  0
    0.6292   -6.6375    0.0000 N   0  0  0  0  0  0  0  0  0  0  0  0
    9.5375   -7.7750    0.0000 C   0  0  0  0  0  0  0  0  0  0  0  0
    4.5667   -6.7792    0.0000 C   0  0  0  0  0  0  0  0  0  0  0  0
  2  3  1  0
  3  1  1  0
  4  1  1  0
  5 10  1  0
  6 23  1  0
  7  2  1  0
  1  8  1  0
  9  5  2  3
 10 15  1  0
 11 15  1  0
 12  6  1  0
 13  6  2  0
 14 13  1  0
 15 19  1  0
 16 12  1  0
 17  4  1  0
 18  7  2  0
 19  8  1  0
 20  9  1  0
 21  7  1  0
 22  9  1  0
 23 26  1  0
 24 17  1  0
 25  3  2  0
 26 18  1  0
 27  1  1  0
 28 20  1  0
 29 21  1  0
 30 19  2  0
 31 20  2  0
 32 21  2  0
 33 22  2  0
 34 22  1  0
 35 12  1  0
 36 27  1  0
  4  2  1  0
 24 18  1  0
  5 11  1  0
 16 14  2  0
M  END
>  <Classification>  (33) 
0

>  <pchembl>  (33) 
4.1

>  <InChI_steorem>  (33) 
InChI=1S/C17H17N7O8S4/c1-23-16(20-21-22-23)34-4-5-3-33-15-17(32-2,14(31)24(15)7(5)11(29)30)19-9(26)13-35-12(36-13)6(8(18)25)10(27)28/h13,15H,3-4H2,1-2H3,(H2,18,25)(H,19,26)(H,27,28)(H,29,30)

>  <source>  (33) 
ChEMBL25

>  <source_id>  (33) 
25

>  <optional_reference>  (33) 
10.1093/toxsci/kft176

>  <optional_origin>  (33) 
None

>  <target>  (33) 
MRP3

$$$$

     RDKit          2D

 39 42  0  0  0  0  0  0  0  0999 V2000
    5.1708   -4.5083    0.0000 C   0  0  0  0  0  0  0  0  0  0  0  0
    4.5542   -4.1542    0.0000 N   0  0  0  0  0  0  0  0  0  0  0  0
    3.9417   -4.5125    0.0000 S   0  0  0  0  0  0  0  0  0  0  0  0
    5.7750   -4.1500    0.0000 C   0  0  0  0  0  0  0  0  0  0  0  0
    5.1708   -5.2167    0.0000 N   0  0  0  0  0  0  0  0  0  0  0  0
    5.7750   -5.5667    0.0000 C   0  0  0  0  0  0  0  0  0  0  0  0
    6.3875   -5.2167    0.0000 N   0  0  0  0  0  0  0  0  0  0  0  0
    6.3875   -4.5083    0.0000 C   0  0  0  0  0  0  0  0  0  0  0  0
    5.7750   -3.4417    0.0000 O   0  0  0  0  0  0  0  0  0  0  0  0
    5.7750   -6.2750    0.0000 C   0  0  0  0  0  0  0  0  0  0  0  0
    3.2542   -4.6958    0.0000 C   0  0  0  0  0  0  0  0  0  0  0  0
    3.9417   -5.2208    0.0000 O   0  0  0  0  0  0  0  0  0  0  0  0
    3.7583   -3.8250    0.0000 O   0  0  0  0  0  0  0  0  0  0  0  0
    6.3958   -3.0875    0.0000 C   0  0  0  0  0  0  0  0  0  0  0  0
    6.4000   -6.6292    0.0000 N   0  0  0  0  0  0  0  0  0  0  0  0
    5.1750   -6.6292    0.0000 N   0  0  0  0  0  0  0  0  0  0  0  0
    1.1958   -5.2417    0.0000 C   0  0  0  0  0  0  0  0  0  0  0  0
    1.8792   -5.0583    0.0000 C   0  0  0  0  0  0  0  0  0  0  0  0
    6.3875   -2.3833    0.0000 C   0  0  0  0  0  0  0  0  0  0  0  0
    2.7583   -4.1875    0.0000 C   0  0  0  0  0  0  0  0  0  0  0  0
    3.0708   -5.3708    0.0000 C   0  0  0  0  0  0  0  0  0  0  0  0
    2.3833   -5.5542    0.0000 C   0  0  0  0  0  0  0  0  0  0  0  0
    2.0708   -4.3708    0.0000 C   0  0  0  0  0  0  0  0  0  0  0  0
    7.0083   -4.1542    0.0000 O   0  0  0  0  0  0  0  0  0  0  0  0
    5.7750   -2.0333    0.0000 O   0  0  0  0  0  0  0  0  0  0  0  0
    5.7875   -7.6917    0.0000 C   0  0  0  0  0  0  0  0  0  0  0  0
    5.1708   -7.3375    0.0000 C   0  0  0  0  0  0  0  0  0  0  0  0
    6.4000   -7.3375    0.0000 C   0  0  0  0  0  0  0  0  0  0  0  0
    8.8458   -4.5125    0.0000 O   0  0  0  0  0  0  0  0  0  0  0  0
    7.0083   -3.4458    0.0000 C   0  0  0  0  0  0  0  0  0  0  0  0
    0.6917   -4.7375    0.0000 C   0  0  0  0  0  0  0  0  0  0  0  0
    1.0125   -5.9208    0.0000 C   0  0  0  0  0  0  0  0  0  0  0  0
    1.2000   -4.5333    0.0000 C   0  0  0  0  0  0  0  0  0  0  0  0
    7.0000   -2.0292    0.0000 C   0  0  0  0  0  0  0  0  0  0  0  0
    7.6208   -4.5125    0.0000 C   0  0  0  0  0  0  0  0  0  0  0  0
    8.2333   -4.1583    0.0000 C   0  0  0  0  0  0  0  0  0  0  0  0
    5.1667   -2.3875    0.0000 C   0  0  0  0  0  0  0  0  0  0  0  0
    7.6208   -3.0917    0.0000 C   0  0  0  0  0  0  0  0  0  0  0  0
    7.6208   -2.3792    0.0000 C   0  0  0  0  0  0  0  0  0  0  0  0
  2  1  1  0
  3  2  1  0
  4  1  1  0
  5  1  2  0
  6  5  1  0
  7  6  2  0
  8  4  2  0
  9  4  1  0
 10  6  1  0
 11  3  1  0
 12  3  2  0
 13  3  2  0
 14  9  1  0
 15 10  2  0
 16 10  1  0
 17 18  1  0
 18 22  2  0
 19 14  2  0
 20 11  1  0
 21 11  2  0
 22 21  1  0
 23 20  2  0
 24  8  1  0
 25 19  1  0
 26 27  1  0
 27 16  2  0
 28 15  1  0
 29 36  1  0
 30 14  1  0
 31 17  1  0
 32 17  1  0
 33 17  1  0
 34 19  1  0
 35 24  1  0
 36 35  1  0
 37 25  1  0
 38 30  2  0
 39 38  1  0
  8  7  1  0
 26 28  2  0
 23 18  1  0
 39 34  2  0
M  END
>  <Classification>  (34) 
0

>  <pchembl>  (34) 
4.38

>  <InChI_steorem>  (34) 
InChI=1S/C27H29N5O6S/c1-27(2,3)18-10-12-19(13-11-18)39(34,35)32-23-22(38-21-9-6-5-8-20(21)36-4)26(37-17-16-33)31-25(30-23)24-28-14-7-15-29-24/h5-15,33H,16-17H2,1-4H3,(H,30,31,32)

>  <source>  (34) 
ChEMBL25

>  <source_id>  (34) 
25

>  <optional_reference>  (34) 
10.1093/toxsci/kft176

>  <optional_origin>  (34) 
None

>  <target>  (34) 
MRP3

$$$$

     RDKit          2D

 45 49  0  0  0  0  0  0  0  0999 V2000
    3.0579  -17.4480    0.0000 C   0  0  0  0  0  0  0  0  0  0  0  0
    2.3414  -17.8687    0.0000 N   0  0  0  0  0  0  0  0  0  0  0  0
    3.0579  -16.6356    0.0000 C   0  0  0  0  0  0  0  0  0  0  0  0
   -1.9165  -17.9437    0.0000 N   0  0  0  0  0  0  0  0  0  0  0  0
   -2.6539  -17.5813    0.0000 C   0  0  0  0  0  0  0  0  0  0  0  0
   -1.2291  -17.4855    0.0000 C   0  0  0  0  0  0  0  0  0  0  0  0
   -3.3829  -17.9604    0.0000 C   0  0  0  0  0  0  0  0  0  0  0  0
    3.7913  -18.6771    0.0000 N   0  0  0  0  0  0  0  0  0  0  0  0
   -3.9745  -17.3813    0.0000 C   0  0  0  0  0  0  0  0  0  0  0  0
   -2.7955  -16.7648    0.0000 C   0  0  0  0  0  0  0  0  0  0  0  0
    2.3289  -16.2231    0.0000 N   0  0  0  0  0  0  0  0  0  0  0  0
   -0.5124  -17.8979    0.0000 C   0  0  0  0  0  0  0  0  0  0  0  0
    3.7788  -17.8605    0.0000 C   0  0  0  0  0  0  0  0  0  0  0  0
   -3.6079  -16.6439    0.0000 C   0  0  0  0  0  0  0  0  0  0  0  0
    1.6290  -17.4605    0.0000 C   0  0  0  0  0  0  0  0  0  0  0  0
    2.3539  -18.7021    0.0000 C   0  0  0  0  0  0  0  0  0  0  0  0
    3.7704  -16.2106    0.0000 O   0  0  0  0  0  0  0  0  0  0  0  0
   -1.2416  -16.6689    0.0000 O   0  0  0  0  0  0  0  0  0  0  0  0
    0.2000  -17.4855    0.0000 C   0  0  0  0  0  0  0  0  0  0  0  0
   -0.5041  -18.7229    0.0000 C   0  0  0  0  0  0  0  0  0  0  0  0
    2.3289  -15.3940    0.0000 C   0  0  0  0  0  0  0  0  0  0  0  0
    4.5078  -19.0978    0.0000 C   0  0  0  0  0  0  0  0  0  0  0  0
    5.2452  -21.1518    0.0000 N   0  0  0  0  0  0  0  0  0  0  0  0
    3.0829  -19.1020    0.0000 C   0  0  0  0  0  0  0  0  0  0  0  0
    4.5162  -19.9144    0.0000 C   0  0  0  0  0  0  0  0  0  0  0  0
    0.9249  -17.8854    0.0000 C   0  0  0  0  0  0  0  0  0  0  0  0
   -2.2039  -16.1731    0.0000 O   0  0  0  0  0  0  0  0  0  0  0  0
   -1.2166  -19.1395    0.0000 C   0  0  0  0  0  0  0  0  0  0  0  0
    5.2327  -20.3227    0.0000 C   0  0  0  0  0  0  0  0  0  0  0  0
    0.9249  -18.7146    0.0000 O   0  0  0  0  0  0  0  0  0  0  0  0
   -3.5954  -18.7645    0.0000 C   0  0  0  0  0  0  0  0  0  0  0  0
   -4.7537  -17.5980    0.0000 C   0  0  0  0  0  0  0  0  0  0  0  0
    4.5287  -21.5683    0.0000 C   0  0  0  0  0  0  0  0  0  0  0  0
    3.1538  -15.3815    0.0000 C   0  0  0  0  0  0  0  0  0  0  0  0
    1.5040  -15.4024    0.0000 C   0  0  0  0  0  0  0  0  0  0  0  0
    2.3247  -14.5650    0.0000 C   0  0  0  0  0  0  0  0  0  0  0  0
    3.8038  -20.3269    0.0000 C   0  0  0  0  0  0  0  0  0  0  0  0
   -1.2082  -19.9727    0.0000 C   0  0  0  0  0  0  0  0  0  0  0  0
   -1.9290  -18.7395    0.0000 C   0  0  0  0  0  0  0  0  0  0  0  0
    3.8038  -21.1643    0.0000 C   0  0  0  0  0  0  0  0  0  0  0  0
   -4.3870  -18.9770    0.0000 C   0  0  0  0  0  0  0  0  0  0  0  0
   -4.9661  -18.3979    0.0000 C   0  0  0  0  0  0  0  0  0  0  0  0
   -1.9165  -20.3894    0.0000 C   0  0  0  0  0  0  0  0  0  0  0  0
   -2.6455  -19.1520    0.0000 C   0  0  0  0  0  0  0  0  0  0  0  0
   -2.6330  -19.9769    0.0000 C   0  0  0  0  0  0  0  0  0  0  0  0
  5  4  1  0
  6 12  1  0
  7  5  1  0
  8 13  1  0
  9  7  2  0
 10  5  1  0
 11  3  1  0
 12 19  1  0
 13  1  1  0
 14 10  1  0
 15  2  1  0
 16  2  1  0
 17  3  2  0
 18  6  2  0
 19 26  1  0
 20 12  1  0
 21 11  1  0
 22  8  1  0
 23 29  2  0
 24 16  1  0
 25 22  1  0
 26 15  1  0
 10 27  1  0
 28 20  1  0
 29 25  1  0
 26 30  1  0
 31  7  1  0
 32  9  1  0
 33 40  2  0
 34 21  1  0
 35 21  1  0
 36 21  1  0
 37 25  2  0
 38 28  2  0
 39 28  1  0
 40 37  1  0
 41 31  2  0
 42 41  1  0
 43 38  1  0
 44 39  2  0
 45 43  2  0
 24  8  1  0
 23 33  1  0
 44 45  1  0
 14  9  1  0
 32 42  2  0
  2  1  1  0
  1  3  1  0
  4  6  1  0
M  END
>  <Classification>  (35) 
0

>  <pchembl>  (35) 
4.08

>  <InChI_steorem>  (35) 
InChI=1S/C36H47N5O4/c1-36(2,3)39-35(45)31-24-40(22-26-12-9-15-37-21-26)16-17-41(31)23-29(42)19-28(18-25-10-5-4-6-11-25)34(44)38-33-30-14-8-7-13-27(30)20-32(33)43/h4-15,21,28-29,31-33,42-43H,16-20,22-24H2,1-3H3,(H,38,44)(H,39,45)

>  <source>  (35) 
ChEMBL25

>  <source_id>  (35) 
25

>  <optional_reference>  (35) 
10.1093/toxsci/kft176

>  <optional_origin>  (35) 
None

>  <target>  (35) 
MRP3

$$$$

     RDKit          2D

 32 34  0  0  0  0  0  0  0  0999 V2000
   21.7397   -4.8789    0.0000 C   0  0  0  0  0  0  0  0  0  0  0  0
   21.7385   -5.7064    0.0000 N   0  0  0  0  0  0  0  0  0  0  0  0
   22.4533   -6.1191    0.0000 C   0  0  0  0  0  0  0  0  0  0  0  0
   23.1697   -5.7058    0.0000 C   0  0  0  0  0  0  0  0  0  0  0  0
   23.1668   -4.8753    0.0000 C   0  0  0  0  0  0  0  0  0  0  0  0
   22.4515   -4.4663    0.0000 C   0  0  0  0  0  0  0  0  0  0  0  0
   22.4581   -6.9441    0.0000 C   0  0  0  0  0  0  0  0  0  0  0  0
   21.7905   -7.4289    0.0000 N   0  0  0  0  0  0  0  0  0  0  0  0
   22.0454   -8.2136    0.0000 N   0  0  0  0  0  0  0  0  0  0  0  0
   22.8703   -8.2138    0.0000 N   0  0  0  0  0  0  0  0  0  0  0  0
   23.1253   -7.4292    0.0000 C   0  0  0  0  0  0  0  0  0  0  0  0
   23.9101   -7.1744    0.0000 C   0  0  0  0  0  0  0  0  0  0  0  0
   24.5229   -7.7266    0.0000 O   0  0  0  0  0  0  0  0  0  0  0  0
   25.3076   -7.4718    0.0000 C   0  0  0  0  0  0  0  0  0  0  0  0
   25.4793   -6.6649    0.0000 O   0  0  0  0  0  0  0  0  0  0  0  0
   25.9206   -8.0239    0.0000 N   0  0  0  0  0  0  0  0  0  0  0  0
   26.7052   -7.7691    0.0000 C   0  0  0  0  0  0  0  0  0  0  0  0
   25.7489   -8.8308    0.0000 C   0  0  0  0  0  0  0  0  0  0  0  0
   22.4490   -3.6413    0.0000 O   0  0  0  0  0  0  0  0  0  0  0  0
   23.1622   -3.2267    0.0000 C   0  0  0  0  0  0  0  0  0  0  0  0
   23.8799   -3.6409    0.0000 C   0  0  0  0  0  0  0  0  0  0  0  0
   24.5910   -3.2298    0.0000 C   0  0  0  0  0  0  0  0  0  0  0  0
   24.5927   -2.4044    0.0000 C   0  0  0  0  0  0  0  0  0  0  0  0
   23.8772   -1.9919    0.0000 C   0  0  0  0  0  0  0  0  0  0  0  0
   23.1599   -2.4047    0.0000 C   0  0  0  0  0  0  0  0  0  0  0  0
   25.3050   -3.6428    0.0000 C   0  0  0  0  0  0  0  0  0  0  0  0
   25.3044   -4.4678    0.0000 O   0  0  0  0  0  0  0  0  0  0  0  0
   26.0199   -3.2309    0.0000 O   0  0  0  0  0  0  0  0  0  0  0  0
   21.0251   -4.4667    0.0000 C   0  0  0  0  0  0  0  0  0  0  0  0
   23.3552   -8.8813    0.0000 C   0  0  0  0  0  0  0  0  0  0  0  0
   27.3182   -8.3212    0.0000 C   0  0  0  0  0  0  0  0  0  0  0  0
   28.1029   -8.0665    0.0000 C   0  0  0  0  0  0  0  0  0  0  0  0
  1  2  2  0
  2  3  1  0
  3  4  2  0
  4  5  1  0
  5  6  2  0
  6  1  1  0
  7  8  1  0
  8  9  2  0
  9 10  1  0
 10 11  1  0
 11  7  2  0
  3  7  1  0
 11 12  1  0
 12 13  1  0
 13 14  1  0
 14 15  2  0
 14 16  1  0
 16 17  1  0
 16 18  1  0
  6 19  1  0
 20 19  1  0
 20 21  1  0
 20 25  1  0
 21 22  1  0
 22 23  1  0
 23 24  1  0
 24 25  1  0
 22 26  1  0
 26 27  2  0
 26 28  1  0
  1 29  1  0
 10 30  1  0
 17 31  1  0
 31 32  1  0
M  END
>  <Classification>  (36) 
0

>  <pchembl>  (36) 
4.18

>  <InChI_steorem>  (36) 
InChI=1S/C22H31N5O5/c1-5-11-26(3)22(30)31-13-18-20(24-25-27(18)4)17-9-10-19(14(2)23-17)32-16-8-6-7-15(12-16)21(28)29/h9-10,15-16H,5-8,11-13H2,1-4H3,(H,28,29)

>  <source>  (36) 
ChEMBL32

>  <source_id>  (36) 
32

>  <optional_reference>  (36) 
10.1021/acs.jmedchem.1c01256

>  <optional_origin>  (36) 
None

>  <target>  (36) 
MRP3

$$$$

     RDKit          2D

 36 40  0  0  0  0  0  0  0  0999 V2000
   -3.0958   -5.3155    0.0000 C   0  0  0  0  0  0  0  0  0  0  0  0
   -2.5810   -6.3842    0.0000 C   0  0  0  0  0  0  0  0  0  0  0  0
   -1.4034   -6.4655    0.0000 C   0  0  0  0  0  0  0  0  0  0  0  0
   -0.7433   -5.4932    0.0000 C   0  0  0  0  0  0  0  0  0  0  0  0
   -1.2560   -4.4287    0.0000 C   0  0  0  0  0  0  0  0  0  0  0  0
   -2.4302   -4.3397    0.0000 C   0  0  0  0  0  0  0  0  0  0  0  0
   -2.9427   -3.2756    0.0000 C   0  0  0  0  0  0  0  0  0  0  0  0
   -4.0074   -3.7870    0.0000 C   0  0  0  0  0  0  0  0  0  0  0  0
   -3.9205   -2.6091    0.0000 C   0  0  0  0  0  0  0  0  0  0  0  0
   -2.2015   -2.4574    0.0000 C   0  0  0  0  0  0  0  0  0  0  0  0
   -2.4212   -1.2969    0.0000 O   0  0  0  0  0  0  0  0  0  0  0  0
   -1.0867   -2.8474    0.0000 O   0  0  0  0  0  0  0  0  0  0  0  0
   -0.8909   -7.5296    0.0000 C   0  0  0  0  0  0  0  0  0  0  0  0
    0.2870   -7.6181    0.0000 C   0  0  0  0  0  0  0  0  0  0  0  0
    0.7970   -8.6795    0.0000 C   0  0  0  0  0  0  0  0  0  0  0  0
    0.1315   -9.6557    0.0000 C   0  0  0  0  0  0  0  0  0  0  0  0
   -1.0406   -9.5702    0.0000 C   0  0  0  0  0  0  0  0  0  0  0  0
   -1.5590   -8.5097    0.0000 C   0  0  0  0  0  0  0  0  0  0  0  0
    0.6441  -10.7198    0.0000 C   0  0  0  0  0  0  0  0  0  0  0  0
    0.0847  -11.7594    0.0000 O   0  0  0  0  0  0  0  0  0  0  0  0
    0.9006  -12.6127    0.0000 N   0  0  0  0  0  0  0  0  0  0  0  0
    1.9642  -12.1004    0.0000 C   0  0  0  0  0  0  0  0  0  0  0  0
    1.8056  -10.9305    0.0000 C   0  0  0  0  0  0  0  0  0  0  0  0
    2.7008  -10.1600    0.0000 N   0  0  0  0  0  0  0  0  0  0  0  0
    3.8157  -10.5500    0.0000 C   0  0  0  0  0  0  0  0  0  0  0  0
    4.7108   -9.7795    0.0000 O   0  0  0  0  0  0  0  0  0  0  0  0
    5.8257  -10.1695    0.0000 C   0  0  0  0  0  0  0  0  0  0  0  0
    6.7209   -9.3990    0.0000 C   0  0  0  0  0  0  0  0  0  0  0  0
    6.5015   -8.2384    0.0000 C   0  0  0  0  0  0  0  0  0  0  0  0
    7.3947   -7.4711    0.0000 C   0  0  0  0  0  0  0  0  0  0  0  0
    8.5099   -7.8612    0.0000 C   0  0  0  0  0  0  0  0  0  0  0  0
    8.7307   -9.0155    0.0000 C   0  0  0  0  0  0  0  0  0  0  0  0
    7.8405   -9.7907    0.0000 C   0  0  0  0  0  0  0  0  0  0  0  0
    6.2000  -11.0750    0.0000 C   0  0  0  0  0  0  0  0  0  0  0  0
    4.0353  -11.7105    0.0000 O   0  0  0  0  0  0  0  0  0  0  0  0
    2.9871  -12.6909    0.0000 C   0  0  0  0  0  0  0  0  0  0  0  0
  1  2  2  0
  2  3  1  0
  3  4  2  0
  4  5  1  0
  5  6  2  0
  6  1  1  0
  6  7  1  0
  7  8  1  0
  9  8  1  0
  7  9  1  0
  7 10  1  0
 10 11  2  0
 10 12  1  0
  3 13  1  0
 14 13  2  0
 15 14  1  0
 16 15  2  0
 17 16  1  0
 18 17  2  0
 13 18  1  0
 16 19  1  0
 20 19  1  0
 20 21  1  0
 21 22  2  0
 22 23  1  0
 23 19  2  0
 23 24  1  0
 24 25  1  0
 25 26  1  0
 26 27  1  0
 27 28  1  0
 29 28  2  0
 30 29  1  0
 31 30  2  0
 32 31  1  0
 33 32  2  0
 28 33  1  0
 27 34  1  0
 25 35  2  0
 22 36  1  0
M  END
>  <Classification>  (37) 
0

>  <pchembl>  (37) 
4.66

>  <InChI_steorem>  (37) 
InChI=1S/C29H26N2O5/c1-18-25(30-28(34)35-19(2)20-6-4-3-5-7-20)26(36-31-18)23-10-8-21(9-11-23)22-12-14-24(15-13-22)29(16-17-29)27(32)33/h3-15,19H,16-17H2,1-2H3,(H,30,34)(H,32,33)

>  <source>  (37) 
ChEMBL32

>  <source_id>  (37) 
32

>  <optional_reference>  (37) 
10.1021/acs.jmedchem.1c01256

>  <optional_origin>  (37) 
None

>  <target>  (37) 
MRP3

$$$$
