
     RDKit          2D

 55 61  0  0  0  0  0  0  0  0999 V2000
    8.6417   -4.1292    0.0000 C   0  0  0  0  0  0  0  0  0  0  0  0
    9.2917   -4.7167    0.0000 C   0  0  0  0  0  0  0  0  0  0  0  0
    9.1167   -5.5667    0.0000 C   0  0  0  0  0  0  0  0  0  0  0  0
    8.6542   -3.2667    0.0000 C   0  0  0  0  0  0  0  0  0  0  0  0
   10.1250   -4.4417    0.0000 C   0  0  0  0  0  0  0  0  0  0  0  0
    7.8750   -4.5542    0.0000 C   0  0  0  0  0  0  0  0  0  0  0  0
    7.5292   -5.4042    0.0000 O   0  0  0  0  0  0  0  0  0  0  0  0
   10.2417   -3.1417    0.0000 O   0  0  0  0  0  0  0  0  0  0  0  0
    8.2875   -5.8417    0.0000 C   0  0  0  0  0  0  0  0  0  0  0  0
    6.7792   -5.8417    0.0000 C   0  0  0  0  0  0  0  0  0  0  0  0
   10.9042   -2.5792    0.0000 C   0  0  0  0  0  0  0  0  0  0  0  0
    9.4292   -2.8500    0.0000 C   0  0  0  0  0  0  0  0  0  0  0  0
    6.7792   -6.7167    0.0000 C   0  0  0  0  0  0  0  0  0  0  0  0
   10.7417   -1.7167    0.0000 C   0  0  0  0  0  0  0  0  0  0  0  0
    7.1292   -4.1042    0.0000 C   0  0  0  0  0  0  0  0  0  0  0  0
   10.7667   -5.0167    0.0000 C   0  0  0  0  0  0  0  0  0  0  0  0
    8.2875   -6.7167    0.0000 C   0  0  0  0  0  0  0  0  0  0  0  0
    9.0417   -8.0167    0.0000 C   0  0  0  0  0  0  0  0  0  0  0  0
    7.5292   -7.1500    0.0000 C   0  0  0  0  0  0  0  0  0  0  0  0
    7.9167   -2.8167    0.0000 C   0  0  0  0  0  0  0  0  0  0  0  0
    9.7667   -6.1500    0.0000 C   0  0  0  0  0  0  0  0  0  0  0  0
    9.7917   -8.4542    0.0000 C   0  0  0  0  0  0  0  0  0  0  0  0
   11.3042   -9.3292    0.0000 C   0  0  0  0  0  0  0  0  0  0  0  0
    9.9292   -1.4250    0.0000 C   0  0  0  0  0  0  0  0  0  0  0  0
    7.1500   -3.2375    0.0000 C   0  0  0  0  0  0  0  0  0  0  0  0
   10.5917   -5.8667    0.0000 C   0  0  0  0  0  0  0  0  0  0  0  0
    9.0417   -7.1500    0.0000 O   0  0  0  0  0  0  0  0  0  0  0  0
   11.4042   -1.1542    0.0000 C   0  0  0  0  0  0  0  0  0  0  0  0
    6.0292   -7.1500    0.0000 C   0  0  0  0  0  0  0  0  0  0  0  0
    9.2667   -1.9917    0.0000 C   0  0  0  0  0  0  0  0  0  0  0  0
   10.5500   -9.7625    0.0000 C   0  0  0  0  0  0  0  0  0  0  0  0
   11.3000   -8.4542    0.0000 C   0  0  0  0  0  0  0  0  0  0  0  0
    6.0292   -5.4042    0.0000 C   0  0  0  0  0  0  0  0  0  0  0  0
   11.7250   -2.8625    0.0000 C   0  0  0  0  0  0  0  0  0  0  0  0
    9.7917   -9.3292    0.0000 C   0  0  0  0  0  0  0  0  0  0  0  0
   10.5417   -8.0167    0.0000 C   0  0  0  0  0  0  0  0  0  0  0  0
    5.2750   -6.7167    0.0000 C   0  0  0  0  0  0  0  0  0  0  0  0
   12.2292   -1.4417    0.0000 C   0  0  0  0  0  0  0  0  0  0  0  0
   12.3875   -2.3000    0.0000 C   0  0  0  0  0  0  0  0  0  0  0  0
    5.2750   -5.8417    0.0000 C   0  0  0  0  0  0  0  0  0  0  0  0
    8.2875   -8.4542    0.0000 O   0  0  0  0  0  0  0  0  0  0  0  0
   10.3042   -3.5792    0.0000 O   0  0  0  0  0  0  0  0  0  0  0  0
    7.8750   -5.0167    0.0000 O   0  0  0  0  0  0  0  0  0  0  0  0
   11.5917   -4.7500    0.0000 O   0  0  0  0  0  0  0  0  0  0  0  0
    6.3667   -4.5250    0.0000 O   0  0  0  0  0  0  0  0  0  0  0  0
   12.0542   -9.7625    0.0000 O   0  0  0  0  0  0  0  0  0  0  0  0
    6.3917   -2.7792    0.0000 O   0  0  0  0  0  0  0  0  0  0  0  0
   11.2542   -6.4625    0.0000 O   0  0  0  0  0  0  0  0  0  0  0  0
   11.2875   -0.4167    0.0000 O   0  0  0  0  0  0  0  0  0  0  0  0
    6.0167   -7.8917    0.0000 O   0  0  0  0  0  0  0  0  0  0  0  0
   10.5417  -10.6292    0.0000 O   0  0  0  0  0  0  0  0  0  0  0  0
   12.0542   -8.0125    0.0000 O   0  0  0  0  0  0  0  0  0  0  0  0
    8.4417   -1.7000    0.0000 O   0  0  0  0  0  0  0  0  0  0  0  0
   13.1667   -2.3417    0.0000 O   0  0  0  0  0  0  0  0  0  0  0  0
    4.7042   -5.4292    0.0000 O   0  0  0  0  0  0  0  0  0  0  0  0
  2  1  1  0
  3  2  1  0
  4  1  1  0
  5  2  2  0
  6  1  2  0
  7  9  1  0
  8 12  1  0
  9  3  1  0
 10  7  1  0
 11  8  1  0
 12  4  1  0
 13 19  1  0
 14 24  1  0
 15  6  1  0
 16  5  1  0
 17  9  1  0
 18 27  1  0
 19 17  1  0
 20  4  2  0
 21  3  2  0
 22 18  1  0
 23 32  2  0
 24 30  1  0
 25 15  2  0
 26 16  2  0
 17 27  1  0
 28 14  2  0
 29 13  2  0
 30 12  1  0
 31 35  2  0
 32 36  1  0
 33 10  2  0
 34 11  2  0
 35 22  1  0
 36 22  2  0
 37 29  1  0
 38 28  1  0
 39 34  1  0
 40 33  1  0
 41 18  2  0
 42  5  1  0
 43  6  1  0
 44 16  1  0
 45 15  1  0
 46 23  1  0
 47 25  1  0
 48 26  1  0
 49 28  1  0
 50 29  1  0
 51 31  1  0
 52 32  1  0
 30 53  1  0
 54 39  1  0
 55 40  1  0
 20 25  1  0
 21 26  1  0
 14 11  1  0
 39 38  2  0
 10 13  1  0
 40 37  2  0
 31 23  1  0
M  END
>  <Classification>  (1) 
1

>  <pchembl>  (1) 
5.07

>  <InChI_steorem>  (1) 
InChI=1S/C37H30O18/c38-12-3-18(40)14-7-24(46)35(53-25(14)5-12)16-8-22(44)31(48)33(50)28(16)29-17(9-23(45)32(49)34(29)51)36-27(10-15-19(41)4-13(39)6-26(15)54-36)55-37(52)11-1-20(42)30(47)21(43)2-11/h1-6,8-9,24,27,35-36,38-51H,7,10H2

>  <source>  (1) 
ChEMBL25

>  <source_id>  (1) 
25

>  <optional_reference>  (1) 
10.1124/mol.112.084152

>  <optional_origin>  (1) 
None

>  <target>  (1) 
OATP1B3

$$$$

     RDKit          2D

 63 70  0  0  0  0  0  0  0  0999 V2000
    8.0542   -3.6042    0.0000 C   0  0  0  0  0  0  0  0  0  0  0  0
    7.3500   -4.0167    0.0000 C   0  0  0  0  0  0  0  0  0  0  0  0
    6.4000   -3.0542    0.0000 C   0  0  0  0  0  0  0  0  0  0  0  0
    7.3500   -4.8375    0.0000 C   0  0  0  0  0  0  0  0  0  0  0  0
    6.6667   -3.8167    0.0000 C   0  0  0  0  0  0  0  0  0  0  0  0
    5.9167   -4.8292    0.0000 O   0  0  0  0  0  0  0  0  0  0  0  0
    6.6292   -5.2417    0.0000 C   0  0  0  0  0  0  0  0  0  0  0  0
    4.8667   -3.3542    0.0000 O   0  0  0  0  0  0  0  0  0  0  0  0
    5.2042   -5.2417    0.0000 C   0  0  0  0  0  0  0  0  0  0  0  0
    4.1542   -2.9417    0.0000 C   0  0  0  0  0  0  0  0  0  0  0  0
    8.2292   -2.9375    0.0000 C   0  0  0  0  0  0  0  0  0  0  0  0
    5.2000   -6.0667    0.0000 C   0  0  0  0  0  0  0  0  0  0  0  0
    4.1542   -2.1167    0.0000 C   0  0  0  0  0  0  0  0  0  0  0  0
    5.5792   -2.9417    0.0000 C   0  0  0  0  0  0  0  0  0  0  0  0
    7.7167   -2.3167    0.0000 C   0  0  0  0  0  0  0  0  0  0  0  0
    6.8875   -2.3625    0.0000 C   0  0  0  0  0  0  0  0  0  0  0  0
    6.6292   -6.0750    0.0000 C   0  0  0  0  0  0  0  0  0  0  0  0
    5.5792   -2.1167    0.0000 C   0  0  0  0  0  0  0  0  0  0  0  0
    8.7792   -4.0167    0.0000 C   0  0  0  0  0  0  0  0  0  0  0  0
    7.3417   -7.3125    0.0000 C   0  0  0  0  0  0  0  0  0  0  0  0
    6.3000   -0.8792    0.0000 C   0  0  0  0  0  0  0  0  0  0  0  0
    5.9167   -6.4875    0.0000 C   0  0  0  0  0  0  0  0  0  0  0  0
    4.8667   -1.7042    0.0000 C   0  0  0  0  0  0  0  0  0  0  0  0
    8.0625   -5.2542    0.0000 C   0  0  0  0  0  0  0  0  0  0  0  0
    8.0542   -7.7292    0.0000 C   0  0  0  0  0  0  0  0  0  0  0  0
    7.0125   -0.4750    0.0000 C   0  0  0  0  0  0  0  0  0  0  0  0
    9.4750   -8.5542    0.0000 C   0  0  0  0  0  0  0  0  0  0  0  0
    8.4417    0.3458    0.0000 C   0  0  0  0  0  0  0  0  0  0  0  0
    7.3417   -6.4875    0.0000 O   0  0  0  0  0  0  0  0  0  0  0  0
    6.2917   -1.7042    0.0000 O   0  0  0  0  0  0  0  0  0  0  0  0
    4.4875   -6.4875    0.0000 C   0  0  0  0  0  0  0  0  0  0  0  0
    3.4500   -1.7042    0.0000 C   0  0  0  0  0  0  0  0  0  0  0  0
    8.7750   -4.8417    0.0000 C   0  0  0  0  0  0  0  0  0  0  0  0
    8.7542   -8.9667    0.0000 C   0  0  0  0  0  0  0  0  0  0  0  0
    8.4417   -0.4792    0.0000 C   0  0  0  0  0  0  0  0  0  0  0  0
    9.4750   -7.7292    0.0000 C   0  0  0  0  0  0  0  0  0  0  0  0
    7.7250    0.7583    0.0000 C   0  0  0  0  0  0  0  0  0  0  0  0
    4.4875   -4.8292    0.0000 C   0  0  0  0  0  0  0  0  0  0  0  0
    3.4417   -3.3542    0.0000 C   0  0  0  0  0  0  0  0  0  0  0  0
    8.7625   -7.3167    0.0000 C   0  0  0  0  0  0  0  0  0  0  0  0
    8.0417   -8.5542    0.0000 C   0  0  0  0  0  0  0  0  0  0  0  0
    7.7292   -0.8917    0.0000 C   0  0  0  0  0  0  0  0  0  0  0  0
    7.0167    0.3458    0.0000 C   0  0  0  0  0  0  0  0  0  0  0  0
    2.7292   -2.1167    0.0000 C   0  0  0  0  0  0  0  0  0  0  0  0
    3.7750   -6.0750    0.0000 C   0  0  0  0  0  0  0  0  0  0  0  0
    2.7375   -2.9417    0.0000 C   0  0  0  0  0  0  0  0  0  0  0  0
    3.7750   -5.2417    0.0000 C   0  0  0  0  0  0  0  0  0  0  0  0
    9.0375   -2.7542    0.0000 O   0  0  0  0  0  0  0  0  0  0  0  0
    5.5792   -0.4667    0.0000 O   0  0  0  0  0  0  0  0  0  0  0  0
    6.6250   -7.7250    0.0000 O   0  0  0  0  0  0  0  0  0  0  0  0
    8.0542   -1.5625    0.0000 O   0  0  0  0  0  0  0  0  0  0  0  0
    9.4917   -3.6000    0.0000 O   0  0  0  0  0  0  0  0  0  0  0  0
   10.1917   -8.9667    0.0000 O   0  0  0  0  0  0  0  0  0  0  0  0
    9.1542    0.7583    0.0000 O   0  0  0  0  0  0  0  0  0  0  0  0
    3.4417   -0.8792    0.0000 O   0  0  0  0  0  0  0  0  0  0  0  0
    4.4917   -7.3125    0.0000 O   0  0  0  0  0  0  0  0  0  0  0  0
    9.4875   -5.2542    0.0000 O   0  0  0  0  0  0  0  0  0  0  0  0
   10.1917   -7.3167    0.0000 O   0  0  0  0  0  0  0  0  0  0  0  0
    8.7542   -9.7917    0.0000 O   0  0  0  0  0  0  0  0  0  0  0  0
    9.1542   -0.8917    0.0000 O   0  0  0  0  0  0  0  0  0  0  0  0
    7.7250    1.5833    0.0000 O   0  0  0  0  0  0  0  0  0  0  0  0
    3.0625   -4.8375    0.0000 O   0  0  0  0  0  0  0  0  0  0  0  0
    2.0167   -3.3542    0.0000 O   0  0  0  0  0  0  0  0  0  0  0  0
  2  1  2  0
  3  5  2  0
  4  2  1  0
  5  2  1  0
  6  7  1  0
  7  4  1  0
  8 14  1  0
  9  6  1  0
 10  8  1  0
 11  1  1  0
 12 22  1  0
 13 23  1  0
 14  3  1  0
 15 11  1  0
 16 15  2  0
 17  7  1  0
 18 14  1  0
 19  1  1  0
 20 29  1  0
 21 30  1  0
 22 17  1  0
 23 18  1  0
 24 33  1  0
 25 20  1  0
 26 21  1  0
 27 34  2  0
 28 37  2  0
 17 29  1  0
 18 30  1  0
 31 12  2  0
 32 13  2  0
 33 19  2  0
 34 41  1  0
 35 42  2  0
 36 40  2  0
 37 43  1  0
 38  9  2  0
 39 10  2  0
 40 25  1  0
 41 25  2  0
 42 26  1  0
 43 26  2  0
 44 32  1  0
 45 31  1  0
 46 39  1  0
 47 38  1  0
 48 11  2  0
 49 21  2  0
 50 20  2  0
 51 15  1  0
 52 19  1  0
 53 27  1  0
 54 28  1  0
 55 32  1  0
 56 31  1  0
 57 33  1  0
 58 36  1  0
 59 34  1  0
 60 35  1  0
 61 37  1  0
 62 47  1  0
 63 46  1  0
  4 24  2  0
 16  3  1  0
  9 12  1  0
 10 13  1  0
 47 45  2  0
 44 46  2  0
 27 36  1  0
 35 28  1  0
M  END
>  <Classification>  (2) 
1

>  <pchembl>  (2) 
5.35

>  <InChI_steorem>  (2) 
InChI=1S/C43H32O20/c44-17-7-23(46)21-12-33(62-42(58)15-3-25(48)36(54)26(49)4-15)40(60-31(21)9-17)14-1-19-20(11-30(53)39(57)35(19)38(56)29(52)2-14)41-34(13-22-24(47)8-18(45)10-32(22)61-41)63-43(59)16-5-27(50)37(55)28(51)6-16/h1-11,33-34,40-41,44-51,53-55,57H,12-13H2,(H,52,56)

>  <source>  (2) 
ChEMBL25

>  <source_id>  (2) 
25

>  <optional_reference>  (2) 
10.1124/mol.112.084152

>  <optional_origin>  (2) 
None

>  <target>  (2) 
OATP1B3

$$$$

     RDKit          2D

 22 24  0  0  0  0  0  0  0  0999 V2000
   -3.2960  -11.3752    0.0000 C   0  0  0  0  0  0  0  0  0  0  0  0
   -3.2972  -12.2002    0.0000 C   0  0  0  0  0  0  0  0  0  0  0  0
   -2.5844  -12.6118    0.0000 C   0  0  0  0  0  0  0  0  0  0  0  0
   -2.5862  -10.9636    0.0000 C   0  0  0  0  0  0  0  0  0  0  0  0
   -1.8729  -11.3716    0.0000 C   0  0  0  0  0  0  0  0  0  0  0  0
   -1.8741  -12.2022    0.0000 C   0  0  0  0  0  0  0  0  0  0  0  0
   -1.1593  -12.6163    0.0000 C   0  0  0  0  0  0  0  0  0  0  0  0
   -0.4375  -11.3736    0.0000 C   0  0  0  0  0  0  0  0  0  0  0  0
   -0.4406  -12.2064    0.0000 C   0  0  0  0  0  0  0  0  0  0  0  0
    0.2751  -12.6230    0.0000 C   0  0  0  0  0  0  0  0  0  0  0  0
    0.9984  -12.2116    0.0000 C   0  0  0  0  0  0  0  0  0  0  0  0
    1.0014  -11.3789    0.0000 C   0  0  0  0  0  0  0  0  0  0  0  0
    0.2812  -10.9576    0.0000 C   0  0  0  0  0  0  0  0  0  0  0  0
    1.7157  -10.9709    0.0000 O   0  0  0  0  0  0  0  0  0  0  0  0
   -1.1620  -13.4389    0.0000 C   0  0  0  0  0  0  0  0  0  0  0  0
   -1.8761  -13.8434    0.0000 C   0  0  0  0  0  0  0  0  0  0  0  0
   -1.8792  -14.6652    0.0000 C   0  0  0  0  0  0  0  0  0  0  0  0
   -1.1677  -15.0797    0.0000 C   0  0  0  0  0  0  0  0  0  0  0  0
   -0.4516  -14.6664    0.0000 C   0  0  0  0  0  0  0  0  0  0  0  0
   -0.4520  -13.8459    0.0000 C   0  0  0  0  0  0  0  0  0  0  0  0
   -4.0085  -10.9641    0.0000 O   0  0  0  0  0  0  0  0  0  0  0  0
   -1.1693  -15.9023    0.0000 O   0  0  0  0  0  0  0  0  0  0  0  0
  2  3  1  0
  8 13  2  0
  9 10  1  0
 10 11  2  0
 11 12  1  0
 12 13  1  0
  3  6  2  0
 12 14  2  0
  6  7  1  0
  7 15  1  0
  7  9  2  3
 15 16  2  0
  8  9  1  0
 16 17  1  0
  1  2  2  0
 17 18  2  0
  5  4  2  0
 18 19  1  0
  4  1  1  0
 19 20  2  0
 20 15  1  0
  5  6  1  0
  1 21  1  0
 18 22  1  0
M  END
>  <Classification>  (3) 
1

>  <pchembl>  (3) 
5.39

>  <InChI_steorem>  (3) 
InChI=1S/C19H14O3/c20-16-7-1-13(2-8-16)19(14-3-9-17(21)10-4-14)15-5-11-18(22)12-6-15/h1-12,20-21H

>  <source>  (3) 
ChEMBL25

>  <source_id>  (3) 
25

>  <optional_reference>  (3) 
10.1124/mol.112.084152

>  <optional_origin>  (3) 
None

>  <target>  (3) 
OATP1B3

$$$$

     RDKit          2D

 39 44  0  0  0  0  0  0  0  0999 V2000
   -1.3201  -14.2961    0.0000 C   0  0  0  0  0  0  0  0  0  0  0  0
    1.2972  -12.9760    0.0000 N   0  0  0  0  0  0  0  0  0  0  0  0
    1.9480  -14.1311    0.0000 N   0  0  0  0  0  0  0  0  0  0  0  0
   -1.8151  -13.6223    0.0000 N   0  0  0  0  0  0  0  0  0  0  0  0
   -1.8151  -14.9698    0.0000 N   0  0  0  0  0  0  0  0  0  0  0  0
    0.7425  -13.5856    0.0000 C   0  0  0  0  0  0  0  0  0  0  0  0
    2.0397  -13.3153    0.0000 C   0  0  0  0  0  0  0  0  0  0  0  0
    1.1459  -14.3007    0.0000 C   0  0  0  0  0  0  0  0  0  0  0  0
   -0.4950  -14.2961    0.0000 C   0  0  0  0  0  0  0  0  0  0  0  0
   -2.5989  -14.7132    0.0000 C   0  0  0  0  0  0  0  0  0  0  0  0
   -2.5989  -13.8835    0.0000 C   0  0  0  0  0  0  0  0  0  0  0  0
   -0.0871  -13.5810    0.0000 C   0  0  0  0  0  0  0  0  0  0  0  0
    2.1680   -8.7133    0.0000 C   0  0  0  0  0  0  0  0  0  0  0  0
    0.7379  -15.0157    0.0000 C   0  0  0  0  0  0  0  0  0  0  0  0
    2.5760   -9.4238    0.0000 C   0  0  0  0  0  0  0  0  0  0  0  0
    1.3429   -8.7042    0.0000 C   0  0  0  0  0  0  0  0  0  0  0  0
   -0.0871  -15.0111    0.0000 C   0  0  0  0  0  0  0  0  0  0  0  0
    0.8892  -12.2610    0.0000 C   0  0  0  0  0  0  0  0  0  0  0  0
    2.1589  -10.1342    0.0000 C   0  0  0  0  0  0  0  0  0  0  0  0
    0.9304   -9.4146    0.0000 O   0  0  0  0  0  0  0  0  0  0  0  0
    2.5622  -10.8539    0.0000 C   0  0  0  0  0  0  0  0  0  0  0  0
    1.3292  -10.1296    0.0000 C   0  0  0  0  0  0  0  0  0  0  0  0
    1.3109  -11.5505    0.0000 C   0  0  0  0  0  0  0  0  0  0  0  0
   -1.5538  -15.7536    0.0000 C   0  0  0  0  0  0  0  0  0  0  0  0
    0.9350   -7.9845    0.0000 O   0  0  0  0  0  0  0  0  0  0  0  0
    2.7593  -12.9072    0.0000 C   0  0  0  0  0  0  0  0  0  0  0  0
    0.9122  -10.8355    0.0000 C   0  0  0  0  0  0  0  0  0  0  0  0
    2.1405  -11.5597    0.0000 C   0  0  0  0  0  0  0  0  0  0  0  0
   -3.3185  -15.1257    0.0000 C   0  0  0  0  0  0  0  0  0  0  0  0
   -3.3185  -13.4710    0.0000 C   0  0  0  0  0  0  0  0  0  0  0  0
    2.5851   -7.9983    0.0000 C   0  0  0  0  0  0  0  0  0  0  0  0
    3.4055   -9.4376    0.0000 C   0  0  0  0  0  0  0  0  0  0  0  0
    1.1504  -15.7261    0.0000 C   0  0  0  0  0  0  0  0  0  0  0  0
    3.4698  -13.3290    0.0000 C   0  0  0  0  0  0  0  0  0  0  0  0
   -4.0289  -14.7132    0.0000 C   0  0  0  0  0  0  0  0  0  0  0  0
    3.4148   -8.0075    0.0000 C   0  0  0  0  0  0  0  0  0  0  0  0
    3.8181   -8.7270    0.0000 C   0  0  0  0  0  0  0  0  0  0  0  0
   -4.0289  -13.8835    0.0000 C   0  0  0  0  0  0  0  0  0  0  0  0
    4.1848  -12.9210    0.0000 C   0  0  0  0  0  0  0  0  0  0  0  0
  2  6  1  0
  3  8  1  0
  4  1  2  0
  5  1  1  0
  6 12  1  0
  7  2  1  0
  8  6  2  0
  9  1  1  0
 10  5  1  0
 11  4  1  0
 12  9  2  0
 13 15  2  0
 14 17  2  0
 15 19  1  0
 16 13  1  0
 17  9  1  0
 18  2  1  0
 19 22  2  0
 20 16  2  0
 21 28  2  0
 22 27  1  0
 23 18  1  0
 24  5  1  0
 25 16  1  0
 26  7  1  0
 27 23  2  0
 28 23  1  0
 29 10  2  0
 30 11  2  0
 31 13  1  0
 32 15  1  0
 33 14  1  0
 34 26  1  0
 35 29  1  0
 36 31  2  0
 37 32  2  0
 38 30  1  0
 39 34  1  0
 10 11  1  0
  8 14  1  0
 35 38  2  0
  7  3  2  0
 19 21  1  0
 36 37  1  0
M  END
>  <Classification>  (4) 
1

>  <pchembl>  (4) 
5.9

>  <InChI_steorem>  (4) 
InChI=1S/C33H30N4O2/c1-4-9-30-35-31-21(2)18-24(32-34-27-12-7-8-13-28(27)36(32)3)19-29(31)37(30)20-22-14-16-23(17-15-22)25-10-5-6-11-26(25)33(38)39/h5-8,10-19H,4,9,20H2,1-3H3,(H,38,39)

>  <source>  (4) 
ChEMBL25

>  <source_id>  (4) 
25

>  <optional_reference>  (4) 
10.1124/mol.112.084152

>  <optional_origin>  (4) 
None

>  <target>  (4) 
OATP1B3

$$$$

     RDKit          2D

 34 38  0  0  0  0  0  0  0  0999 V2000
    8.5085   -4.2022    0.0000 C   0  0  0  0  0  0  0  0  0  0  0  0
    8.5085   -5.0302    0.0000 C   0  0  0  0  0  0  0  0  0  0  0  0
    9.2196   -5.4421    0.0000 C   0  0  0  0  0  0  0  0  0  0  0  0
    9.2196   -3.7862    0.0000 C   0  0  0  0  0  0  0  0  0  0  0  0
    9.9347   -4.2022    0.0000 C   0  0  0  0  0  0  0  0  0  0  0  0
    9.9312   -5.0302    0.0000 C   0  0  0  0  0  0  0  0  0  0  0  0
   10.6431   -5.4470    0.0000 C   0  0  0  0  0  0  0  0  0  0  0  0
   11.3630   -5.0362    0.0000 C   0  0  0  0  0  0  0  0  0  0  0  0
   10.6501   -3.7911    0.0000 C   0  0  0  0  0  0  0  0  0  0  0  0
   11.3627   -4.2108    0.0000 C   0  0  0  0  0  0  0  0  0  0  0  0
   11.3796   -2.5587    0.0000 C   0  0  0  0  0  0  0  0  0  0  0  0
   10.6554   -2.9658    0.0000 C   0  0  0  0  0  0  0  0  0  0  0  0
   12.0920   -2.9825    0.0000 C   0  0  0  0  0  0  0  0  0  0  0  0
   12.0783   -3.8067    0.0000 C   0  0  0  0  0  0  0  0  0  0  0  0
   12.7817   -4.2264    0.0000 C   0  0  0  0  0  0  0  0  0  0  0  0
   13.5036   -3.8307    0.0000 C   0  0  0  0  0  0  0  0  0  0  0  0
   12.8094   -2.5780    0.0000 C   0  0  0  0  0  0  0  0  0  0  0  0
   13.5131   -3.0085    0.0000 C   0  0  0  0  0  0  0  0  0  0  0  0
   14.2281   -2.6137    0.0000 C   0  0  0  0  0  0  0  0  0  0  0  0
   14.2538   -1.7913    0.0000 C   0  0  0  0  0  0  0  0  0  0  0  0
   13.5502   -1.3650    0.0000 C   0  0  0  0  0  0  0  0  0  0  0  0
   12.8249   -1.7571    0.0000 C   0  0  0  0  0  0  0  0  0  0  0  0
   12.9563   -0.7739    0.0000 C   0  0  0  0  0  0  0  0  0  0  0  0
   14.1296   -0.7739    0.0000 C   0  0  0  0  0  0  0  0  0  0  0  0
   14.2212   -3.4201    0.0000 C   0  0  0  0  0  0  0  0  0  0  0  0
   14.2187   -4.2481    0.0000 O   0  0  0  0  0  0  0  0  0  0  0  0
   14.9400   -3.0104    0.0000 O   0  0  0  0  0  0  0  0  0  0  0  0
   11.3544   -3.3826    0.0000 C   0  0  0  0  0  0  0  0  0  0  0  0
   12.0701   -4.6308    0.0000 C   0  0  0  0  0  0  0  0  0  0  0  0
    9.9274   -3.3743    0.0000 C   0  0  0  0  0  0  0  0  0  0  0  0
    8.5002   -5.8499    0.0000 C   0  0  0  0  0  0  0  0  0  0  0  0
    9.4322   -6.2410    0.0000 C   0  0  0  0  0  0  0  0  0  0  0  0
    8.8425   -6.8246    0.0000 O   0  0  0  0  0  0  0  0  0  0  0  0
    7.7916   -5.4473    0.0000 O   0  0  0  0  0  0  0  0  0  0  0  0
 17 18  1  0
  6  7  1  0
  7  8  1  0
  8 10  1  0
  9 10  1  0
  3  6  1  0
  5  4  1  0
 17 22  1  0
 18 19  1  0
 19 20  1  0
 20 21  1  0
 21 22  1  0
  5  6  1  0
 21 23  1  0
 21 24  1  0
  9 12  1  0
 18 25  1  0
 10 14  1  0
 25 26  2  0
 13 11  2  0
 25 27  1  0
 11 12  1  0
 10 28  1  0
 13 14  1  0
  1  2  1  0
 14 29  1  0
  1  4  1  0
  2  3  1  0
  5 30  1  0
  5  9  1  0
 13 17  1  0
  3 31  1  0
 14 15  1  0
  3 32  1  0
 15 16  1  0
 32 33  1  0
 16 18  1  0
  2 34  1  0
M  END
>  <Classification>  (5) 
1

>  <pchembl>  (5) 
6.05

>  <InChI_steorem>  (5) 
InChI=1S/C30H48O4/c1-25(2)13-15-30(24(33)34)16-14-28(5)19(20(30)17-25)7-8-22-26(3)11-10-23(32)27(4,18-31)21(26)9-12-29(22,28)6/h7,20-23,31-32H,8-18H2,1-6H3,(H,33,34)

>  <source>  (5) 
ChEMBL25

>  <source_id>  (5) 
25

>  <optional_reference>  (5) 
10.1124/mol.112.084152

>  <optional_origin>  (5) 
None

>  <target>  (5) 
OATP1B3

$$$$

     RDKit          2D

122132  0  0  0  0  0  0  0  0999 V2000
    2.9029   -4.1306    0.0000 O   0  0  0  0  0  0  0  0  0  0  0  0
    2.8882   -6.5996    0.0000 O   0  0  0  0  0  0  0  0  0  0  0  0
    2.1721   -6.1913    0.0000 C   0  0  0  0  0  0  0  0  0  0  0  0
    2.1652   -5.3626    0.0000 O   0  0  0  0  0  0  0  0  0  0  0  0
    1.4576   -6.6038    0.0000 C   0  0  0  0  0  0  0  0  0  0  0  0
    1.4664   -7.4290    0.0000 C   0  0  0  0  0  0  0  0  0  0  0  0
    0.7477   -7.8487    0.0000 C   0  0  0  0  0  0  0  0  0  0  0  0
    0.0316   -7.4404    0.0000 C   0  0  0  0  0  0  0  0  0  0  0  0
    0.0340   -6.6122    0.0000 C   0  0  0  0  0  0  0  0  0  0  0  0
    0.7412   -6.1955    0.0000 C   0  0  0  0  0  0  0  0  0  0  0  0
   -0.6822   -6.2040    0.0000 O   0  0  0  0  0  0  0  0  0  0  0  0
   -1.4008   -6.6237    0.0000 C   0  0  0  0  0  0  0  0  0  0  0  0
   -1.3918   -7.4488    0.0000 O   0  0  0  0  0  0  0  0  0  0  0  0
   -2.1170   -6.2155    0.0000 C   0  0  0  0  0  0  0  0  0  0  0  0
   -2.1145   -5.3874    0.0000 C   0  0  0  0  0  0  0  0  0  0  0  0
   -2.8307   -4.9789    0.0000 C   0  0  0  0  0  0  0  0  0  0  0  0
   -3.5493   -5.3988    0.0000 C   0  0  0  0  0  0  0  0  0  0  0  0
   -3.5405   -6.2237    0.0000 C   0  0  0  0  0  0  0  0  0  0  0  0
   -2.8243   -6.6321    0.0000 C   0  0  0  0  0  0  0  0  0  0  0  0
   -4.2551   -6.6364    0.0000 O   0  0  0  0  0  0  0  0  0  0  0  0
   -4.2657   -4.9904    0.0000 O   0  0  0  0  0  0  0  0  0  0  0  0
   -2.8395   -4.1538    0.0000 O   0  0  0  0  0  0  0  0  0  0  0  0
   -0.6758   -7.8570    0.0000 O   0  0  0  0  0  0  0  0  0  0  0  0
    0.7567   -8.6737    0.0000 O   0  0  0  0  0  0  0  0  0  0  0  0
    4.3093   -7.4411    0.0000 O   0  0  0  0  0  0  0  0  0  0  0  0
    3.6002   -7.8614    0.0000 C   0  0  0  0  0  0  0  0  0  0  0  0
    2.8766   -7.4576    0.0000 O   0  0  0  0  0  0  0  0  0  0  0  0
    3.6053   -8.6865    0.0000 C   0  0  0  0  0  0  0  0  0  0  0  0
    4.3267   -9.0870    0.0000 C   0  0  0  0  0  0  0  0  0  0  0  0
    4.3360   -9.9192    0.0000 C   0  0  0  0  0  0  0  0  0  0  0  0
    3.6270  -10.3396    0.0000 C   0  0  0  0  0  0  0  0  0  0  0  0
    2.9084   -9.9279    0.0000 C   0  0  0  0  0  0  0  0  0  0  0  0
    2.8961   -9.1071    0.0000 C   0  0  0  0  0  0  0  0  0  0  0  0
    2.1993  -10.3483    0.0000 O   0  0  0  0  0  0  0  0  0  0  0  0
    2.2086  -11.1805    0.0000 C   0  0  0  0  0  0  0  0  0  0  0  0
    2.9302  -11.5809    0.0000 O   0  0  0  0  0  0  0  0  0  0  0  0
    1.4996  -11.6010    0.0000 C   0  0  0  0  0  0  0  0  0  0  0  0
    0.7811  -11.1893    0.0000 C   0  0  0  0  0  0  0  0  0  0  0  0
    0.0719  -11.6097    0.0000 C   0  0  0  0  0  0  0  0  0  0  0  0
    0.0812  -12.4418    0.0000 C   0  0  0  0  0  0  0  0  0  0  0  0
    0.8026  -12.8422    0.0000 C   0  0  0  0  0  0  0  0  0  0  0  0
    1.5118  -12.4218    0.0000 C   0  0  0  0  0  0  0  0  0  0  0  0
    0.8078  -13.6673    0.0000 O   0  0  0  0  0  0  0  0  0  0  0  0
   -0.6280  -12.8623    0.0000 O   0  0  0  0  0  0  0  0  0  0  0  0
   -0.6496  -11.2092    0.0000 O   0  0  0  0  0  0  0  0  0  0  0  0
    3.6391  -11.1605    0.0000 O   0  0  0  0  0  0  0  0  0  0  0  0
    5.0576  -10.3195    0.0000 O   0  0  0  0  0  0  0  0  0  0  0  0
    5.7453   -6.6215    0.0000 O   0  0  0  0  0  0  0  0  0  0  0  0
    6.4673   -6.2234    0.0000 C   0  0  0  0  0  0  0  0  0  0  0  0
    6.4860   -5.3950    0.0000 O   0  0  0  0  0  0  0  0  0  0  0  0
    7.1758   -6.6462    0.0000 C   0  0  0  0  0  0  0  0  0  0  0  0
    7.1552   -7.4712    0.0000 C   0  0  0  0  0  0  0  0  0  0  0  0
    7.8677   -7.9011    0.0000 C   0  0  0  0  0  0  0  0  0  0  0  0
    8.5897   -7.5031    0.0000 C   0  0  0  0  0  0  0  0  0  0  0  0
    8.5992   -6.6750    0.0000 C   0  0  0  0  0  0  0  0  0  0  0  0
    7.8978   -6.2482    0.0000 C   0  0  0  0  0  0  0  0  0  0  0  0
    9.3210   -6.2770    0.0000 O   0  0  0  0  0  0  0  0  0  0  0  0
   10.0336   -6.7070    0.0000 C   0  0  0  0  0  0  0  0  0  0  0  0
   10.0128   -7.5319    0.0000 O   0  0  0  0  0  0  0  0  0  0  0  0
   10.7555   -6.3091    0.0000 C   0  0  0  0  0  0  0  0  0  0  0  0
   10.7649   -5.4810    0.0000 C   0  0  0  0  0  0  0  0  0  0  0  0
   11.4870   -5.0829    0.0000 C   0  0  0  0  0  0  0  0  0  0  0  0
   12.1994   -5.5129    0.0000 C   0  0  0  0  0  0  0  0  0  0  0  0
   12.1788   -6.3378    0.0000 C   0  0  0  0  0  0  0  0  0  0  0  0
   11.4568   -6.7357    0.0000 C   0  0  0  0  0  0  0  0  0  0  0  0
   12.8873   -6.7606    0.0000 O   0  0  0  0  0  0  0  0  0  0  0  0
   12.9215   -5.1149    0.0000 O   0  0  0  0  0  0  0  0  0  0  0  0
   11.5076   -4.2580    0.0000 O   0  0  0  0  0  0  0  0  0  0  0  0
    9.2909   -7.9299    0.0000 O   0  0  0  0  0  0  0  0  0  0  0  0
    7.8469   -8.7259    0.0000 O   0  0  0  0  0  0  0  0  0  0  0  0
    2.8984   -4.9543    0.0000 C   0  0  0  0  0  0  0  0  0  0  0  0
    3.6123   -5.3670    0.0000 C   0  0  0  0  0  0  0  0  0  0  0  0
    3.6069   -6.1955    0.0000 C   0  0  0  0  0  0  0  0  0  0  0  0
    4.3165   -6.6123    0.0000 C   0  0  0  0  0  0  0  0  0  0  0  0
    5.0316   -6.2047    0.0000 C   0  0  0  0  0  0  0  0  0  0  0  0
    5.0369   -5.3762    0.0000 C   0  0  0  0  0  0  0  0  0  0  0  0
    4.3272   -4.9635    0.0000 O   0  0  0  0  0  0  0  0  0  0  0  0
    5.7560   -4.9728    0.0000 O   0  0  0  0  0  0  0  0  0  0  0  0
    5.7613   -4.1484    0.0000 C   0  0  0  0  0  0  0  0  0  0  0  0
    5.0476   -3.7274    0.0000 O   0  0  0  0  0  0  0  0  0  0  0  0
    6.4763   -3.7367    0.0000 C   0  0  0  0  0  0  0  0  0  0  0  0
    7.1861   -4.1576    0.0000 C   0  0  0  0  0  0  0  0  0  0  0  0
    7.9093   -3.7459    0.0000 C   0  0  0  0  0  0  0  0  0  0  0  0
    7.9146   -2.9215    0.0000 C   0  0  0  0  0  0  0  0  0  0  0  0
    7.1966   -2.5087    0.0000 C   0  0  0  0  0  0  0  0  0  0  0  0
    6.4817   -2.9122    0.0000 C   0  0  0  0  0  0  0  0  0  0  0  0
    7.2020   -1.6845    0.0000 O   0  0  0  0  0  0  0  0  0  0  0  0
    7.9253   -1.2727    0.0000 C   0  0  0  0  0  0  0  0  0  0  0  0
    8.6350   -1.6938    0.0000 O   0  0  0  0  0  0  0  0  0  0  0  0
    7.9307   -0.4483    0.0000 C   0  0  0  0  0  0  0  0  0  0  0  0
    7.2127   -0.0357    0.0000 C   0  0  0  0  0  0  0  0  0  0  0  0
    7.2180    0.7888    0.0000 C   0  0  0  0  0  0  0  0  0  0  0  0
    7.9413    1.2005    0.0000 C   0  0  0  0  0  0  0  0  0  0  0  0
    8.6509    0.7795    0.0000 C   0  0  0  0  0  0  0  0  0  0  0  0
    8.6455   -0.0449    0.0000 C   0  0  0  0  0  0  0  0  0  0  0  0
    9.3660    1.1913    0.0000 O   0  0  0  0  0  0  0  0  0  0  0  0
    7.9467    2.0249    0.0000 O   0  0  0  0  0  0  0  0  0  0  0  0
    6.5083    1.2098    0.0000 O   0  0  0  0  0  0  0  0  0  0  0  0
    8.6296   -2.5180    0.0000 O   0  0  0  0  0  0  0  0  0  0  0  0
    8.6189   -4.1669    0.0000 O   0  0  0  0  0  0  0  0  0  0  0  0
    2.1848   -3.7254    0.0000 C   0  0  0  0  0  0  0  0  0  0  0  0
    1.4696   -4.1438    0.0000 O   0  0  0  0  0  0  0  0  0  0  0  0
    2.1734   -2.9004    0.0000 C   0  0  0  0  0  0  0  0  0  0  0  0
    2.8866   -2.4855    0.0000 C   0  0  0  0  0  0  0  0  0  0  0  0
    2.8791   -1.6533    0.0000 C   0  0  0  0  0  0  0  0  0  0  0  0
    2.1616   -1.2472    0.0000 C   0  0  0  0  0  0  0  0  0  0  0  0
    1.4515   -1.6734    0.0000 C   0  0  0  0  0  0  0  0  0  0  0  0
    1.4558   -2.4943    0.0000 C   0  0  0  0  0  0  0  0  0  0  0  0
    0.7341   -1.2673    0.0000 O   0  0  0  0  0  0  0  0  0  0  0  0
    0.7267   -0.4351    0.0000 C   0  0  0  0  0  0  0  0  0  0  0  0
    1.4399   -0.0203    0.0000 O   0  0  0  0  0  0  0  0  0  0  0  0
    0.0092   -0.0290    0.0000 C   0  0  0  0  0  0  0  0  0  0  0  0
   -0.7008   -0.4552    0.0000 C   0  0  0  0  0  0  0  0  0  0  0  0
   -1.4184   -0.0492    0.0000 C   0  0  0  0  0  0  0  0  0  0  0  0
   -1.4258    0.7830    0.0000 C   0  0  0  0  0  0  0  0  0  0  0  0
   -0.7126    1.1980    0.0000 C   0  0  0  0  0  0  0  0  0  0  0  0
    0.0049    0.7918    0.0000 C   0  0  0  0  0  0  0  0  0  0  0  0
   -0.7241    2.0162    0.0000 O   0  0  0  0  0  0  0  0  0  0  0  0
   -2.1500    1.1932    0.0000 O   0  0  0  0  0  0  0  0  0  0  0  0
   -2.1317   -0.4641    0.0000 O   0  0  0  0  0  0  0  0  0  0  0  0
    2.1573   -0.4263    0.0000 O   0  0  0  0  0  0  0  0  0  0  0  0
    3.5923   -1.2384    0.0000 O   0  0  0  0  0  0  0  0  0  0  0  0
 51 52  2  0
 52 53  1  0
 53 54  2  0
 54 55  1  0
 55 56  2  0
 51 56  1  0
 55 57  1  0
 57 58  1  0
 58 59  2  0
 58 60  1  0
 60 61  2  0
 61 62  1  0
 62 63  2  0
 63 64  1  0
 64 65  2  0
 60 65  1  0
 64 66  1  0
 63 67  1  0
 62 68  1  0
 54 69  1  0
 53 70  1  0
 17 21  1  0
 16 22  1  0
 25 26  1  0
 26 27  2  0
 26 28  1  0
 28 29  2  0
 29 30  1  0
 30 31  2  0
 31 32  1  0
 32 33  2  0
 28 33  1  0
 32 34  1  0
 34 35  1  0
 35 36  2  0
 35 37  1  0
 37 38  2  0
 38 39  1  0
 39 40  2  0
 40 41  1  0
 41 42  2  0
 37 42  1  0
 41 43  1  0
 40 44  1  0
 39 45  1  0
 31 46  1  0
 30 47  1  0
  8 23  1  0
  7 24  1  0
  2  3  1  0
  1 71  1  0
 72 71  1  0
 72 73  1  0
 73 74  1  0
 74 75  1  0
 75 76  1  0
 76 77  1  0
 72 77  1  0
 76 78  1  0
 78 79  1  0
 79 80  2  0
 79 81  1  0
 81 82  2  0
 82 83  1  0
 83 84  2  0
 84 85  1  0
 85 86  2  0
 81 86  1  0
 85 87  1  0
 87 88  1  0
 88 89  2  0
 88 90  1  0
 90 91  2  0
 91 92  1  0
 92 93  2  0
 93 94  1  0
 94 95  2  0
 90 95  1  0
 94 96  1  0
 93 97  1  0
 92 98  1  0
 84 99  1  0
 83100  1  0
 75 48  1  0
 74 25  1  0
 73  2  1  0
  3  4  2  0
  3  5  1  0
  5  6  2  0
  6  7  1  0
  7  8  2  0
  8  9  1  0
  9 10  2  0
  5 10  1  0
  9 11  1  0
 11 12  1  0
 12 13  2  0
 12 14  1  0
 14 15  2  0
 15 16  1  0
 16 17  2  0
 17 18  1  0
 18 19  2  0
 14 19  1  0
 18 20  1  0
 48 49  1  0
 49 50  2  0
 49 51  1  0
101102  2  0
101103  1  0
103104  2  0
104105  1  0
105106  2  0
106107  1  0
107108  2  0
103108  1  0
107109  1  0
109110  1  0
110111  2  0
110112  1  0
112113  2  0
113114  1  0
114115  2  0
115116  1  0
116117  2  0
112117  1  0
116118  1  0
115119  1  0
114120  1  0
106121  1  0
105122  1  0
101  1  1  0
M  END
>  <Classification>  (6) 
1

>  <pchembl>  (6) 
5.38

>  <InChI_steorem>  (6) 
InChI=1S/C76H52O46/c77-32-1-22(2-33(78)53(32)92)67(103)113-47-16-27(11-42(87)58(47)97)66(102)112-21-52-63(119-72(108)28-12-43(88)59(98)48(17-28)114-68(104)23-3-34(79)54(93)35(80)4-23)64(120-73(109)29-13-44(89)60(99)49(18-29)115-69(105)24-5-36(81)55(94)37(82)6-24)65(121-74(110)30-14-45(90)61(100)50(19-30)116-70(106)25-7-38(83)56(95)39(84)8-25)76(118-52)122-75(111)31-15-46(91)62(101)51(20-31)117-71(107)26-9-40(85)57(96)41(86)10-26/h1-20,52,63-65,76-101H,21H2

>  <source>  (6) 
ChEMBL25

>  <source_id>  (6) 
25

>  <optional_reference>  (6) 
10.1124/mol.112.084152

>  <optional_origin>  (6) 
None

>  <target>  (6) 
OATP1B3

$$$$

     RDKit          2D

 24 24  0  0  0  0  0  0  0  0999 V2000
   -4.7437   -6.4212    0.0000 C   0  0  0  0  0  0  0  0  0  0  0  0
   -4.7437   -7.2509    0.0000 C   0  0  0  0  0  0  0  0  0  0  0  0
   -4.0293   -7.6634    0.0000 C   0  0  0  0  0  0  0  0  0  0  0  0
   -3.3102   -7.2509    0.0000 C   0  0  0  0  0  0  0  0  0  0  0  0
   -3.3102   -6.4212    0.0000 C   0  0  0  0  0  0  0  0  0  0  0  0
   -4.0293   -6.0041    0.0000 C   0  0  0  0  0  0  0  0  0  0  0  0
   -3.4512   -5.4175    0.0000 C   0  0  0  0  0  0  0  0  0  0  0  0
   -4.6200   -5.4175    0.0000 C   0  0  0  0  0  0  0  0  0  0  0  0
   -2.5963   -7.6644    0.0000 C   0  0  0  0  0  0  0  0  0  0  0  0
   -2.5953   -6.0095    0.0000 C   0  0  0  0  0  0  0  0  0  0  0  0
   -1.8813   -6.4227    0.0000 C   0  0  0  0  0  0  0  0  0  0  0  0
   -1.1664   -6.0109    0.0000 C   0  0  0  0  0  0  0  0  0  0  0  0
   -0.4523   -6.4241    0.0000 C   0  0  0  0  0  0  0  0  0  0  0  0
   -1.1656   -5.1859    0.0000 C   0  0  0  0  0  0  0  0  0  0  0  0
    0.2626   -6.0124    0.0000 C   0  0  0  0  0  0  0  0  0  0  0  0
    0.9766   -6.4255    0.0000 C   0  0  0  0  0  0  0  0  0  0  0  0
    1.6915   -6.0138    0.0000 C   0  0  0  0  0  0  0  0  0  0  0  0
    2.4056   -6.4270    0.0000 C   0  0  0  0  0  0  0  0  0  0  0  0
    1.6923   -5.1888    0.0000 C   0  0  0  0  0  0  0  0  0  0  0  0
    3.1205   -6.0152    0.0000 C   0  0  0  0  0  0  0  0  0  0  0  0
    3.8345   -6.4285    0.0000 O   0  0  0  0  0  0  0  0  0  0  0  0
    4.5494   -6.0167    0.0000 C   0  0  0  0  0  0  0  0  0  0  0  0
    5.2634   -6.4299    0.0000 O   0  0  0  0  0  0  0  0  0  0  0  0
    4.5501   -5.1917    0.0000 C   0  0  0  0  0  0  0  0  0  0  0  0
 11 12  1  0
  5  6  1  0
 12 13  2  3
 12 14  1  0
  6  7  1  0
 13 15  1  0
  1  2  1  0
 15 16  2  3
  6  8  1  0
 16 17  1  0
  1  6  1  0
 17 18  2  3
  4  9  1  0
 17 19  1  0
  2  3  1  0
 18 20  1  0
  5 10  1  0
 20 21  1  0
  3  4  1  0
 21 22  1  0
 10 11  2  3
 22 23  2  0
  4  5  2  0
 22 24  1  0
M  END
>  <Classification>  (7) 
1

>  <pchembl>  (7) 
5.3

>  <InChI_steorem>  (7) 
InChI=1S/C22H32O2/c1-17(9-7-10-18(2)14-16-24-20(4)23)12-13-21-19(3)11-8-15-22(21,5)6/h7,9-10,12-14H,8,11,15-16H2,1-6H3

>  <source>  (7) 
ChEMBL25

>  <source_id>  (7) 
25

>  <optional_reference>  (7) 
10.1124/mol.112.084152

>  <optional_origin>  (7) 
None

>  <target>  (7) 
OATP1B3

$$$$

     RDKit          2D

 35 40  0  0  0  0  0  0  0  0999 V2000
    7.7166   -9.8510    0.0000 C   0  0  0  0  0  0  0  0  0  0  0  0
    7.7166  -10.6765    0.0000 C   0  0  0  0  0  0  0  0  0  0  0  0
    8.4290  -11.0851    0.0000 C   0  0  0  0  0  0  0  0  0  0  0  0
    8.4290   -9.4342    0.0000 C   0  0  0  0  0  0  0  0  0  0  0  0
    9.1414   -9.8510    0.0000 C   0  0  0  0  0  0  0  0  0  0  0  0
    9.1379  -10.6765    0.0000 C   0  0  0  0  0  0  0  0  0  0  0  0
    9.8470  -11.0900    0.0000 C   0  0  0  0  0  0  0  0  0  0  0  0
   10.5642  -10.6826    0.0000 C   0  0  0  0  0  0  0  0  0  0  0  0
    9.8540   -9.4391    0.0000 C   0  0  0  0  0  0  0  0  0  0  0  0
   10.5638   -9.8596    0.0000 C   0  0  0  0  0  0  0  0  0  0  0  0
   10.5807   -8.2126    0.0000 C   0  0  0  0  0  0  0  0  0  0  0  0
    9.8593   -8.6164    0.0000 C   0  0  0  0  0  0  0  0  0  0  0  0
   11.2905   -8.6331    0.0000 C   0  0  0  0  0  0  0  0  0  0  0  0
   11.2767   -9.4547    0.0000 C   0  0  0  0  0  0  0  0  0  0  0  0
   11.9775   -9.8753    0.0000 C   0  0  0  0  0  0  0  0  0  0  0  0
   12.6966   -9.4787    0.0000 C   0  0  0  0  0  0  0  0  0  0  0  0
   12.7104   -8.6570    0.0000 O   0  0  0  0  0  0  0  0  0  0  0  0
   12.0052   -8.2320    0.0000 C   0  0  0  0  0  0  0  0  0  0  0  0
    9.1341   -9.0256    0.0000 C   0  0  0  0  0  0  0  0  0  0  0  0
   10.5556   -9.0340    0.0000 C   0  0  0  0  0  0  0  0  0  0  0  0
    7.0023  -11.0903    0.0000 O   0  0  0  0  0  0  0  0  0  0  0  0
    8.0085  -11.7980    0.0000 C   0  0  0  0  0  0  0  0  0  0  0  0
    8.8339  -11.7980    0.0000 C   0  0  0  0  0  0  0  0  0  0  0  0
   11.2777  -11.0976    0.0000 O   0  0  0  0  0  0  0  0  0  0  0  0
   11.2750  -11.9230    0.0000 C   0  0  0  0  0  0  0  0  0  0  0  0
   11.9885  -12.3381    0.0000 C   0  0  0  0  0  0  0  0  0  0  0  0
   10.5588  -12.3335    0.0000 O   0  0  0  0  0  0  0  0  0  0  0  0
   11.2685  -10.2763    0.0000 O   0  0  0  0  0  0  0  0  0  0  0  0
   11.2852   -7.8042    0.0000 C   0  0  0  0  0  0  0  0  0  0  0  0
   13.4037   -9.9044    0.0000 O   0  0  0  0  0  0  0  0  0  0  0  0
   12.0134   -7.4062    0.0000 C   0  0  0  0  0  0  0  0  0  0  0  0
   12.6886   -6.9315    0.0000 C   0  0  0  0  0  0  0  0  0  0  0  0
   12.4456   -6.1426    0.0000 O   0  0  0  0  0  0  0  0  0  0  0  0
   11.6203   -6.1298    0.0000 C   0  0  0  0  0  0  0  0  0  0  0  0
   11.3531   -6.9108    0.0000 C   0  0  0  0  0  0  0  0  0  0  0  0
 16 17  1  0
 17 18  1  0
  8 10  1  0
  5 19  1  0
  9 10  1  0
 10 20  1  0
  3  6  1  0
  2 21  1  0
  5  4  1  0
  3 22  1  0
  5  6  1  0
  3 23  1  0
  8 24  1  0
  9 12  1  0
 24 25  1  0
 10 14  1  0
 25 26  1  0
 13 11  1  0
 25 27  2  0
 11 12  1  0
 14 28  1  0
 15 28  1  0
 13 14  1  0
 13 29  1  0
  1  2  1  0
 16 30  2  0
 31 32  2  0
  1  4  1  0
  2  3  1  0
  5  9  1  0
  6  7  1  0
  7  8  1  0
 32 33  1  0
 33 34  1  0
 34 35  2  0
 35 31  1  0
 18 31  1  0
 13 18  1  0
 14 15  1  0
 15 16  1  0
M  END
>  <Classification>  (8) 
1

>  <pchembl>  (8) 
5.49

>  <InChI_steorem>  (8) 
InChI=1S/C28H38O7/c1-15(29)33-20-13-18-24(2,3)19(30)8-10-25(18,4)17-7-11-26(5)21(16-9-12-32-14-16)34-23(31)22-28(26,35-22)27(17,20)6/h9,12,14,17-22,30H,7-8,10-11,13H2,1-6H3

>  <source>  (8) 
ChEMBL25

>  <source_id>  (8) 
25

>  <optional_reference>  (8) 
10.1124/mol.112.084152

>  <optional_origin>  (8) 
None

>  <target>  (8) 
OATP1B3

$$$$

     RDKit          2D

 61 69  0  0  0  0  0  0  0  0999 V2000
   12.7634  -23.8616    0.0000 O   0  0  0  0  0  0  0  0  0  0  0  0
   13.1924  -24.5594    0.0000 C   0  0  0  0  0  0  0  0  0  0  0  0
   14.0156  -24.5389    0.0000 C   0  0  0  0  0  0  0  0  0  0  0  0
   14.4491  -25.2366    0.0000 C   0  0  0  0  0  0  0  0  0  0  0  0
   14.0551  -25.9594    0.0000 C   0  0  0  0  0  0  0  0  0  0  0  0
   13.2366  -25.9844    0.0000 C   0  0  0  0  0  0  0  0  0  0  0  0
   12.8030  -25.2821    0.0000 O   0  0  0  0  0  0  0  0  0  0  0  0
   12.8425  -26.7071    0.0000 C   0  0  0  0  0  0  0  0  0  0  0  0
   20.6969  -20.1932    0.0000 C   0  0  0  0  0  0  0  0  0  0  0  0
   21.3924  -20.6334    0.0000 C   0  0  0  0  0  0  0  0  0  0  0  0
   22.1190  -20.2509    0.0000 C   0  0  0  0  0  0  0  0  0  0  0  0
   22.1523  -19.4286    0.0000 C   0  0  0  0  0  0  0  0  0  0  0  0
   21.4568  -18.9929    0.0000 C   0  0  0  0  0  0  0  0  0  0  0  0
   20.7251  -19.3718    0.0000 O   0  0  0  0  0  0  0  0  0  0  0  0
   14.9800  -21.8700    0.0000 C   0  0  0  0  0  0  0  0  0  0  0  0
   14.9455  -22.6968    0.0000 C   0  0  0  0  0  0  0  0  0  0  0  0
   15.6476  -23.1361    0.0000 C   0  0  0  0  0  0  0  0  0  0  0  0
   15.7119  -21.4760    0.0000 C   0  0  0  0  0  0  0  0  0  0  0  0
   16.4140  -21.9208    0.0000 C   0  0  0  0  0  0  0  0  0  0  0  0
   16.3820  -22.7504    0.0000 C   0  0  0  0  0  0  0  0  0  0  0  0
   17.0788  -23.1901    0.0000 C   0  0  0  0  0  0  0  0  0  0  0  0
   17.8153  -22.8059    0.0000 C   0  0  0  0  0  0  0  0  0  0  0  0
   17.1428  -21.5309    0.0000 C   0  0  0  0  0  0  0  0  0  0  0  0
   17.8447  -21.9797    0.0000 C   0  0  0  0  0  0  0  0  0  0  0  0
   17.9188  -20.3238    0.0000 C   0  0  0  0  0  0  0  0  0  0  0  0
   17.1795  -20.7072    0.0000 C   0  0  0  0  0  0  0  0  0  0  0  0
   18.6162  -20.7680    0.0000 C   0  0  0  0  0  0  0  0  0  0  0  0
   18.5797  -21.5941    0.0000 C   0  0  0  0  0  0  0  0  0  0  0  0
   19.3500  -21.8885    0.0000 C   0  0  0  0  0  0  0  0  0  0  0  0
   19.4133  -20.5501    0.0000 C   0  0  0  0  0  0  0  0  0  0  0  0
   19.8702  -21.2442    0.0000 C   0  0  0  0  0  0  0  0  0  0  0  0
   20.6645  -21.0201    0.0000 O   0  0  0  0  0  0  0  0  0  0  0  0
   19.9275  -19.9073    0.0000 C   0  0  0  0  0  0  0  0  0  0  0  0
   16.4377  -21.0950    0.0000 C   0  0  0  0  0  0  0  0  0  0  0  0
   18.6387  -19.9403    0.0000 C   0  0  0  0  0  0  0  0  0  0  0  0
   22.8803  -19.0507    0.0000 C   0  0  0  0  0  0  0  0  0  0  0  0
   19.7075  -19.1106    0.0000 C   0  0  0  0  0  0  0  0  0  0  0  0
   14.2216  -23.0856    0.0000 O   0  0  0  0  0  0  0  0  0  0  0  0
   13.5196  -22.6464    0.0000 C   0  0  0  0  0  0  0  0  0  0  0  0
   13.5569  -21.8227    0.0000 O   0  0  0  0  0  0  0  0  0  0  0  0
   12.8586  -21.3842    0.0000 C   0  0  0  0  0  0  0  0  0  0  0  0
   12.1284  -21.7676    0.0000 C   0  0  0  0  0  0  0  0  0  0  0  0
   12.0964  -22.5919    0.0000 C   0  0  0  0  0  0  0  0  0  0  0  0
   12.7916  -23.0359    0.0000 C   0  0  0  0  0  0  0  0  0  0  0  0
   12.9454  -20.4380    0.0000 C   0  0  0  0  0  0  0  0  0  0  0  0
   11.5494  -21.3141    0.0000 O   0  0  0  0  0  0  0  0  0  0  0  0
   10.7262  -21.3150    0.0000 C   0  0  0  0  0  0  0  0  0  0  0  0
   10.3128  -22.0291    0.0000 C   0  0  0  0  0  0  0  0  0  0  0  0
    9.4942  -22.0301    0.0000 C   0  0  0  0  0  0  0  0  0  0  0  0
    9.0800  -21.3172    0.0000 C   0  0  0  0  0  0  0  0  0  0  0  0
    9.4934  -20.6033    0.0000 C   0  0  0  0  0  0  0  0  0  0  0  0
   10.3165  -20.6068    0.0000 O   0  0  0  0  0  0  0  0  0  0  0  0
    9.0791  -19.8949    0.0000 C   0  0  0  0  0  0  0  0  0  0  0  0
   14.4096  -23.8116    0.0000 O   0  0  0  0  0  0  0  0  0  0  0  0
   15.2723  -25.2116    0.0000 O   0  0  0  0  0  0  0  0  0  0  0  0
   14.4888  -26.6616    0.0000 O   0  0  0  0  0  0  0  0  0  0  0  0
   13.6245  -20.1768    0.0000 O   0  0  0  0  0  0  0  0  0  0  0  0
   11.3658  -22.9784    0.0000 O   0  0  0  0  0  0  0  0  0  0  0  0
   10.7271  -22.7419    0.0000 O   0  0  0  0  0  0  0  0  0  0  0  0
    9.0808  -22.7441    0.0000 O   0  0  0  0  0  0  0  0  0  0  0  0
    8.2568  -21.3183    0.0000 O   0  0  0  0  0  0  0  0  0  0  0  0
  6  7  1  0
  6  8  1  0
  2  7  1  0
  9 10  1  0
  9 14  1  0
 10 11  1  0
 11 12  1  0
 12 13  1  0
 13 14  1  0
 15 16  1  0
 15 18  1  0
 16 17  1  0
 17 20  1  0
 19 18  1  0
 19 20  1  0
 19 23  1  0
 20 21  2  0
 21 22  1  0
 22 24  1  0
 23 24  1  0
 23 26  1  0
 24 28  1  0
 27 25  1  0
 25 26  1  0
 27 28  1  0
 28 29  1  0
 30 27  1  0
 30 31  1  0
 31 32  1  0
 32  9  1  0
  9 33  1  0
 33 30  1  0
 19 34  1  0
 27 35  1  0
 12 36  1  0
 33 37  1  0
 16 38  1  0
 39 38  1  0
 39 40  1  0
 39 44  1  0
 40 41  1  0
 41 42  1  0
 42 43  1  0
 43 44  1  0
 41 45  1  0
 42 46  1  0
 44  1  1  0
 29 31  1  0
 47 46  1  0
 47 48  1  0
 48 49  1  0
 49 50  1  0
 50 51  1  0
 51 52  1  0
 51 53  1  0
 47 52  1  0
  2  1  1  0
  2  3  1  0
  3  4  1  0
  4  5  1  0
  5  6  1  0
  4 55  1  0
 45 57  1  0
  3 54  1  0
 43 58  1  0
  5 56  1  0
 48 59  1  0
 49 60  1  0
 50 61  1  0
M  END
>  <Classification>  (9) 
1

>  <pchembl>  (9) 
5.08

>  <InChI_steorem>  (9) 
InChI=1S/C45H72O16/c1-19-9-14-45(54-18-19)20(2)30-28(61-45)16-27-25-8-7-23-15-24(10-12-43(23,5)26(25)11-13-44(27,30)6)57-42-39(60-41-36(52)34(50)32(48)22(4)56-41)37(53)38(29(17-46)58-42)59-40-35(51)33(49)31(47)21(3)55-40/h7,19-22,24-42,46-53H,8-18H2,1-6H3

>  <source>  (9) 
ChEMBL25

>  <source_id>  (9) 
25

>  <optional_reference>  (9) 
10.1124/dmd.112.049452

>  <optional_origin>  (9) 
None

>  <target>  (9) 
OATP1B3

$$$$

     RDKit          2D

 43 46  0  0  0  0  0  0  0  0999 V2000
   -2.0062   -5.4238    0.0000 C   0  0  0  0  0  0  0  0  0  0  0  0
   -1.1931   -5.2845    0.0000 N   0  0  0  0  0  0  0  0  0  0  0  0
   -1.0738   -4.4677    0.0000 C   0  0  0  0  0  0  0  0  0  0  0  0
   -1.8141   -4.1028    0.0000 C   0  0  0  0  0  0  0  0  0  0  0  0
   -2.3899   -4.6934    0.0000 C   0  0  0  0  0  0  0  0  0  0  0  0
   -3.2063   -4.5745    0.0000 C   0  0  0  0  0  0  0  0  0  0  0  0
   -1.8576   -3.2790    0.0000 C   0  0  0  0  0  0  0  0  0  0  0  0
   -1.1660   -2.8294    0.0000 C   0  0  0  0  0  0  0  0  0  0  0  0
   -1.2095   -2.0056    0.0000 C   0  0  0  0  0  0  0  0  0  0  0  0
   -0.5179   -1.5559    0.0000 O   0  0  0  0  0  0  0  0  0  0  0  0
   -1.9448   -1.6314    0.0000 O   0  0  0  0  0  0  0  0  0  0  0  0
   -0.4030   -3.9873    0.0000 C   0  0  0  0  0  0  0  0  0  0  0  0
    0.3483   -4.3281    0.0000 C   0  0  0  0  0  0  0  0  0  0  0  0
    0.5094   -5.1339    0.0000 N   0  0  0  0  0  0  0  0  0  0  0  0
    1.3273   -5.2258    0.0000 C   0  0  0  0  0  0  0  0  0  0  0  0
    1.6700   -4.4744    0.0000 C   0  0  0  0  0  0  0  0  0  0  0  0
    1.0611   -3.9181    0.0000 C   0  0  0  0  0  0  0  0  0  0  0  0
    2.4781   -4.3084    0.0000 C   0  0  0  0  0  0  0  0  0  0  0  0
    1.0683   -3.0931    0.0000 C   0  0  0  0  0  0  0  0  0  0  0  0
    1.7864   -2.6869    0.0000 C   0  0  0  0  0  0  0  0  0  0  0  0
    1.7935   -1.8619    0.0000 C   0  0  0  0  0  0  0  0  0  0  0  0
    2.5116   -1.4557    0.0000 O   0  0  0  0  0  0  0  0  0  0  0  0
    1.0827   -1.4432    0.0000 O   0  0  0  0  0  0  0  0  0  0  0  0
   -2.3724   -6.1636    0.0000 C   0  0  0  0  0  0  0  0  0  0  0  0
   -2.1063   -6.9445    0.0000 C   0  0  0  0  0  0  0  0  0  0  0  0
   -2.5832   -7.6213    0.0000 C   0  0  0  0  0  0  0  0  0  0  0  0
   -2.0885   -8.2817    0.0000 C   0  0  0  0  0  0  0  0  0  0  0  0
   -1.3077   -8.0155    0.0000 C   0  0  0  0  0  0  0  0  0  0  0  0
   -1.3195   -7.1907    0.0000 N   0  0  0  0  0  0  0  0  0  0  0  0
   -2.3323   -9.0699    0.0000 C   0  0  0  0  0  0  0  0  0  0  0  0
   -0.6334   -8.4908    0.0000 O   0  0  0  0  0  0  0  0  0  0  0  0
   -3.4054   -7.5544    0.0000 C   0  0  0  0  0  0  0  0  0  0  0  0
   -3.7587   -6.8090    0.0000 C   0  0  0  0  0  0  0  0  0  0  0  0
    1.6867   -5.9684    0.0000 C   0  0  0  0  0  0  0  0  0  0  0  0
    1.4559   -6.7605    0.0000 C   0  0  0  0  0  0  0  0  0  0  0  0
    0.6836   -7.0388    0.0000 N   0  0  0  0  0  0  0  0  0  0  0  0
    0.7090   -7.8633    0.0000 C   0  0  0  0  0  0  0  0  0  0  0  0
    1.5011   -8.0941    0.0000 C   0  0  0  0  0  0  0  0  0  0  0  0
    1.9652   -7.4120    0.0000 C   0  0  0  0  0  0  0  0  0  0  0  0
    2.7898   -7.3848    0.0000 C   0  0  0  0  0  0  0  0  0  0  0  0
    1.7801   -8.8704    0.0000 C   0  0  0  0  0  0  0  0  0  0  0  0
    1.2472   -9.5003    0.0000 C   0  0  0  0  0  0  0  0  0  0  0  0
    0.0568   -8.3685    0.0000 O   0  0  0  0  0  0  0  0  0  0  0  0
 20 21  1  0
  5  1  2  0
 21 22  2  0
  9 11  1  0
 21 23  1  0
  1  2  1  0
  1 24  1  0
  3 12  1  0
 24 25  2  3
 25 26  1  0
  5  6  1  0
 12 13  1  0
 13 14  1  0
 26 27  2  0
 27 28  1  0
 28 29  1  0
 29 25  1  0
  4  7  1  0
 27 30  1  0
  2  3  1  0
 28 31  2  0
  7  8  1  0
 26 32  1  0
 14 15  1  0
 32 33  2  0
 15 16  2  0
 15 34  1  0
 16 17  1  0
 34 35  2  3
 35 36  1  0
 17 13  2  0
  3  4  2  0
 16 18  1  0
  8  9  1  0
 36 37  1  0
 37 38  1  0
 38 39  2  0
 39 35  1  0
 17 19  1  0
 39 40  1  0
  4  5  1  0
 38 41  1  0
 19 20  1  0
 41 42  2  0
  9 10  2  0
 37 43  2  0
M  END
>  <Classification>  (10) 
1

>  <pchembl>  (10) 
5.47

>  <InChI_steorem>  (10) 
InChI=1S/C33H36N4O6/c1-7-20-19(6)32(42)37-27(20)14-25-18(5)23(10-12-31(40)41)29(35-25)15-28-22(9-11-30(38)39)17(4)24(34-28)13-26-16(3)21(8-2)33(43)36-26/h7-8,13-14,34-35H,1-2,9-12,15H2,3-6H3,(H,36,43)(H,37,42)(H,38,39)(H,40,41)

>  <source>  (10) 
ChEMBL25

>  <source_id>  (10) 
25

>  <optional_reference>  (10) 
10.1124/mol.112.084152

>  <optional_origin>  (10) 
None

>  <target>  (10) 
OATP1B3

$$$$

     RDKit          2D

 41 44  0  0  0  0  0  0  0  0999 V2000
   10.1042    0.3528    0.0000 C   0  0  0  0  0  0  0  0  0  0  0  0
   10.2833   -0.4528    0.0000 C   0  0  0  0  0  0  0  0  0  0  0  0
   11.1055   -0.5316    0.0000 C   0  0  0  0  0  0  0  0  0  0  0  0
   11.4364    0.2264    0.0000 N   0  0  0  0  0  0  0  0  0  0  0  0
   10.8154    0.7725    0.0000 C   0  0  0  0  0  0  0  0  0  0  0  0
   12.2420    0.4057    0.0000 C   0  0  0  0  0  0  0  0  0  0  0  0
   12.7999   -0.2020    0.0000 C   0  0  0  0  0  0  0  0  0  0  0  0
   13.6105   -0.0157    0.0000 C   0  0  0  0  0  0  0  0  0  0  0  0
   13.8204    0.7810    0.0000 C   0  0  0  0  0  0  0  0  0  0  0  0
   14.6150    1.0016    0.0000 C   0  0  0  0  0  0  0  0  0  0  0  0
   14.8294    1.7992    0.0000 C   0  0  0  0  0  0  0  0  0  0  0  0
   15.6251    2.0154    0.0000 C   0  0  0  0  0  0  0  0  0  0  0  0
   15.8338    2.8166    0.0000 O   0  0  0  0  0  0  0  0  0  0  0  0
   16.2109    1.4350    0.0000 O   0  0  0  0  0  0  0  0  0  0  0  0
    9.3463    0.6836    0.0000 C   0  0  0  0  0  0  0  0  0  0  0  0
    9.2554    1.5011    0.0000 O   0  0  0  0  0  0  0  0  0  0  0  0
    7.9297    0.5193    0.0000 C   0  0  0  0  0  0  0  0  0  0  0  0
    7.8424    1.3383    0.0000 C   0  0  0  0  0  0  0  0  0  0  0  0
    7.0869    1.6647    0.0000 C   0  0  0  0  0  0  0  0  0  0  0  0
    6.4192    1.1735    0.0000 C   0  0  0  0  0  0  0  0  0  0  0  0
    6.5198    0.3504    0.0000 C   0  0  0  0  0  0  0  0  0  0  0  0
    7.2765    0.0258    0.0000 C   0  0  0  0  0  0  0  0  0  0  0  0
    9.7361   -1.0692    0.0000 C   0  0  0  0  0  0  0  0  0  0  0  0
    8.9324   -0.9031    0.0000 C   0  0  0  0  0  0  0  0  0  0  0  0
    8.3865   -1.5226    0.0000 C   0  0  0  0  0  0  0  0  0  0  0  0
    8.6460   -2.3042    0.0000 C   0  0  0  0  0  0  0  0  0  0  0  0
    9.4617   -2.4692    0.0000 C   0  0  0  0  0  0  0  0  0  0  0  0
   10.0016   -1.8475    0.0000 C   0  0  0  0  0  0  0  0  0  0  0  0
   10.8942    1.5947    0.0000 C   0  0  0  0  0  0  0  0  0  0  0  0
   11.6466    1.9375    0.0000 C   0  0  0  0  0  0  0  0  0  0  0  0
   10.2205    2.0739    0.0000 C   0  0  0  0  0  0  0  0  0  0  0  0
   15.2054    0.4222    0.0000 O   0  0  0  0  0  0  0  0  0  0  0  0
   14.1847   -0.6092    0.0000 O   0  0  0  0  0  0  0  0  0  0  0  0
   11.5252   -1.2429    0.0000 C   0  0  0  0  0  0  0  0  0  0  0  0
   11.1196   -1.9602    0.0000 C   0  0  0  0  0  0  0  0  0  0  0  0
   11.5382   -2.6707    0.0000 C   0  0  0  0  0  0  0  0  0  0  0  0
   12.3610   -2.6596    0.0000 C   0  0  0  0  0  0  0  0  0  0  0  0
   12.7687   -1.9361    0.0000 C   0  0  0  0  0  0  0  0  0  0  0  0
   12.3462   -1.2306    0.0000 C   0  0  0  0  0  0  0  0  0  0  0  0
   12.7823   -3.3699    0.0000 F   0  0  0  0  0  0  0  0  0  0  0  0
    8.6858    0.1893    0.0000 N   0  0  0  0  0  0  0  0  0  0  0  0
 37 38  1  0
 38 39  2  0
 39 34  1  0
 37 40  1  0
  1  2  1  0
  2  3  2  0
  3  4  1  0
  4  5  1  0
  5  1  2  0
  4  6  1  0
  6  7  1  0
  7  8  1  0
  8  9  1  0
  9 10  1  0
 10 11  1  0
 11 12  1  0
 12 13  2  0
 12 14  1  0
  1 15  1  0
 15 16  2  0
 17 18  2  0
 18 19  1  0
 19 20  2  0
 20 21  1  0
 21 22  2  0
 22 17  1  0
  2 23  1  0
 23 24  2  0
 24 25  1  0
 25 26  2  0
 26 27  1  0
 27 28  2  0
 28 23  1  0
  5 29  1  0
 29 30  1  0
 29 31  1  0
 10 32  1  0
  8 33  1  0
  3 34  1  0
 34 35  2  0
 35 36  1  0
 36 37  2  0
 15 41  1  0
 41 17  1  0
M  END
>  <Classification>  (11) 
1

>  <pchembl>  (11) 
5.47

>  <InChI_steorem>  (11) 
InChI=1S/C33H35FN2O5/c1-21(2)31-30(33(41)35-25-11-7-4-8-12-25)29(22-9-5-3-6-10-22)32(23-13-15-24(34)16-14-23)36(31)18-17-26(37)19-27(38)20-28(39)40/h3-16,21,26-27,37-38H,17-20H2,1-2H3,(H,35,41)(H,39,40)

>  <source>  (11) 
ChEMBL25

>  <source_id>  (11) 
25

>  <optional_reference>  (11) 
10.1124/mol.112.084152

>  <optional_origin>  (11) 
None

>  <target>  (11) 
OATP1B3

$$$$

     RDKit          2D

 19 19  0  0  0  0  0  0  0  0999 V2000
    0.3682    0.7099    0.0000 C   0  0  0  0  0  0  0  0  0  0  0  0
    1.0827    0.2974    0.0000 C   0  0  0  0  0  0  0  0  0  0  0  0
    1.0827   -0.5276    0.0000 C   0  0  0  0  0  0  0  0  0  0  0  0
    0.3682   -0.9401    0.0000 C   0  0  0  0  0  0  0  0  0  0  0  0
   -0.3463   -0.5276    0.0000 C   0  0  0  0  0  0  0  0  0  0  0  0
   -0.3463    0.2974    0.0000 C   0  0  0  0  0  0  0  0  0  0  0  0
    0.3682   -1.7651    0.0000 C   0  0  0  0  0  0  0  0  0  0  0  0
   -0.3463   -2.1776    0.0000 C   0  0  0  0  0  0  0  0  0  0  0  0
   -0.3463   -3.0026    0.0000 C   0  0  0  0  0  0  0  0  0  0  0  0
   -1.0607   -3.4151    0.0000 C   0  0  0  0  0  0  0  0  0  0  0  0
    0.3682    1.5349    0.0000 N   0  0  0  0  0  0  0  0  0  0  0  0
   -0.3463    1.9474    0.0000 C   0  0  0  0  0  0  0  0  0  0  0  0
   -0.3463    2.7724    0.0000 C   0  0  0  0  0  0  0  0  0  0  0  0
   -1.0607    3.1849    0.0000 Cl  0  0  0  0  0  0  0  0  0  0  0  0
    1.0827    1.9474    0.0000 C   0  0  0  0  0  0  0  0  0  0  0  0
    1.0827    2.7724    0.0000 C   0  0  0  0  0  0  0  0  0  0  0  0
    1.7971    3.1849    0.0000 Cl  0  0  0  0  0  0  0  0  0  0  0  0
   -1.0607   -4.2401    0.0000 O   0  0  0  0  0  0  0  0  0  0  0  0
   -1.7752   -3.0026    0.0000 O   0  0  0  0  0  0  0  0  0  0  0  0
  1  2  2  0
  1  6  1  0
  1 11  1  0
  2  3  1  0
  3  4  2  0
  4  5  1  0
  4  7  1  0
  5  6  2  0
  7  8  1  0
  8  9  1  0
 10  9  1  0
 10 18  2  0
 10 19  1  0
 12 11  1  0
 15 11  1  0
 12 13  1  0
 13 14  1  0
 15 16  1  0
 16 17  1  0
M  END
>  <Classification>  (12) 
0

>  <pchembl>  (12) 
4.09

>  <InChI_steorem>  (12) 
InChI=1S/C14H19Cl2NO2/c15-8-10-17(11-9-16)13-6-4-12(5-7-13)2-1-3-14(18)19/h4-7H,1-3,8-11H2,(H,18,19)

>  <source>  (12) 
ChEMBL25

>  <source_id>  (12) 
25

>  <optional_reference>  (12) 
10.1016/j.ejmech.2015.01.011

>  <optional_origin>  (12) 
None

>  <target>  (12) 
OATP1B3

$$$$

     RDKit          2D

 33 35  0  0  0  0  0  0  0  0999 V2000
   -1.6871    0.4618    0.0000 C   0  0  0  0  0  0  0  0  0  0  0  0
   -1.4440    1.2502    0.0000 O   0  0  0  0  0  0  0  0  0  0  0  0
    0.1614    0.3233    0.0000 O   0  0  0  0  0  0  0  0  0  0  0  0
   -2.5029    0.3389    0.0000 O   0  0  0  0  0  0  0  0  0  0  0  0
   -0.3997   -0.2815    0.0000 C   0  0  0  0  0  0  0  0  0  0  0  0
   -1.2224   -0.2198    0.0000 C   0  0  0  0  0  0  0  0  0  0  0  0
   -1.6871   -0.9015    0.0000 C   0  0  0  0  0  0  0  0  0  0  0  0
   -1.3292   -1.6448    0.0000 C   0  0  0  0  0  0  0  0  0  0  0  0
   -0.5065   -1.7064    0.0000 C   0  0  0  0  0  0  0  0  0  0  0  0
   -0.0418   -1.0248    0.0000 C   0  0  0  0  0  0  0  0  0  0  0  0
   -0.6760    1.5516    0.0000 C   0  0  0  0  0  0  0  0  0  0  0  0
    0.0385    1.1391    0.0000 C   0  0  0  0  0  0  0  0  0  0  0  0
    0.7529    1.5516    0.0000 C   0  0  0  0  0  0  0  0  0  0  0  0
    0.7529    2.3766    0.0000 C   0  0  0  0  0  0  0  0  0  0  0  0
    0.0385    2.7891    0.0000 C   0  0  0  0  0  0  0  0  0  0  0  0
   -0.6760    2.3766    0.0000 C   0  0  0  0  0  0  0  0  0  0  0  0
   -0.1485   -2.4497    0.0000 O   0  0  0  0  0  0  0  0  0  0  0  0
    0.6742   -2.5114    0.0000 C   0  0  0  0  0  0  0  0  0  0  0  0
   -2.5098   -0.8398    0.0000 C   0  0  0  0  0  0  0  0  0  0  0  0
   -2.8678   -0.0965    0.0000 O   0  0  0  0  0  0  0  0  0  0  0  0
   -2.9746   -1.5214    0.0000 C   0  0  0  0  0  0  0  0  0  0  0  0
   -3.7973   -1.4598    0.0000 C   0  0  0  0  0  0  0  0  0  0  0  0
   -4.2620   -2.1414    0.0000 C   0  0  0  0  0  0  0  0  0  0  0  0
   -5.0847   -2.0798    0.0000 C   0  0  0  0  0  0  0  0  0  0  0  0
    0.0385    3.6141    0.0000 O   0  0  0  0  0  0  0  0  0  0  0  0
    1.4674    1.1391    0.0000 C   0  0  0  0  0  0  0  0  0  0  0  0
    1.4674    0.3141    0.0000 C   0  0  0  0  0  0  0  0  0  0  0  0
    2.1819   -0.0984    0.0000 C   0  0  0  0  0  0  0  0  0  0  0  0
    2.8964    0.3141    0.0000 C   0  0  0  0  0  0  0  0  0  0  0  0
    2.8964    1.1391    0.0000 C   0  0  0  0  0  0  0  0  0  0  0  0
    1.4674    2.7891    0.0000 C   0  0  0  0  0  0  0  0  0  0  0  0
    1.4674    3.6141    0.0000 O   0  0  0  0  0  0  0  0  0  0  0  0
    2.1819    2.3766    0.0000 O   0  0  0  0  0  0  0  0  0  0  0  0
 15 16  1  0
 16 11  2  0
 12  3  1  0
  9 17  1  0
  7  8  1  0
 17 18  1  0
  5  3  1  0
  7 19  1  0
  8  9  2  0
 19 20  2  0
  1  2  1  0
 19 21  1  0
  9 10  1  0
 21 22  1  0
 10  5  2  0
 22 23  1  0
  1  4  2  0
 23 24  1  0
  2 11  1  0
 15 25  1  0
 11 12  1  0
 13 26  1  0
  1  6  1  0
 26 27  1  0
 12 13  2  0
 27 28  1  0
  5  6  1  0
 28 29  1  0
 13 14  1  0
 29 30  1  0
 14 31  1  0
 14 15  2  0
 31 32  2  0
  6  7  2  0
 31 33  1  0
M  END
>  <Classification>  (13) 
1

>  <pchembl>  (13) 
5.79

>  <InChI_steorem>  (13) 
InChI=1S/C25H28O8/c1-4-6-8-9-15-21(24(28)29)18(27)13-20-23(15)32-19-12-14(31-3)11-16(17(26)10-7-5-2)22(19)25(30)33-20/h11-13,27H,4-10H2,1-3H3,(H,28,29)

>  <source>  (13) 
ChEMBL25

>  <source_id>  (13) 
25

>  <optional_reference>  (13) 
10.1124/mol.112.084152

>  <optional_origin>  (13) 
None

>  <target>  (13) 
OATP1B3

$$$$

     RDKit          2D

 55 62  0  0  0  0  0  0  0  0999 V2000
   17.4829  -14.7961    0.0000 C   0  0  0  0  0  0  0  0  0  0  0  0
   17.4829  -13.9583    0.0000 C   0  0  0  0  0  0  0  0  0  0  0  0
   16.1086  -14.7755    0.0000 C   0  0  0  0  0  0  0  0  0  0  0  0
   15.4193  -15.2047    0.0000 C   0  0  0  0  0  0  0  0  0  0  0  0
   16.7937  -15.2047    0.0000 C   0  0  0  0  0  0  0  0  0  0  0  0
   18.2424  -13.7065    0.0000 C   0  0  0  0  0  0  0  0  0  0  0  0
   16.7937  -13.5373    0.0000 C   0  0  0  0  0  0  0  0  0  0  0  0
   18.6468  -12.9760    0.0000 C   0  0  0  0  0  0  0  0  0  0  0  0
   11.2467  -15.1676    0.0000 C   0  0  0  0  0  0  0  0  0  0  0  0
    8.4567  -15.9476    0.0000 C   0  0  0  0  0  0  0  0  0  0  0  0
    9.8558  -15.1428    0.0000 C   0  0  0  0  0  0  0  0  0  0  0  0
    7.0699  -15.9270    0.0000 C   0  0  0  0  0  0  0  0  0  0  0  0
   16.1003  -13.9459    0.0000 C   0  0  0  0  0  0  0  0  0  0  0  0
   12.6293  -16.0219    0.0000 C   0  0  0  0  0  0  0  0  0  0  0  0
    9.1624  -14.7218    0.0000 O   0  0  0  0  0  0  0  0  0  0  0  0
   12.6334  -15.1841    0.0000 O   0  0  0  0  0  0  0  0  0  0  0  0
    7.0823  -15.0933    0.0000 O   0  0  0  0  0  0  0  0  0  0  0  0
    9.8434  -15.9765    0.0000 C   0  0  0  0  0  0  0  0  0  0  0  0
   11.9277  -16.4222    0.0000 C   0  0  0  0  0  0  0  0  0  0  0  0
    6.3642  -16.3314    0.0000 C   0  0  0  0  0  0  0  0  0  0  0  0
   19.4516  -12.9760    0.0000 C   0  0  0  0  0  0  0  0  0  0  0  0
   15.4152  -16.0343    0.0000 C   0  0  0  0  0  0  0  0  0  0  0  0
   11.2426  -16.0013    0.0000 C   0  0  0  0  0  0  0  0  0  0  0  0
    9.1377  -16.3851    0.0000 C   0  0  0  0  0  0  0  0  0  0  0  0
    5.6956  -15.0685    0.0000 C   0  0  0  0  0  0  0  0  0  0  0  0
   18.2424  -15.0685    0.0000 C   0  0  0  0  0  0  0  0  0  0  0  0
    8.4815  -15.1180    0.0000 C   0  0  0  0  0  0  0  0  0  0  0  0
   11.9525  -14.7590    0.0000 C   0  0  0  0  0  0  0  0  0  0  0  0
    5.6832  -15.8981    0.0000 C   0  0  0  0  0  0  0  0  0  0  0  0
   19.6993  -12.1753    0.0000 C   0  0  0  0  0  0  0  0  0  0  0  0
    6.4013  -14.6640    0.0000 C   0  0  0  0  0  0  0  0  0  0  0  0
   10.5616  -14.7342    0.0000 O   0  0  0  0  0  0  0  0  0  0  0  0
    7.7509  -16.3562    0.0000 O   0  0  0  0  0  0  0  0  0  0  0  0
   19.0554  -11.6883    0.0000 O   0  0  0  0  0  0  0  0  0  0  0  0
   18.7211  -14.3793    0.0000 C   0  0  0  0  0  0  0  0  0  0  0  0
   14.7260  -14.7961    0.0000 C   0  0  0  0  0  0  0  0  0  0  0  0
   16.7937  -16.0467    0.0000 C   0  0  0  0  0  0  0  0  0  0  0  0
   18.4116  -12.1753    0.0000 C   0  0  0  0  0  0  0  0  0  0  0  0
   13.3144  -16.4429    0.0000 O   0  0  0  0  0  0  0  0  0  0  0  0
   14.7218  -16.4553    0.0000 C   0  0  0  0  0  0  0  0  0  0  0  0
   16.1003  -16.4553    0.0000 C   0  0  0  0  0  0  0  0  0  0  0  0
   17.4829  -15.6298    0.0000 O   0  0  0  0  0  0  0  0  0  0  0  0
   20.4669  -11.9236    0.0000 O   0  0  0  0  0  0  0  0  0  0  0  0
   14.0161  -16.0343    0.0000 C   0  0  0  0  0  0  0  0  0  0  0  0
   17.4829  -13.1287    0.0000 C   0  0  0  0  0  0  0  0  0  0  0  0
   16.7937  -12.7077    0.0000 O   0  0  0  0  0  0  0  0  0  0  0  0
   14.0285  -15.2047    0.0000 C   0  0  0  0  0  0  0  0  0  0  0  0
    4.9774  -14.6269    0.0000 O   0  0  0  0  0  0  0  0  0  0  0  0
   10.5368  -16.4057    0.0000 O   0  0  0  0  0  0  0  0  0  0  0  0
    9.1253  -17.2147    0.0000 O   0  0  0  0  0  0  0  0  0  0  0  0
    4.9444  -16.2860    0.0000 O   0  0  0  0  0  0  0  0  0  0  0  0
   15.4152  -14.3669    0.0000 C   0  0  0  0  0  0  0  0  0  0  0  0
   11.9607  -13.9211    0.0000 C   0  0  0  0  0  0  0  0  0  0  0  0
    7.7551  -14.6971    0.0000 C   0  0  0  0  0  0  0  0  0  0  0  0
    6.4137  -13.8303    0.0000 C   0  0  0  0  0  0  0  0  0  0  0  0
  2  1  1  0
  3  5  1  0
  4  3  1  0
  5  1  1  0
  6  2  1  0
  7  2  1  0
  6  8  1  0
  9 23  1  0
 10 24  1  0
 11 32  1  0
 12 33  1  0
 13  3  1  0
 14 39  1  0
 15 11  1  0
 16 14  1  0
 17 12  1  0
 18 11  1  0
 19 14  1  0
 20 12  1  0
 21  8  2  0
 22 41  1  0
 23 19  1  0
 24 18  1  0
 25 29  1  0
 26  1  1  0
 27 15  1  0
 28 16  1  0
 29 20  1  0
 30 21  1  0
 31 17  1  0
 32  9  1  0
 10 33  1  0
 34 38  1  0
 35 26  1  0
 36  4  1  0
 37  5  1  0
 38  8  1  0
 44 39  1  0
 40 22  1  0
 41 37  1  0
  1 42  1  0
 43 30  2  0
 44 40  1  0
  2 45  1  0
  7 46  1  0
 47 36  1  0
 25 48  1  0
 23 49  1  0
 24 50  1  0
 29 51  1  0
  4 52  1  0
 28 53  1  0
 27 54  1  0
 31 55  1  0
 35  6  1  0
 13  7  1  0
  4 22  1  0
 44 47  1  0
 30 34  1  0
 28  9  1  0
 27 10  1  0
 31 25  1  0
M  END
>  <Classification>  (14) 
0

>  <pchembl>  (14) 
4.88

>  <InChI_steorem>  (14) 
InChI=1S/C41H64O14/c1-19-36(47)28(42)15-34(50-19)54-38-21(3)52-35(17-30(38)44)55-37-20(2)51-33(16-29(37)43)53-24-8-10-39(4)23(13-24)6-7-26-27(39)14-31(45)40(5)25(9-11-41(26,40)48)22-12-32(46)49-18-22/h12,19-21,23-31,33-38,42-45,47-48H,6-11,13-18H2,1-5H3

>  <source>  (14) 
ChEMBL25

>  <source_id>  (14) 
25

>  <optional_reference>  (14) 
10.1124/mol.112.084152

>  <optional_origin>  (14) 
None

>  <target>  (14) 
OATP1B3

$$$$

     RDKit          2D

 18 18  0  0  0  0  0  0  0  0999 V2000
   18.0401  -28.1601    0.0000 C   0  0  0  0  0  0  0  0  0  0  0  0
   13.7849  -28.1683    0.0000 C   0  0  0  0  0  0  0  0  0  0  0  0
   17.3261  -28.5687    0.0000 C   0  0  0  0  0  0  0  0  0  0  0  0
   13.7849  -27.3429    0.0000 C   0  0  0  0  0  0  0  0  0  0  0  0
   13.0792  -28.5769    0.0000 C   0  0  0  0  0  0  0  0  0  0  0  0
   18.0401  -27.3429    0.0000 O   0  0  0  0  0  0  0  0  0  0  0  0
   13.0751  -26.9343    0.0000 C   0  0  0  0  0  0  0  0  0  0  0  0
   18.7459  -28.5687    0.0000 O   0  0  0  0  0  0  0  0  0  0  0  0
   12.3734  -28.1683    0.0000 C   0  0  0  0  0  0  0  0  0  0  0  0
   12.3734  -27.3511    0.0000 C   0  0  0  0  0  0  0  0  0  0  0  0
   14.4990  -28.5687    0.0000 O   0  0  0  0  0  0  0  0  0  0  0  0
   16.6203  -28.1601    0.0000 C   0  0  0  0  0  0  0  0  0  0  0  0
   16.9175  -29.2744    0.0000 C   0  0  0  0  0  0  0  0  0  0  0  0
   17.7347  -29.2744    0.0000 C   0  0  0  0  0  0  0  0  0  0  0  0
   14.4907  -26.9302    0.0000 C   0  0  0  0  0  0  0  0  0  0  0  0
   15.2047  -28.1683    0.0000 C   0  0  0  0  0  0  0  0  0  0  0  0
   11.6635  -28.5769    0.0000 C   0  0  0  0  0  0  0  0  0  0  0  0
   15.9146  -28.5687    0.0000 C   0  0  0  0  0  0  0  0  0  0  0  0
  2 11  1  0
  3  1  1  0
  4  2  2  0
  5  2  1  0
  6  1  2  0
  7  4  1  0
  8  1  1  0
  9  5  2  0
 10  9  1  0
 11 16  1  0
 12  3  1  0
 13  3  1  0
 14  3  1  0
 15  4  1  0
 16 18  1  0
 17  9  1  0
 18 12  1  0
  7 10  2  0
M  END
>  <Classification>  (15) 
1

>  <pchembl>  (15) 
5.15

>  <InChI_steorem>  (15) 
InChI=1S/C15H22O3/c1-11-6-7-12(2)13(10-11)18-9-5-8-15(3,4)14(16)17/h6-7,10H,5,8-9H2,1-4H3,(H,16,17)

>  <source>  (15) 
ChEMBL25

>  <source_id>  (15) 
25

>  <optional_reference>  (15) 
10.1124/mol.112.084152

>  <optional_origin>  (15) 
None

>  <target>  (15) 
OATP1B3

$$$$

     RDKit          2D

 52 54  0  0  0  0  0  0  0  0999 V2000
   -1.2948    5.6332    0.0000 C   0  0  0  0  0  0  0  0  0  0  0  0
    2.6351    2.1015    0.0000 C   0  0  0  0  0  0  0  0  0  0  0  0
    3.2860   -0.7500    0.0000 C   0  0  0  0  0  0  0  0  0  0  0  0
    0.0000   -3.3705    0.0000 C   0  0  0  0  0  0  0  0  0  0  0  0
    3.2860    0.7500    0.0000 C   0  0  0  0  0  0  0  0  0  0  0  0
   -2.5944    4.8840    0.0000 C   0  0  0  0  0  0  0  0  0  0  0  0
    0.0000    3.3705    0.0000 C   0  0  0  0  0  0  0  0  0  0  0  0
    1.4624    3.0367    0.0000 C   0  0  0  0  0  0  0  0  0  0  0  0
   -2.6351   -2.1015    0.0000 C   0  0  0  0  0  0  0  0  0  0  0  0
    2.6351   -2.1015    0.0000 O   0  0  0  0  0  0  0  0  0  0  0  0
   -1.4624   -3.0367    0.0000 C   0  0  0  0  0  0  0  0  0  0  0  0
   -3.2860   -0.7500    0.0000 C   0  0  0  0  0  0  0  0  0  0  0  0
    0.0030    4.8795    0.0000 O   0  0  0  0  0  0  0  0  0  0  0  0
    4.5283    6.9502    0.0000 C   0  0  0  0  0  0  0  0  0  0  0  0
   -3.8930    5.6347    0.0000 C   0  0  0  0  0  0  0  0  0  0  0  0
   -1.4624    3.0367    0.0000 C   0  0  0  0  0  0  0  0  0  0  0  0
    3.5874    4.5284    0.0000 C   0  0  0  0  0  0  0  0  0  0  0  0
    4.7569    5.4677    0.0000 C   0  0  0  0  0  0  0  0  0  0  0  0
   -1.2941    7.1333    0.0000 O   0  0  0  0  0  0  0  0  0  0  0  0
    2.1892    5.0718    0.0000 O   0  0  0  0  0  0  0  0  0  0  0  0
    1.4624   -3.0367    0.0000 C   0  0  0  0  0  0  0  0  0  0  0  0
    3.1302    7.4934    0.0000 C   0  0  0  0  0  0  0  0  0  0  0  0
    3.8131    3.0446    0.0000 O   0  0  0  0  0  0  0  0  0  0  0  0
    1.9606    6.5542    0.0000 C   0  0  0  0  0  0  0  0  0  0  0  0
   -3.2860    0.7500    0.0000 C   0  0  0  0  0  0  0  0  0  0  0  0
   -2.6352    2.1014    0.0000 C   0  0  0  0  0  0  0  0  0  0  0  0
   -3.8922    7.1347    0.0000 C   0  0  0  0  0  0  0  0  0  0  0  0
   -5.1947    4.8877    0.0000 N   0  0  0  0  0  0  0  0  0  0  0  0
    4.4559   -1.0170    0.0000 O   0  0  0  0  0  0  0  0  0  0  0  0
   -2.5927    7.8840    0.0000 C   0  0  0  0  0  0  0  0  0  0  0  0
   -4.4559   -1.0170    0.0000 O   0  0  0  0  0  0  0  0  0  0  0  0
    1.0687   -3.9163    0.0000 O   0  0  0  0  0  0  0  0  0  0  0  0
   -2.5951    3.6840    0.0000 O   0  0  0  0  0  0  0  0  0  0  0  0
   -1.9830   -4.1179    0.0000 O   0  0  0  0  0  0  0  0  0  0  0  0
    4.2668    8.4073    0.0000 O   0  0  0  0  0  0  0  0  0  0  0  0
   -0.5786    4.1974    0.0000 O   0  0  0  0  0  0  0  0  0  0  0  0
    2.9473    8.6794    0.0000 O   0  0  0  0  0  0  0  0  0  0  0  0
   -1.0687   -3.9163    0.0000 C   0  0  0  0  0  0  0  0  0  0  0  0
    4.4559    1.0170    0.0000 C   0  0  0  0  0  0  0  0  0  0  0  0
    1.9830    4.1179    0.0000 C   0  0  0  0  0  0  0  0  0  0  0  0
   -3.5733   -2.8497    0.0000 C   0  0  0  0  0  0  0  0  0  0  0  0
    5.6359    6.4883    0.0000 C   0  0  0  0  0  0  0  0  0  0  0  0
   -2.6621    3.0636    0.0000 C   0  0  0  0  0  0  0  0  0  0  0  0
    2.1198   -4.3949    0.0000 C   0  0  0  0  0  0  0  0  0  0  0  0
    0.8421    6.9889    0.0000 C   0  0  0  0  0  0  0  0  0  0  0  0
   -4.4559    1.0170    0.0000 C   0  0  0  0  0  0  0  0  0  0  0  0
   -6.2328    5.4898    0.0000 C   0  0  0  0  0  0  0  0  0  0  0  0
   -5.1975    3.6877    0.0000 C   0  0  0  0  0  0  0  0  0  0  0  0
   -2.5920    9.0840    0.0000 C   0  0  0  0  0  0  0  0  0  0  0  0
    0.6181    4.1083    0.0000 C   0  0  0  0  0  0  0  0  0  0  0  0
    5.1640    9.2042    0.0000 C   0  0  0  0  0  0  0  0  0  0  0  0
    3.3166   -4.4830    0.0000 C   0  0  0  0  0  0  0  0  0  0  0  0
  2  8  1  0
  3  5  1  0
  4 11  1  0
  5  2  1  0
  6  1  1  0
  7 13  1  0
  8  7  1  0
  9 12  1  0
 10  3  1  0
 11  9  1  0
 12 25  1  0
  1 13  1  0
 14 18  1  0
 15  6  1  0
 16  7  1  0
 17 23  1  0
 18 17  1  0
 19  1  1  0
 20 17  1  0
 21 10  1  0
 22 24  1  0
  2 23  1  0
 24 20  1  0
 25 26  1  0
 26 16  1  0
 27 30  1  0
 15 28  1  0
 29  3  2  0
 30 19  1  0
 31 12  2  0
  4 32  1  0
  6 33  1  0
 11 34  1  0
 14 35  1  0
 16 36  1  0
 22 37  1  0
 38  4  1  0
  5 39  1  0
  8 40  1  0
  9 41  1  0
 14 42  1  0
 16 43  1  0
 21 44  1  0
 24 45  1  0
 25 46  1  0
 47 28  1  0
 48 28  1  0
 30 49  1  0
 50 36  1  0
 51 35  1  0
 52 44  1  0
 27 15  1  0
 21  4  1  0
 22 14  1  0
M  END
>  <Classification>  (16) 
1

>  <pchembl>  (16) 
5.48

>  <InChI_steorem>  (16) 
InChI=1S/C38H69NO13/c1-15-26-38(10,45)31(42)21(4)28(40)19(2)17-37(9,47-14)33(52-35-29(41)25(39(11)12)16-20(3)48-35)22(5)30(23(6)34(44)50-26)51-27-18-36(8,46-13)32(43)24(7)49-27/h19-27,29-33,35,41-43,45H,15-18H2,1-14H3

>  <source>  (16) 
ChEMBL25

>  <source_id>  (16) 
25

>  <optional_reference>  (16) 
10.1124/mol.112.084152

>  <optional_origin>  (16) 
None

>  <target>  (16) 
OATP1B3

$$$$

     RDKit          2D

 59 63  0  0  0  0  0  0  0  0999 V2000
   -0.6300   -2.6500    0.0000 C   0  0  0  0  0  0  0  0  0  0  0  0
    3.2300   -0.3900    0.0000 C   0  0  0  0  0  0  0  0  0  0  0  0
    3.2300   -1.8800    0.0000 C   0  0  0  0  0  0  0  0  0  0  0  0
   -1.9300   -1.8800    0.0000 C   0  0  0  0  0  0  0  0  0  0  0  0
    0.6600   -0.3900    0.0000 C   0  0  0  0  0  0  0  0  0  0  0  0
    0.6600   -1.8700    0.0000 C   0  0  0  0  0  0  0  0  0  0  0  0
   -2.3800   -4.2600    0.0000 C   0  0  0  0  0  0  0  0  0  0  0  0
    4.1900    0.5300    0.0000 N   0  0  0  0  0  0  0  0  0  0  0  0
   -3.0100   -2.9400    0.0000 O   0  0  0  0  0  0  0  0  0  0  0  0
    1.9500    0.3100    0.0000 C   0  0  0  0  0  0  0  0  0  0  0  0
    1.9500   -2.6500    0.0000 C   0  0  0  0  0  0  0  0  0  0  0  0
   -0.6300    0.3100    0.0000 C   0  0  0  0  0  0  0  0  0  0  0  0
   -0.9200   -4.0700    0.0000 C   0  0  0  0  0  0  0  0  0  0  0  0
   -1.9300   -0.3900    0.0000 C   0  0  0  0  0  0  0  0  0  0  0  0
   -4.3000    2.7200    0.0000 C   0  0  0  0  0  0  0  0  0  0  0  0
    4.1900    2.1300    0.0000 C   0  0  0  0  0  0  0  0  0  0  0  0
   -3.1000    3.5700    0.0000 C   0  0  0  0  0  0  0  0  0  0  0  0
   -2.2100    5.6200    0.0000 C   0  0  0  0  0  0  0  0  0  0  0  0
   -3.5200    5.0300    0.0000 C   0  0  0  0  0  0  0  0  0  0  0  0
    4.5074   -2.6667    0.0000 C   0  0  0  0  0  0  0  0  0  0  0  0
   -3.7300    1.3600    0.0000 C   0  0  0  0  0  0  0  0  0  0  0  0
    5.7441   -4.9537    0.0000 N   0  0  0  0  0  0  0  0  0  0  0  0
   -0.7000    4.9800    0.0000 C   0  0  0  0  0  0  0  0  0  0  0  0
    4.4660   -4.1670    0.0000 N   0  0  0  0  0  0  0  0  0  0  0  0
    5.4300    2.9200    0.0000 C   0  0  0  0  0  0  0  0  0  0  0  0
   -4.8700   -4.7400    0.0000 O   0  0  0  0  0  0  0  0  0  0  0  0
   -5.7879    3.1064    0.0000 O   0  0  0  0  0  0  0  0  0  0  0  0
    8.3021   -6.5212    0.0000 N   0  0  0  0  0  0  0  0  0  0  0  0
   -5.8600   -3.2000    0.0000 C   0  0  0  0  0  0  0  0  0  0  0  0
   -6.1887    4.5527    0.0000 C   0  0  0  0  0  0  0  0  0  0  0  0
   -4.6200   -1.6300    0.0000 C   0  0  0  0  0  0  0  0  0  0  0  0
   -4.9900    0.0000    0.0000 C   0  0  0  0  0  0  0  0  0  0  0  0
    3.9200    5.5200    0.0000 C   0  0  0  0  0  0  0  0  0  0  0  0
   -0.1213   -4.9656    0.0000 O   0  0  0  0  0  0  0  0  0  0  0  0
    5.4300    4.5000    0.0000 C   0  0  0  0  0  0  0  0  0  0  0  0
    3.1522    2.7324    0.0000 O   0  0  0  0  0  0  0  0  0  0  0  0
    5.7049   -6.4533    0.0000 C   0  0  0  0  0  0  0  0  0  0  0  0
    7.0624   -4.2380    0.0000 C   0  0  0  0  0  0  0  0  0  0  0  0
    0.8100    5.4600    0.0000 C   0  0  0  0  0  0  0  0  0  0  0  0
    2.2200    4.6900    0.0000 C   0  0  0  0  0  0  0  0  0  0  0  0
   -7.3502    4.8541    0.0000 O   0  0  0  0  0  0  0  0  0  0  0  0
    1.9500    1.5100    0.0000 O   0  0  0  0  0  0  0  0  0  0  0  0
    1.9500   -3.8500    0.0000 O   0  0  0  0  0  0  0  0  0  0  0  0
   -0.6300    1.5100    0.0000 O   0  0  0  0  0  0  0  0  0  0  0  0
    8.3413   -5.0218    0.0000 C   0  0  0  0  0  0  0  0  0  0  0  0
    6.9839   -7.2370    0.0000 C   0  0  0  0  0  0  0  0  0  0  0  0
   -4.6058    5.5410    0.0000 O   0  0  0  0  0  0  0  0  0  0  0  0
   -0.7000    3.7800    0.0000 O   0  0  0  0  0  0  0  0  0  0  0  0
   -2.2267   -5.4502    0.0000 C   0  0  0  0  0  0  0  0  0  0  0  0
   -2.9674    0.2131    0.0000 C   0  0  0  0  0  0  0  0  0  0  0  0
   -1.9516    3.2220    0.0000 C   0  0  0  0  0  0  0  0  0  0  0  0
   -2.2100    6.8200    0.0000 C   0  0  0  0  0  0  0  0  0  0  0  0
   -6.5219    0.1638    0.0000 O   0  0  0  0  0  0  0  0  0  0  0  0
   -2.5544    1.1190    0.0000 C   0  0  0  0  0  0  0  0  0  0  0  0
    9.3253   -7.1482    0.0000 C   0  0  0  0  0  0  0  0  0  0  0  0
    6.5322    2.4455    0.0000 C   0  0  0  0  0  0  0  0  0  0  0  0
   -5.3472    5.4082    0.0000 C   0  0  0  0  0  0  0  0  0  0  0  0
    0.8100    6.6600    0.0000 C   0  0  0  0  0  0  0  0  0  0  0  0
   -7.0081    1.2608    0.0000 C   0  0  0  0  0  0  0  0  0  0  0  0
  2  3  1  0
  3 11  2  0
  4  1  2  0
  5  6  2  0
  6  1  1  0
  7 13  1  0
  8  2  1  0
  9  4  1  0
 10  5  1  0
 11  6  1  0
 12  5  1  0
 13  1  1  0
 14  4  1  0
 15 21  1  0
 16  8  1  0
 17 15  1  0
 18 19  1  0
 19 17  1  0
 20  3  1  0
 21 32  1  0
 22 24  1  0
 23 18  1  0
 24 20  2  3
 25 16  1  0
 26  7  1  0
 15 27  1  0
 28 45  1  0
 29 26  1  0
 30 27  1  0
 31 29  2  0
 32 31  1  0
 33 35  1  0
 34 13  2  0
 35 25  2  0
 36 16  2  0
 37 22  1  0
 38 22  1  0
 39 40  1  0
 40 33  2  0
 41 30  2  0
 42 10  1  0
 43 11  1  0
 44 12  1  0
 45 38  1  0
 46 37  1  0
 19 47  1  0
 23 48  1  0
  7 49  1  0
 50 14  1  0
 17 51  1  0
 18 52  1  0
 32 53  1  0
 21 54  1  0
 55 28  1  0
 56 25  1  0
 57 30  1  0
 39 58  1  0
 59 53  1  0
 12 14  2  0
  9  7  1  0
 10  2  2  0
 46 28  1  0
 39 23  1  0
M  END
>  <Classification>  (17) 
1

>  <pchembl>  (17) 
5.3

>  <InChI_steorem>  (17) 
InChI=1S/C43H58N4O12/c1-21-12-11-13-22(2)42(55)45-33-28(20-44-47-17-15-46(9)16-18-47)37(52)30-31(38(33)53)36(51)26(6)40-32(30)41(54)43(8,59-40)57-19-14-29(56-10)23(3)39(58-27(7)48)25(5)35(50)24(4)34(21)49/h11-14,19-21,23-25,29,34-35,39,49-53H,15-18H2,1-10H3,(H,45,55)

>  <source>  (17) 
ChEMBL25

>  <source_id>  (17) 
25

>  <optional_reference>  (17) 
10.1053/jhep.2002.34133

>  <optional_origin>  (17) 
None

>  <target>  (17) 
OATP1B3

$$$$

     RDKit          2D

 32 35  0  0  0  0  0  0  0  0999 V2000
   12.6652    1.8084    0.0000 C   0  0  0  0  0  0  0  0  0  0  0  0
   12.6641    0.9810    0.0000 C   0  0  0  0  0  0  0  0  0  0  0  0
   13.3789    0.5681    0.0000 C   0  0  0  0  0  0  0  0  0  0  0  0
   13.3771    2.2211    0.0000 C   0  0  0  0  0  0  0  0  0  0  0  0
   11.9507    2.2207    0.0000 O   0  0  0  0  0  0  0  0  0  0  0  0
   13.3787   -0.2569    0.0000 O   0  0  0  0  0  0  0  0  0  0  0  0
   14.0925    1.8120    0.0000 C   0  0  0  0  0  0  0  0  0  0  0  0
   14.0913    0.9789    0.0000 C   0  0  0  0  0  0  0  0  0  0  0  0
   14.8082    0.5637    0.0000 C   0  0  0  0  0  0  0  0  0  0  0  0
   15.5308    0.9769    0.0000 C   0  0  0  0  0  0  0  0  0  0  0  0
   15.5320    1.8099    0.0000 C   0  0  0  0  0  0  0  0  0  0  0  0
   14.8106    2.2298    0.0000 O   0  0  0  0  0  0  0  0  0  0  0  0
   16.2475    2.2207    0.0000 C   0  0  0  0  0  0  0  0  0  0  0  0
   16.2441    0.5623    0.0000 O   0  0  0  0  0  0  0  0  0  0  0  0
   16.9595    1.8021    0.0000 C   0  0  0  0  0  0  0  0  0  0  0  0
   17.6745    2.2122    0.0000 C   0  0  0  0  0  0  0  0  0  0  0  0
   17.6770    3.0381    0.0000 C   0  0  0  0  0  0  0  0  0  0  0  0
   16.9585    3.4522    0.0000 C   0  0  0  0  0  0  0  0  0  0  0  0
   16.2465    3.0397    0.0000 C   0  0  0  0  0  0  0  0  0  0  0  0
   16.9576    4.2812    0.0000 O   0  0  0  0  0  0  0  0  0  0  0  0
   18.3919    3.4498    0.0000 O   0  0  0  0  0  0  0  0  0  0  0  0
   16.2418   -0.2626    0.0000 C   0  0  0  0  0  0  0  0  0  0  0  0
   16.9551   -0.6772    0.0000 C   0  0  0  0  0  0  0  0  0  0  0  0
   15.5262   -0.6731    0.0000 O   0  0  0  0  0  0  0  0  0  0  0  0
   16.9491   -1.5011    0.0000 C   0  0  0  0  0  0  0  0  0  0  0  0
   17.6615   -1.9155    0.0000 C   0  0  0  0  0  0  0  0  0  0  0  0
   18.3781   -1.5050    0.0000 C   0  0  0  0  0  0  0  0  0  0  0  0
   18.3778   -0.6757    0.0000 C   0  0  0  0  0  0  0  0  0  0  0  0
   17.6648   -0.2650    0.0000 C   0  0  0  0  0  0  0  0  0  0  0  0
   19.0920   -0.2627    0.0000 O   0  0  0  0  0  0  0  0  0  0  0  0
   19.0920   -1.9185    0.0000 O   0  0  0  0  0  0  0  0  0  0  0  0
   17.6588   -2.7405    0.0000 O   0  0  0  0  0  0  0  0  0  0  0  0
  3  8  2  0
 15 16  2  0
  1  2  2  0
 16 17  1  0
  7  4  2  0
 17 18  2  0
  4  1  1  0
 18 19  1  0
 19 13  2  0
 18 20  1  0
  1  5  1  0
 17 21  1  0
  7 12  1  0
 14 22  1  0
  8  9  1  0
 22 23  1  0
  9 10  1  0
 22 24  2  0
 10 11  1  0
 23 25  2  0
 11 12  1  0
 25 26  1  0
  2  3  1  0
 26 27  2  0
 11 13  1  0
 27 28  1  0
  3  6  1  0
 28 29  2  0
 29 23  1  0
 10 14  1  0
 28 30  1  0
  7  8  1  0
 27 31  1  0
 13 15  1  0
 26 32  1  0
M  END
>  <Classification>  (18) 
1

>  <pchembl>  (18) 
5.35

>  <InChI_steorem>  (18) 
InChI=1S/C22H18O10/c23-11-6-14(25)12-8-19(32-22(30)10-4-16(27)20(29)17(28)5-10)21(31-18(12)7-11)9-1-2-13(24)15(26)3-9/h1-7,19,21,23-29H,8H2

>  <source>  (18) 
ChEMBL25

>  <source_id>  (18) 
25

>  <optional_reference>  (18) 
10.1124/mol.112.084152

>  <optional_origin>  (18) 
None

>  <target>  (18) 
OATP1B3

$$$$

     RDKit          2D

 30 35  0  0  0  0  0  0  0  0999 V2000
    1.3458   -3.5792    0.0000 O   0  0  0  0  0  0  0  0  0  0  0  0
    1.3458   -4.4042    0.0000 C   0  0  0  0  0  0  0  0  0  0  0  0
    2.0579   -4.8125    0.0000 C   0  0  0  0  0  0  0  0  0  0  0  0
    2.7699   -4.4042    0.0000 C   0  0  0  0  0  0  0  0  0  0  0  0
    2.7699   -3.5792    0.0000 C   0  0  0  0  0  0  0  0  0  0  0  0
    2.0579   -3.1625    0.0000 C   0  0  0  0  0  0  0  0  0  0  0  0
   -4.2958   -6.3125    0.0000 C   0  0  0  0  0  0  0  0  0  0  0  0
   -4.2958   -7.1375    0.0000 C   0  0  0  0  0  0  0  0  0  0  0  0
   -3.5838   -7.5458    0.0000 C   0  0  0  0  0  0  0  0  0  0  0  0
   -3.5838   -5.8958    0.0000 C   0  0  0  0  0  0  0  0  0  0  0  0
   -2.8718   -6.3125    0.0000 C   0  0  0  0  0  0  0  0  0  0  0  0
   -2.8707   -7.1375    0.0000 C   0  0  0  0  0  0  0  0  0  0  0  0
   -2.1597   -7.5468    0.0000 C   0  0  0  0  0  0  0  0  0  0  0  0
   -1.4451   -7.1357    0.0000 C   0  0  0  0  0  0  0  0  0  0  0  0
   -2.8792   -5.4875    0.0000 C   0  0  0  0  0  0  0  0  0  0  0  0
   -2.1618   -5.8968    0.0000 C   0  0  0  0  0  0  0  0  0  0  0  0
   -1.4443   -6.3113    0.0000 C   0  0  0  0  0  0  0  0  0  0  0  0
   -1.4455   -4.6569    0.0000 C   0  0  0  0  0  0  0  0  0  0  0  0
   -2.1655   -5.0704    0.0000 C   0  0  0  0  0  0  0  0  0  0  0  0
   -0.7280   -5.0714    0.0000 C   0  0  0  0  0  0  0  0  0  0  0  0
   -0.7311   -5.9009    0.0000 C   0  0  0  0  0  0  0  0  0  0  0  0
    0.0568   -6.1602    0.0000 C   0  0  0  0  0  0  0  0  0  0  0  0
    0.0619   -4.8182    0.0000 C   0  0  0  0  0  0  0  0  0  0  0  0
    0.5482   -5.4942    0.0000 C   0  0  0  0  0  0  0  0  0  0  0  0
    1.3415   -5.2405    0.0000 O   0  0  0  0  0  0  0  0  0  0  0  0
    0.5545   -4.1467    0.0000 C   0  0  0  0  0  0  0  0  0  0  0  0
   -0.7333   -4.2458    0.0000 C   0  0  0  0  0  0  0  0  0  0  0  0
    0.3032   -3.3609    0.0000 C   0  0  0  0  0  0  0  0  0  0  0  0
    3.4855   -3.1688    0.0000 C   0  0  0  0  0  0  0  0  0  0  0  0
   -5.0097   -7.5510    0.0000 O   0  0  0  0  0  0  0  0  0  0  0  0
  2  3  1  0
  7 10  1  0
 16 19  1  0
 17 21  1  0
 20 18  1  0
 18 19  1  0
 20 21  1  0
  8  9  1  0
  9 12  1  0
 11 10  1  0
 21 22  1  0
 22 24  1  0
 23 20  1  0
 23 24  1  0
 11 12  1  0
  3  4  1  0
  4  5  1  0
  5  6  1  0
 24 25  1  0
 25  2  1  0
  2 26  1  0
 26 23  1  0
  7  8  1  0
 20 27  1  0
 11 16  1  0
 26 28  1  0
 12 13  1  0
  5 29  1  0
 13 14  1  0
  8 30  1  0
 14 17  1  0
 11 15  1  0
 16 17  1  0
  2  1  1  0
  1  6  1  0
M  END
>  <Classification>  (19) 
1

>  <pchembl>  (19) 
6.98

>  <InChI_steorem>  (19) 
InChI=1S/C27H44O3/c1-16-7-12-27(29-15-16)17(2)24-23(30-27)14-22-20-6-5-18-13-19(28)8-10-25(18,3)21(20)9-11-26(22,24)4/h16-24,28H,5-15H2,1-4H3

>  <source>  (19) 
ChEMBL25

>  <source_id>  (19) 
25

>  <optional_reference>  (19) 
10.1124/mol.112.084152

>  <optional_origin>  (19) 
None

>  <target>  (19) 
OATP1B3

$$$$

     RDKit          2D

 43 43  0  0  0  0  0  0  0  0999 V2000
   21.1462   -4.5021    0.0000 C   0  0  0  0  0  0  0  0  0  0  0  0
   20.4317   -4.0894    0.0000 C   0  0  0  0  0  0  0  0  0  0  0  0
   19.7173   -4.5021    0.0000 O   0  0  0  0  0  0  0  0  0  0  0  0
   19.0028   -4.0894    0.0000 C   0  0  0  0  0  0  0  0  0  0  0  0
   18.2947   -4.5021    0.0000 C   0  0  0  0  0  0  0  0  0  0  0  0
   17.5803   -4.0894    0.0000 O   0  0  0  0  0  0  0  0  0  0  0  0
   16.8723   -4.5021    0.0000 C   0  0  0  0  0  0  0  0  0  0  0  0
   16.1579   -4.0894    0.0000 C   0  0  0  0  0  0  0  0  0  0  0  0
   15.4435   -4.5021    0.0000 O   0  0  0  0  0  0  0  0  0  0  0  0
   14.7290   -4.0894    0.0000 C   0  0  0  0  0  0  0  0  0  0  0  0
   14.0146   -4.5021    0.0000 C   0  0  0  0  0  0  0  0  0  0  0  0
   13.3066   -4.0894    0.0000 O   0  0  0  0  0  0  0  0  0  0  0  0
   12.5922   -4.5021    0.0000 C   0  0  0  0  0  0  0  0  0  0  0  0
   11.8777   -4.0894    0.0000 C   0  0  0  0  0  0  0  0  0  0  0  0
   11.1698   -4.5021    0.0000 O   0  0  0  0  0  0  0  0  0  0  0  0
   10.4553   -4.0894    0.0000 C   0  0  0  0  0  0  0  0  0  0  0  0
    9.7472   -4.5021    0.0000 C   0  0  0  0  0  0  0  0  0  0  0  0
    9.0328   -4.0894    0.0000 O   0  0  0  0  0  0  0  0  0  0  0  0
    8.3183   -4.5021    0.0000 C   0  0  0  0  0  0  0  0  0  0  0  0
    7.6039   -4.0894    0.0000 C   0  0  0  0  0  0  0  0  0  0  0  0
    6.8894   -4.5021    0.0000 O   0  0  0  0  0  0  0  0  0  0  0  0
    6.1815   -4.0894    0.0000 C   0  0  0  0  0  0  0  0  0  0  0  0
    5.4671   -4.5021    0.0000 C   0  0  0  0  0  0  0  0  0  0  0  0
    4.7526   -4.0894    0.0000 O   0  0  0  0  0  0  0  0  0  0  0  0
    4.0382   -4.5021    0.0000 C   0  0  0  0  0  0  0  0  0  0  0  0
    3.3302   -4.0894    0.0000 C   0  0  0  0  0  0  0  0  0  0  0  0
    2.6158   -4.5021    0.0000 O   0  0  0  0  0  0  0  0  0  0  0  0
    1.9077   -4.0894    0.0000 C   0  0  0  0  0  0  0  0  0  0  0  0
    1.1934   -4.5021    0.0000 C   0  0  0  0  0  0  0  0  0  0  0  0
    0.4789   -4.0894    0.0000 C   0  0  0  0  0  0  0  0  0  0  0  0
    0.4789   -3.2705    0.0000 C   0  0  0  0  0  0  0  0  0  0  0  0
    1.1934   -2.8579    0.0000 C   0  0  0  0  0  0  0  0  0  0  0  0
    1.9078   -3.2705    0.0000 C   0  0  0  0  0  0  0  0  0  0  0  0
   -0.2355   -2.8579    0.0000 C   0  0  0  0  0  0  0  0  0  0  0  0
   -0.9500   -3.2705    0.0000 C   0  0  0  0  0  0  0  0  0  0  0  0
   -1.6581   -2.8579    0.0000 C   0  0  0  0  0  0  0  0  0  0  0  0
   -2.3725   -3.2705    0.0000 C   0  0  0  0  0  0  0  0  0  0  0  0
   -3.0870   -2.8579    0.0000 C   0  0  0  0  0  0  0  0  0  0  0  0
   -3.7949   -3.2705    0.0000 C   0  0  0  0  0  0  0  0  0  0  0  0
   -4.5093   -2.8579    0.0000 C   0  0  0  0  0  0  0  0  0  0  0  0
   -5.2173   -3.2705    0.0000 C   0  0  0  0  0  0  0  0  0  0  0  0
   -5.9317   -2.8579    0.0000 C   0  0  0  0  0  0  0  0  0  0  0  0
   21.8541   -4.0894    0.0000 O   0  0  0  0  0  0  0  0  0  0  0  0
  1  2  1  0
  4  5  1  0
  3  4  1  0
  7  8  1  0
  6  7  1  0
 10 11  1  0
  9 10  1  0
 13 14  1  0
 12 13  1  0
 16 17  1  0
 15 16  1  0
 19 20  1  0
 18 19  1  0
 22 23  1  0
 21 22  1  0
 25 26  1  0
 24 25  1  0
 28 29  2  0
 29 30  1  0
 30 31  2  0
 31 32  1  0
 32 33  2  0
 28 33  1  0
 27 28  1  0
 34 35  1  0
 35 36  1  0
 36 37  1  0
 37 38  1  0
 38 39  1  0
 39 40  1  0
 40 41  1  0
 41 42  1  0
 31 34  1  0
 26 27  1  0
 23 24  1  0
 20 21  1  0
 17 18  1  0
 14 15  1  0
 11 12  1  0
  8  9  1  0
  5  6  1  0
  2  3  1  0
  1 43  1  0
M  END
>  <Classification>  (20) 
1

>  <pchembl>  (20) 
5.43

>  <InChI_steorem>  (20) 
InChI=1S/C33H60O10/c1-2-3-4-5-6-7-8-9-32-10-12-33(13-11-32)43-31-30-42-29-28-41-27-26-40-25-24-39-23-22-38-21-20-37-19-18-36-17-16-35-15-14-34/h10-13,34H,2-9,14-31H2,1H3

>  <source>  (20) 
ChEMBL25

>  <source_id>  (20) 
25

>  <optional_reference>  (20) 
10.1124/mol.112.084152

>  <optional_origin>  (20) 
None

>  <target>  (20) 
OATP1B3

$$$$

     RDKit          2D

 45 50  0  0  0  0  0  0  0  0999 V2000
    8.0360   -4.3184    0.0000 C   0  0  0  0  0  0  0  0  0  0  0  0
    8.3733   -3.5647    0.0000 N   0  0  0  0  0  0  0  0  0  0  0  0
    7.7616   -3.0163    0.0000 C   0  0  0  0  0  0  0  0  0  0  0  0
    7.0465   -3.4284    0.0000 C   0  0  0  0  0  0  0  0  0  0  0  0
    7.2187   -4.2337    0.0000 N   0  0  0  0  0  0  0  0  0  0  0  0
    7.7616   -2.1921    0.0000 C   0  0  0  0  0  0  0  0  0  0  0  0
    7.0465   -1.7800    0.0000 C   0  0  0  0  0  0  0  0  0  0  0  0
    6.3312   -2.1921    0.0000 C   0  0  0  0  0  0  0  0  0  0  0  0
    6.3312   -3.0163    0.0000 C   0  0  0  0  0  0  0  0  0  0  0  0
    8.4726   -1.7800    0.0000 C   0  0  0  0  0  0  0  0  0  0  0  0
    9.1878   -2.1921    0.0000 O   0  0  0  0  0  0  0  0  0  0  0  0
    8.4726   -0.9558    0.0000 O   0  0  0  0  0  0  0  0  0  0  0  0
    9.1785   -3.3966    0.0000 C   0  0  0  0  0  0  0  0  0  0  0  0
    9.9029   -3.7857    0.0000 C   0  0  0  0  0  0  0  0  0  0  0  0
   10.6090   -3.3576    0.0000 C   0  0  0  0  0  0  0  0  0  0  0  0
   11.3295   -3.7532    0.0000 C   0  0  0  0  0  0  0  0  0  0  0  0
   11.3520   -4.5745    0.0000 C   0  0  0  0  0  0  0  0  0  0  0  0
   10.6472   -5.0066    0.0000 C   0  0  0  0  0  0  0  0  0  0  0  0
    9.9226   -4.6122    0.0000 C   0  0  0  0  0  0  0  0  0  0  0  0
   12.0766   -4.9689    0.0000 C   0  0  0  0  0  0  0  0  0  0  0  0
   12.7786   -4.5420    0.0000 C   0  0  0  0  0  0  0  0  0  0  0  0
   13.5032   -4.9364    0.0000 C   0  0  0  0  0  0  0  0  0  0  0  0
   13.5217   -5.7589    0.0000 C   0  0  0  0  0  0  0  0  0  0  0  0
   12.8208   -6.1898    0.0000 C   0  0  0  0  0  0  0  0  0  0  0  0
   12.0963   -5.7955    0.0000 C   0  0  0  0  0  0  0  0  0  0  0  0
   12.0802   -3.2510    0.0000 N   0  0  0  0  0  0  0  0  0  0  0  0
   12.3127   -2.4593    0.0000 N   0  0  0  0  0  0  0  0  0  0  0  0
   13.1392   -2.4397    0.0000 N   0  0  0  0  0  0  0  0  0  0  0  0
   13.4148   -3.2159    0.0000 N   0  0  0  0  0  0  0  0  0  0  0  0
   12.7589   -3.7154    0.0000 C   0  0  0  0  0  0  0  0  0  0  0  0
    8.4481   -5.0336    0.0000 O   0  0  0  0  0  0  0  0  0  0  0  0
    8.0360   -5.7487    0.0000 C   0  0  0  0  0  0  0  0  0  0  0  0
    8.4481   -6.4597    0.0000 C   0  0  0  0  0  0  0  0  0  0  0  0
    9.1878   -0.5437    0.0000 C   0  0  0  0  0  0  0  0  0  0  0  0
    9.9030   -0.9558    0.0000 C   0  0  0  0  0  0  0  0  0  0  0  0
    9.1878    0.2805    0.0000 O   0  0  0  0  0  0  0  0  0  0  0  0
    9.9030    0.6926    0.0000 C   0  0  0  0  0  0  0  0  0  0  0  0
   10.6141    0.2805    0.0000 O   0  0  0  0  0  0  0  0  0  0  0  0
    9.9030    1.5168    0.0000 O   0  0  0  0  0  0  0  0  0  0  0  0
   10.6141    1.9290    0.0000 C   0  0  0  0  0  0  0  0  0  0  0  0
   10.6141    2.7532    0.0000 C   0  0  0  0  0  0  0  0  0  0  0  0
   11.3292    3.1653    0.0000 C   0  0  0  0  0  0  0  0  0  0  0  0
   12.0444    2.7532    0.0000 C   0  0  0  0  0  0  0  0  0  0  0  0
   12.0444    1.9290    0.0000 C   0  0  0  0  0  0  0  0  0  0  0  0
   11.3292    1.5168    0.0000 C   0  0  0  0  0  0  0  0  0  0  0  0
  1  2  1  0
  2  3  1  0
  3  4  2  0
  4  5  1  0
  1  5  2  0
  6  7  2  0
  7  8  1  0
  8  9  2  0
  4  9  1  0
  3  6  1  0
 10 11  2  0
 10 12  1  0
  6 10  1  0
 14 15  2  0
 15 16  1  0
 16 17  2  0
 17 18  1  0
 18 19  2  0
 14 19  1  0
 20 21  1  0
 21 22  2  0
 22 23  1  0
 23 24  2  0
 24 25  1  0
 20 25  2  0
 26 27  1  0
 27 28  1  0
 28 29  2  0
 29 30  1  0
 26 30  2  0
 21 30  1  0
 17 20  1  0
 13 14  1  0
  2 13  1  0
 32 33  1  0
 31 32  1  0
  1 31  1  0
 34 35  1  0
 37 38  2  0
 40 41  1  0
 41 42  1  0
 42 43  1  0
 43 44  1  0
 44 45  1  0
 40 45  1  0
 39 40  1  0
 37 39  1  0
 36 37  1  0
 34 36  1  0
 12 34  1  0
M  END
>  <Classification>  (21) 
1

>  <pchembl>  (21) 
5.61

>  <InChI_steorem>  (21) 
InChI=1S/C33H34N6O6/c1-3-42-32-34-28-15-9-14-27(31(40)43-21(2)44-33(41)45-24-10-5-4-6-11-24)29(28)39(32)20-22-16-18-23(19-17-22)25-12-7-8-13-26(25)30-35-37-38-36-30/h7-9,12-19,21,24H,3-6,10-11,20H2,1-2H3,(H,35,36,37,38)

>  <source>  (21) 
ChEMBL25

>  <source_id>  (21) 
25

>  <optional_reference>  (21) 
10.1124/mol.112.084152

>  <optional_origin>  (21) 
None

>  <target>  (21) 
OATP1B3

$$$$

     RDKit          2D

 26 28  0  0  0  0  0  0  0  0999 V2000
   11.5500   -9.9792    0.0000 N   0  0  0  0  0  0  0  0  0  0  0  0
   10.9375  -10.3250    0.0000 C   0  0  0  0  0  0  0  0  0  0  0  0
   12.7750   -9.2667    0.0000 N   0  0  0  0  0  0  0  0  0  0  0  0
   10.3167   -9.9750    0.0000 C   0  0  0  0  0  0  0  0  0  0  0  0
   12.1667  -10.3167    0.0000 C   0  0  0  0  0  0  0  0  0  0  0  0
   11.5500   -9.2667    0.0000 C   0  0  0  0  0  0  0  0  0  0  0  0
   10.9375  -11.0375    0.0000 C   0  0  0  0  0  0  0  0  0  0  0  0
   10.3292   -9.2500    0.0000 C   0  0  0  0  0  0  0  0  0  0  0  0
    9.7125  -10.3167    0.0000 C   0  0  0  0  0  0  0  0  0  0  0  0
   12.7667   -9.9667    0.0000 C   0  0  0  0  0  0  0  0  0  0  0  0
   12.1750   -8.9042    0.0000 C   0  0  0  0  0  0  0  0  0  0  0  0
    9.0917   -9.2542    0.0000 C   0  0  0  0  0  0  0  0  0  0  0  0
    9.0792   -9.9625    0.0000 C   0  0  0  0  0  0  0  0  0  0  0  0
    9.7042   -8.9167    0.0000 C   0  0  0  0  0  0  0  0  0  0  0  0
    8.4875   -8.9000    0.0000 Cl  0  0  0  0  0  0  0  0  0  0  0  0
   13.4000   -8.9042    0.0000 C   0  0  0  0  0  0  0  0  0  0  0  0
   16.4667   -9.2667    0.0000 O   0  0  0  0  0  0  0  0  0  0  0  0
   14.6250   -8.9125    0.0000 O   0  0  0  0  0  0  0  0  0  0  0  0
   10.3167  -11.3875    0.0000 C   0  0  0  0  0  0  0  0  0  0  0  0
   11.5417  -11.3875    0.0000 C   0  0  0  0  0  0  0  0  0  0  0  0
   15.8542   -8.9125    0.0000 C   0  0  0  0  0  0  0  0  0  0  0  0
   14.0042   -9.2542    0.0000 C   0  0  0  0  0  0  0  0  0  0  0  0
   15.2500   -9.2667    0.0000 C   0  0  0  0  0  0  0  0  0  0  0  0
   11.5542  -12.1042    0.0000 C   0  0  0  0  0  0  0  0  0  0  0  0
   10.3167  -12.1042    0.0000 C   0  0  0  0  0  0  0  0  0  0  0  0
   10.9250  -12.4542    0.0000 C   0  0  0  0  0  0  0  0  0  0  0  0
  2  1  1  0
  3 10  1  0
  4  2  1  0
  5  1  1  0
  6  1  1  0
  7  2  1  0
  8  4  2  0
  9  4  1  0
 10  5  1  0
 11  6  1  0
 12 14  2  0
 13  9  2  0
 14  8  1  0
 15 12  1  0
 16  3  1  0
 17 21  1  0
 18 22  1  0
 19  7  2  0
 20  7  1  0
 21 23  1  0
 22 16  1  0
 23 18  1  0
 24 20  2  0
 25 19  1  0
 26 25  2  0
 11  3  1  0
 13 12  1  0
 24 26  1  0
M  END
>  <Classification>  (22) 
1

>  <pchembl>  (22) 
5.91

>  <InChI_steorem>  (22) 
InChI=1S/C21H27ClN2O2/c22-20-8-6-19(7-9-20)21(18-4-2-1-3-5-18)24-12-10-23(11-13-24)14-16-26-17-15-25/h1-9,21,25H,10-17H2

>  <source>  (22) 
ChEMBL25

>  <source_id>  (22) 
25

>  <optional_reference>  (22) 
10.1124/mol.112.084152

>  <optional_origin>  (22) 
None

>  <target>  (22) 
OATP1B3

$$$$

     RDKit          2D

 58 62  0  0  0  0  0  0  0  0999 V2000
   12.3501  -25.4666    0.0000 C   0  0  0  0  0  0  0  0  0  0  0  0
   12.7607  -24.7549    0.0000 C   0  0  0  0  0  0  0  0  0  0  0  0
   11.4513  -24.4811    0.0000 C   0  0  0  0  0  0  0  0  0  0  0  0
   11.5471  -25.2932    0.0000 O   0  0  0  0  0  0  0  0  0  0  0  0
   12.2040  -24.1436    0.0000 N   0  0  0  0  0  0  0  0  0  0  0  0
   16.6112  -26.2787    0.0000 C   0  0  0  0  0  0  0  0  0  0  0  0
   13.3674  -24.5405    0.0000 C   0  0  0  0  0  0  0  0  0  0  0  0
   13.0526  -27.5333    0.0000 C   0  0  0  0  0  0  0  0  0  0  0  0
   14.4761  -27.5242    0.0000 C   0  0  0  0  0  0  0  0  0  0  0  0
   13.7643  -27.9485    0.0000 C   0  0  0  0  0  0  0  0  0  0  0  0
   17.3229  -26.6847    0.0000 C   0  0  0  0  0  0  0  0  0  0  0  0
   15.1878  -26.2878    0.0000 C   0  0  0  0  0  0  0  0  0  0  0  0
   14.4761  -26.7030    0.0000 C   0  0  0  0  0  0  0  0  0  0  0  0
    8.5360  -24.3853    0.0000 N   0  0  0  0  0  0  0  0  0  0  0  0
   13.7872  -23.8288    0.0000 C   0  0  0  0  0  0  0  0  0  0  0  0
   13.0526  -26.7030    0.0000 O   0  0  0  0  0  0  0  0  0  0  0  0
    8.0524  -23.7056    0.0000 C   0  0  0  0  0  0  0  0  0  0  0  0
   15.9087  -26.6893    0.0000 O   0  0  0  0  0  0  0  0  0  0  0  0
   18.0346  -26.2650    0.0000 C   0  0  0  0  0  0  0  0  0  0  0  0
   15.1833  -25.4575    0.0000 C   0  0  0  0  0  0  0  0  0  0  0  0
   12.3409  -26.2924    0.0000 C   0  0  0  0  0  0  0  0  0  0  0  0
   16.5975  -25.4575    0.0000 O   0  0  0  0  0  0  0  0  0  0  0  0
    8.5360  -23.0440    0.0000 C   0  0  0  0  0  0  0  0  0  0  0  0
    9.3298  -23.3041    0.0000 N   0  0  0  0  0  0  0  0  0  0  0  0
    9.3298  -24.1299    0.0000 C   0  0  0  0  0  0  0  0  0  0  0  0
   14.4624  -24.2257    0.0000 C   0  0  0  0  0  0  0  0  0  0  0  0
   14.4624  -25.0469    0.0000 C   0  0  0  0  0  0  0  0  0  0  0  0
   18.0301  -25.4438    0.0000 C   0  0  0  0  0  0  0  0  0  0  0  0
    7.2220  -23.7056    0.0000 C   0  0  0  0  0  0  0  0  0  0  0  0
   10.7351  -24.0751    0.0000 O   0  0  0  0  0  0  0  0  0  0  0  0
   18.7463  -26.6756    0.0000 N   0  0  0  0  0  0  0  0  0  0  0  0
   12.3364  -27.9439    0.0000 O   0  0  0  0  0  0  0  0  0  0  0  0
   15.1970  -27.9348    0.0000 O   0  0  0  0  0  0  0  0  0  0  0  0
   17.3092  -25.0423    0.0000 C   0  0  0  0  0  0  0  0  0  0  0  0
   13.7917  -23.0029    0.0000 O   0  0  0  0  0  0  0  0  0  0  0  0
    5.9902  -24.4173    0.0000 N   0  0  0  0  0  0  0  0  0  0  0  0
   17.3321  -27.5105    0.0000 O   0  0  0  0  0  0  0  0  0  0  0  0
   11.7616  -26.0460    0.0000 C   0  0  0  0  0  0  0  0  0  0  0  0
   15.5939  -24.7458    0.0000 O   0  0  0  0  0  0  0  0  0  0  0  0
   12.1996  -23.3177    0.0000 C   0  0  0  0  0  0  0  0  0  0  0  0
   13.7780  -25.2522    0.0000 C   0  0  0  0  0  0  0  0  0  0  0  0
   13.7643  -28.7697    0.0000 C   0  0  0  0  0  0  0  0  0  0  0  0
   13.7599  -26.2924    0.0000 C   0  0  0  0  0  0  0  0  0  0  0  0
    6.8114  -24.4173    0.0000 C   0  0  0  0  0  0  0  0  0  0  0  0
   16.0090  -25.4575    0.0000 C   0  0  0  0  0  0  0  0  0  0  0  0
   10.0507  -22.8980    0.0000 C   0  0  0  0  0  0  0  0  0  0  0  0
   11.6292  -26.7030    0.0000 C   0  0  0  0  0  0  0  0  0  0  0  0
   15.1741  -23.8105    0.0000 C   0  0  0  0  0  0  0  0  0  0  0  0
    6.8206  -22.9939    0.0000 C   0  0  0  0  0  0  0  0  0  0  0  0
    5.5796  -23.7010    0.0000 C   0  0  0  0  0  0  0  0  0  0  0  0
   18.7555  -27.5059    0.0000 C   0  0  0  0  0  0  0  0  0  0  0  0
   19.4673  -26.2604    0.0000 C   0  0  0  0  0  0  0  0  0  0  0  0
   17.3092  -24.2120    0.0000 C   0  0  0  0  0  0  0  0  0  0  0  0
   16.4196  -24.7458    0.0000 C   0  0  0  0  0  0  0  0  0  0  0  0
   11.4786  -22.9071    0.0000 C   0  0  0  0  0  0  0  0  0  0  0  0
   10.7669  -23.3087    0.0000 C   0  0  0  0  0  0  0  0  0  0  0  0
    5.9994  -22.9893    0.0000 C   0  0  0  0  0  0  0  0  0  0  0  0
   10.9130  -26.2924    0.0000 C   0  0  0  0  0  0  0  0  0  0  0  0
  2  1  1  0
  3  4  1  0
  4  1  1  0
  5  2  1  0
  6 18  1  0
  7  2  1  0
  8 16  1  0
  9 10  1  0
 10  8  1  0
 11  6  1  0
 12 13  1  0
 13  9  1  0
 14 25  2  0
 15  7  1  0
 16 21  1  0
 17 23  2  0
 12 18  1  0
 19 11  1  0
 20 27  1  0
 21  1  1  0
 22  6  1  0
 23 24  1  0
 24 46  1  0
 25 24  1  0
 26 15  1  0
 27 26  1  0
 28 34  1  0
 29 17  1  0
 30  3  2  0
 19 31  1  0
 32  8  2  0
 33  9  2  0
 34 22  1  0
 35 15  2  0
 36 44  2  0
 11 37  1  0
  1 38  1  0
 20 39  1  0
 40  5  1  0
  7 41  1  0
 10 42  1  0
 13 43  1  0
 44 29  1  0
 45 20  1  0
 46 56  1  0
 21 47  1  0
 26 48  1  0
 49 29  2  0
 50 57  2  0
 51 31  1  0
 52 31  1  0
 34 53  1  0
 54 39  1  0
 55 40  1  0
 56 55  1  0
 57 49  1  0
 58 47  1  0
  5  3  1  0
 12 20  1  0
 17 14  1  0
 19 28  1  0
 36 50  1  0
M  END
>  <Classification>  (23) 
1

>  <pchembl>  (23) 
5.23

>  <InChI_steorem>  (23) 
InChI=1S/C43H65N5O10/c1-12-33-43(8)37(48(41(53)58-43)19-14-13-18-47-23-31(45-24-47)30-16-15-17-44-22-30)27(4)34(49)25(2)21-42(7,54-11)38(28(5)35(50)29(6)39(52)56-33)57-40-36(51)32(46(9)10)20-26(3)55-40/h15-17,22-29,32-33,36-38,40,51H,12-14,18-21H2,1-11H3

>  <source>  (23) 
ChEMBL25

>  <source_id>  (23) 
25

>  <optional_reference>  (23) 
10.1124/mol.112.084152

>  <optional_origin>  (23) 
None

>  <target>  (23) 
OATP1B3

$$$$

     RDKit          2D

 30 33  0  0  0  0  0  0  0  0999 V2000
    5.3375   -5.5792    0.0000 N   0  0  0  0  0  0  0  0  0  0  0  0
    5.3375   -4.8750    0.0000 C   0  0  0  0  0  0  0  0  0  0  0  0
    4.6250   -5.5792    0.0000 C   0  0  0  0  0  0  0  0  0  0  0  0
    4.6250   -4.8750    0.0000 C   0  0  0  0  0  0  0  0  0  0  0  0
    2.5792   -3.8417    0.0000 C   0  0  0  0  0  0  0  0  0  0  0  0
    2.7875   -4.5167    0.0000 C   0  0  0  0  0  0  0  0  0  0  0  0
    6.0125   -5.8042    0.0000 C   0  0  0  0  0  0  0  0  0  0  0  0
    6.0125   -4.6542    0.0000 S   0  0  0  0  0  0  0  0  0  0  0  0
    3.4042   -4.8667    0.0000 C   0  0  0  0  0  0  0  0  0  0  0  0
    1.8625   -3.8375    0.0000 N   0  0  0  0  0  0  0  0  0  0  0  0
    6.4292   -5.2375    0.0000 C   0  0  0  0  0  0  0  0  0  0  0  0
    4.0250   -4.5292    0.0000 N   0  0  0  0  0  0  0  0  0  0  0  0
    2.9292   -3.2250    0.0000 C   0  0  0  0  0  0  0  0  0  0  0  0
    1.6500   -4.5083    0.0000 O   0  0  0  0  0  0  0  0  0  0  0  0
    2.2167   -4.9417    0.0000 C   0  0  0  0  0  0  0  0  0  0  0  0
    6.0292   -6.5167    0.0000 C   0  0  0  0  0  0  0  0  0  0  0  0
    4.1417   -6.0917    0.0000 O   0  0  0  0  0  0  0  0  0  0  0  0
    3.6417   -3.2250    0.0000 C   0  0  0  0  0  0  0  0  0  0  0  0
    2.5792   -2.6167    0.0000 C   0  0  0  0  0  0  0  0  0  0  0  0
    3.4000   -5.5750    0.0000 O   0  0  0  0  0  0  0  0  0  0  0  0
    6.6542   -6.8542    0.0000 O   0  0  0  0  0  0  0  0  0  0  0  0
    5.4292   -6.8875    0.0000 O   0  0  0  0  0  0  0  0  0  0  0  0
    4.0000   -3.8417    0.0000 Cl  0  0  0  0  0  0  0  0  0  0  0  0
    1.8667   -2.6042    0.0000 Cl  0  0  0  0  0  0  0  0  0  0  0  0
    6.9542   -4.7542    0.0000 C   0  0  0  0  0  0  0  0  0  0  0  0
    6.9542   -5.7042    0.0000 C   0  0  0  0  0  0  0  0  0  0  0  0
    2.2125   -5.6375    0.0000 C   0  0  0  0  0  0  0  0  0  0  0  0
    3.6375   -2.0042    0.0000 C   0  0  0  0  0  0  0  0  0  0  0  0
    3.9875   -2.6167    0.0000 C   0  0  0  0  0  0  0  0  0  0  0  0
    2.9292   -2.0000    0.0000 C   0  0  0  0  0  0  0  0  0  0  0  0
  2  1  1  0
  3  1  1  0
  4  3  1  0
  5  6  1  0
  6  9  1  0
  7  1  1  0
  8  2  1  0
  9 12  1  0
 10  5  2  0
 11  7  1  0
  4 12  1  0
 13  5  1  0
 14 15  1  0
 15  6  2  0
  7 16  1  0
 17  3  2  0
 18 13  2  0
 19 13  1  0
 20  9  2  0
 21 16  1  0
 22 16  2  0
 23 18  1  0
 24 19  1  0
 25 11  1  0
 26 11  1  0
 27 15  1  0
 28 30  1  0
 29 18  1  0
 30 19  2  0
 11  8  1  0
  4  2  1  0
 14 10  1  0
 28 29  2  0
M  END
>  <Classification>  (24) 
1

>  <pchembl>  (24) 
5.7

>  <InChI_steorem>  (24) 
InChI=1S/C19H17Cl2N3O5S/c1-7-10(12(23-29-7)11-8(20)5-4-6-9(11)21)15(25)22-13-16(26)24-14(18(27)28)19(2,3)30-17(13)24/h4-6,13-14,17H,1-3H3,(H,22,25)(H,27,28)

>  <source>  (24) 
ChEMBL25

>  <source_id>  (24) 
25

>  <optional_reference>  (24) 
10.1124/mol.112.084152

>  <optional_origin>  (24) 
None

>  <target>  (24) 
OATP1B3

$$$$

     RDKit          2D

 37 41  0  0  0  0  0  0  0  0999 V2000
   -3.9744  -22.0552    0.0000 C   0  0  0  0  0  0  0  0  0  0  0  0
   -3.9744  -22.8802    0.0000 C   0  0  0  0  0  0  0  0  0  0  0  0
   -3.2639  -23.2904    0.0000 C   0  0  0  0  0  0  0  0  0  0  0  0
   -3.2639  -21.6404    0.0000 C   0  0  0  0  0  0  0  0  0  0  0  0
   -2.5488  -22.0552    0.0000 C   0  0  0  0  0  0  0  0  0  0  0  0
   -2.5479  -22.8802    0.0000 C   0  0  0  0  0  0  0  0  0  0  0  0
   -1.8368  -23.2895    0.0000 C   0  0  0  0  0  0  0  0  0  0  0  0
   -1.1223  -22.8784    0.0000 C   0  0  0  0  0  0  0  0  0  0  0  0
   -1.8389  -21.6396    0.0000 C   0  0  0  0  0  0  0  0  0  0  0  0
   -1.1230  -22.0564    0.0000 C   0  0  0  0  0  0  0  0  0  0  0  0
   -1.1185  -20.4025    0.0000 C   0  0  0  0  0  0  0  0  0  0  0  0
   -1.8398  -20.8134    0.0000 C   0  0  0  0  0  0  0  0  0  0  0  0
   -0.4025  -20.8194    0.0000 C   0  0  0  0  0  0  0  0  0  0  0  0
   -0.4102  -21.6496    0.0000 C   0  0  0  0  0  0  0  0  0  0  0  0
    0.3010  -22.0690    0.0000 C   0  0  0  0  0  0  0  0  0  0  0  0
    1.0244  -21.6628    0.0000 C   0  0  0  0  0  0  0  0  0  0  0  0
    0.3162  -20.4085    0.0000 C   0  0  0  0  0  0  0  0  0  0  0  0
    1.0321  -20.8349    0.0000 C   0  0  0  0  0  0  0  0  0  0  0  0
    1.7551  -20.4305    0.0000 C   0  0  0  0  0  0  0  0  0  0  0  0
    1.7688  -19.5981    0.0000 C   0  0  0  0  0  0  0  0  0  0  0  0
    1.0531  -19.1717    0.0000 C   0  0  0  0  0  0  0  0  0  0  0  0
    0.3237  -19.5777    0.0000 C   0  0  0  0  0  0  0  0  0  0  0  0
   -4.6850  -23.2904    0.0000 O   0  0  0  0  0  0  0  0  0  0  0  0
   -2.5569  -21.2348    0.0000 C   0  0  0  0  0  0  0  0  0  0  0  0
   -1.1303  -21.2348    0.0000 C   0  0  0  0  0  0  0  0  0  0  0  0
   -0.4193  -22.4654    0.0000 C   0  0  0  0  0  0  0  0  0  0  0  0
    1.0483  -18.3497    0.0000 C   0  0  0  0  0  0  0  0  0  0  0  0
   -0.3818  -19.1589    0.0000 C   0  0  0  0  0  0  0  0  0  0  0  0
   -2.5494  -20.4015    0.0000 O   0  0  0  0  0  0  0  0  0  0  0  0
   -5.3954  -22.8802    0.0000 C   0  0  0  0  0  0  0  0  0  0  0  0
   -6.1059  -23.2904    0.0000 O   0  0  0  0  0  0  0  0  0  0  0  0
   -5.3954  -22.0598    0.0000 C   0  0  0  0  0  0  0  0  0  0  0  0
   -3.6827  -23.9969    0.0000 C   0  0  0  0  0  0  0  0  0  0  0  0
   -2.8623  -23.9969    0.0000 C   0  0  0  0  0  0  0  0  0  0  0  0
    1.7365  -21.2439    0.0000 C   0  0  0  0  0  0  0  0  0  0  0  0
    1.7346  -22.0643    0.0000 O   0  0  0  0  0  0  0  0  0  0  0  0
    2.4480  -20.8355    0.0000 O   0  0  0  0  0  0  0  0  0  0  0  0
  8 10  1  0
  9 10  1  0
  3  6  1  0
  5  4  1  0
 17 22  1  0
 18 19  1  0
 19 20  1  0
 20 21  1  0
 21 22  1  0
  5  6  1  0
  2 23  1  0
  5 24  1  0
  9 12  1  0
 10 25  1  0
 10 14  1  0
 13 11  2  0
 11 12  1  0
 13 14  1  0
 14 26  1  0
  1  2  1  0
 21 27  1  0
  1  4  1  0
 22 28  1  0
  2  3  1  0
 12 29  2  0
  5  9  1  0
 23 30  1  0
 13 17  1  0
 30 31  2  0
 14 15  1  0
 30 32  1  0
 15 16  1  0
  3 33  1  0
 16 18  1  0
  3 34  1  0
 17 18  1  0
 18 35  1  0
  6  7  1  0
 35 36  1  0
  7  8  1  0
 35 37  2  0
M  END
>  <Classification>  (25) 
0

>  <pchembl>  (25) 
4.94

>  <InChI_steorem>  (25) 
InChI=1S/C32H48O5/c1-18-9-14-32(27(35)36)16-15-30(7)21(25(32)19(18)2)17-22(34)26-29(6)12-11-24(37-20(3)33)28(4,5)23(29)10-13-31(26,30)8/h17-19,23-26H,9-16H2,1-8H3,(H,35,36)

>  <source>  (25) 
ChEMBL25

>  <source_id>  (25) 
25

>  <optional_reference>  (25) 
10.1124/mol.112.084152

>  <optional_origin>  (25) 
None

>  <target>  (25) 
OATP1B3

$$$$

     RDKit          2D

 41 45  0  0  0  0  0  0  0  0999 V2000
    3.1917   -2.8667    0.0000 C   0  0  0  0  0  0  0  0  0  0  0  0
    3.4042   -2.1917    0.0000 C   0  0  0  0  0  0  0  0  0  0  0  0
    3.7667   -3.2792    0.0000 N   0  0  0  0  0  0  0  0  0  0  0  0
    4.1167   -2.1917    0.0000 N   0  0  0  0  0  0  0  0  0  0  0  0
    4.3542   -2.8667    0.0000 C   0  0  0  0  0  0  0  0  0  0  0  0
    6.9417   -4.4042    0.0000 C   0  0  0  0  0  0  0  0  0  0  0  0
    6.5917   -3.2917    0.0000 N   0  0  0  0  0  0  0  0  0  0  0  0
    0.8042   -2.8667    0.0000 C   0  0  0  0  0  0  0  0  0  0  0  0
    6.3542   -4.0167    0.0000 N   0  0  0  0  0  0  0  0  0  0  0  0
    7.3417   -3.2917    0.0000 N   0  0  0  0  0  0  0  0  0  0  0  0
   -0.3208   -2.9125    0.0000 C   0  0  0  0  0  0  0  0  0  0  0  0
    0.2417   -3.3167    0.0000 O   0  0  0  0  0  0  0  0  0  0  0  0
    2.5917   -3.2167    0.0000 C   0  0  0  0  0  0  0  0  0  0  0  0
   -0.1208   -2.2667    0.0000 O   0  0  0  0  0  0  0  0  0  0  0  0
    7.5417   -4.0417    0.0000 N   0  0  0  0  0  0  0  0  0  0  0  0
    0.5917   -2.2667    0.0000 C   0  0  0  0  0  0  0  0  0  0  0  0
    6.9417   -5.0542    0.0000 C   0  0  0  0  0  0  0  0  0  0  0  0
    2.7875   -1.8417    0.0000 C   0  0  0  0  0  0  0  0  0  0  0  0
    6.3042   -5.4167    0.0000 C   0  0  0  0  0  0  0  0  0  0  0  0
    3.7792   -3.9792    0.0000 C   0  0  0  0  0  0  0  0  0  0  0  0
    2.0042   -2.8667    0.0000 O   0  0  0  0  0  0  0  0  0  0  0  0
    1.4042   -3.2167    0.0000 C   0  0  0  0  0  0  0  0  0  0  0  0
    5.6667   -5.0667    0.0000 C   0  0  0  0  0  0  0  0  0  0  0  0
   -0.9958   -3.1333    0.0000 O   0  0  0  0  0  0  0  0  0  0  0  0
    2.5917   -3.9167    0.0000 O   0  0  0  0  0  0  0  0  0  0  0  0
    5.0292   -5.4417    0.0000 C   0  0  0  0  0  0  0  0  0  0  0  0
    5.6667   -4.3417    0.0000 C   0  0  0  0  0  0  0  0  0  0  0  0
    4.4042   -4.3417    0.0000 C   0  0  0  0  0  0  0  0  0  0  0  0
    2.1708   -2.1958    0.0000 O   0  0  0  0  0  0  0  0  0  0  0  0
    4.9667   -3.2292    0.0000 C   0  0  0  0  0  0  0  0  0  0  0  0
    5.0292   -3.9667    0.0000 C   0  0  0  0  0  0  0  0  0  0  0  0
    4.4042   -5.0667    0.0000 C   0  0  0  0  0  0  0  0  0  0  0  0
    1.0417   -1.7292    0.0000 C   0  0  0  0  0  0  0  0  0  0  0  0
    7.5542   -5.4167    0.0000 C   0  0  0  0  0  0  0  0  0  0  0  0
    6.3042   -6.1292    0.0000 C   0  0  0  0  0  0  0  0  0  0  0  0
    2.4292   -1.2250    0.0000 C   0  0  0  0  0  0  0  0  0  0  0  0
    3.1375   -1.2250    0.0000 C   0  0  0  0  0  0  0  0  0  0  0  0
    5.5417   -2.8667    0.0000 C   0  0  0  0  0  0  0  0  0  0  0  0
    7.5542   -6.1292    0.0000 C   0  0  0  0  0  0  0  0  0  0  0  0
    6.9417   -6.4917    0.0000 C   0  0  0  0  0  0  0  0  0  0  0  0
    5.5417   -2.1917    0.0000 C   0  0  0  0  0  0  0  0  0  0  0  0
  2  1  2  0
  3  1  1  0
  4  2  1  0
  5  3  1  0
  6 17  1  0
  7  9  1  0
  8 22  1  0
  9  6  2  0
 10 15  1  0
 11 12  1  0
 12  8  1  0
 13  1  1  0
 14 16  1  0
 15  6  1  0
 16  8  2  0
 17 19  1  0
 18  2  1  0
 19 23  1  0
 20  3  1  0
 21 13  1  0
 22 21  1  0
 23 27  2  0
 24 11  2  0
 25 13  2  0
 26 32  2  0
 27 31  1  0
 28 20  1  0
 29 18  1  0
 30  5  1  0
 31 28  2  0
 32 28  1  0
 33 16  1  0
 34 17  2  0
 35 19  2  0
 36 18  1  0
 37 18  1  0
 38 30  1  0
 39 40  2  0
 40 35  1  0
 41 38  1  0
  4  5  2  0
 23 26  1  0
 11 14  1  0
 39 34  1  0
  7 10  2  0
M  END
>  <Classification>  (26) 
1

>  <pchembl>  (26) 
6.01

>  <InChI_steorem>  (26) 
InChI=1S/C29H30N6O6/c1-5-8-23-30-25(29(3,4)38)24(27(36)39-16-22-17(2)40-28(37)41-22)35(23)15-18-11-13-19(14-12-18)20-9-6-7-10-21(20)26-31-33-34-32-26/h6-7,9-14,38H,5,8,15-16H2,1-4H3,(H,31,32,33,34)

>  <source>  (26) 
ChEMBL25

>  <source_id>  (26) 
25

>  <optional_reference>  (26) 
10.1124/mol.112.084152

>  <optional_origin>  (26) 
None

>  <target>  (26) 
OATP1B3

$$$$

     RDKit          2D

 53 57  0  0  0  0  0  0  0  0999 V2000
   -0.4502   -1.5779    0.0000 C   0  0  0  0  0  0  0  0  0  0  0  0
   -1.2502   -1.3613    0.0000 C   0  0  0  0  0  0  0  0  0  0  0  0
   -1.7036   -2.0552    0.0000 C   0  0  0  0  0  0  0  0  0  0  0  0
   -1.1837   -2.7008    0.0000 C   0  0  0  0  0  0  0  0  0  0  0  0
   -0.4092   -2.4057    0.0000 O   0  0  0  0  0  0  0  0  0  0  0  0
    0.2750   -0.3500    0.0000 C   0  0  0  0  0  0  0  0  0  0  0  0
   -0.4417   -0.7583    0.0000 O   0  0  0  0  0  0  0  0  0  0  0  0
    0.2639   -1.9967    0.0000 C   0  0  0  0  0  0  0  0  0  0  0  0
    0.9806   -1.5884    0.0000 C   0  0  0  0  0  0  0  0  0  0  0  0
    0.9870   -0.7619    0.0000 C   0  0  0  0  0  0  0  0  0  0  0  0
    6.7246   -1.5581    0.0000 C   0  0  0  0  0  0  0  0  0  0  0  0
    6.0086   -1.1482    0.0000 C   0  0  0  0  0  0  0  0  0  0  0  0
    7.4375   -1.1429    0.0000 O   0  0  0  0  0  0  0  0  0  0  0  0
    6.7276   -2.3830    0.0000 O   0  0  0  0  0  0  0  0  0  0  0  0
    5.2957   -1.5633    0.0000 C   0  0  0  0  0  0  0  0  0  0  0  0
    5.2987   -2.3883    0.0000 C   0  0  0  0  0  0  0  0  0  0  0  0
    6.0056   -0.3232    0.0000 C   0  0  0  0  0  0  0  0  0  0  0  0
    5.2892    0.0809    0.0000 O   0  0  0  0  0  0  0  0  0  0  0  0
    5.2842    0.9023    0.0000 C   0  0  0  0  0  0  0  0  0  0  0  0
    5.9953    1.3213    0.0000 C   0  0  0  0  0  0  0  0  0  0  0  0
    6.7131    0.9127    0.0000 C   0  0  0  0  0  0  0  0  0  0  0  0
    6.7197    0.0851    0.0000 C   0  0  0  0  0  0  0  0  0  0  0  0
    4.5667    1.3094    0.0000 C   0  0  0  0  0  0  0  0  0  0  0  0
    5.9891    2.1463    0.0000 C   0  0  0  0  0  0  0  0  0  0  0  0
    4.5605    2.1344    0.0000 C   0  0  0  0  0  0  0  0  0  0  0  0
    3.8553    0.8916    0.0000 C   0  0  0  0  0  0  0  0  0  0  0  0
    3.1378    1.2987    0.0000 C   0  0  0  0  0  0  0  0  0  0  0  0
    3.8615    0.0666    0.0000 O   0  0  0  0  0  0  0  0  0  0  0  0
    3.1316    2.1237    0.0000 C   0  0  0  0  0  0  0  0  0  0  0  0
    2.4264    0.8809    0.0000 C   0  0  0  0  0  0  0  0  0  0  0  0
    1.7089    1.2880    0.0000 C   0  0  0  0  0  0  0  0  0  0  0  0
    2.4326    0.0559    0.0000 O   0  0  0  0  0  0  0  0  0  0  0  0
    1.7027    2.1130    0.0000 C   0  0  0  0  0  0  0  0  0  0  0  0
    0.9975    0.8702    0.0000 C   0  0  0  0  0  0  0  0  0  0  0  0
    2.4140    2.5308    0.0000 C   0  0  0  0  0  0  0  0  0  0  0  0
    0.9917    0.0450    0.0000 O   0  0  0  0  0  0  0  0  0  0  0  0
   -0.4355    0.0602    0.0000 C   0  0  0  0  0  0  0  0  0  0  0  0
   -0.4267    0.8862    0.0000 C   0  0  0  0  0  0  0  0  0  0  0  0
    0.2936    1.2938    0.0000 C   0  0  0  0  0  0  0  0  0  0  0  0
    0.3120    2.1217    0.0000 C   0  0  0  0  0  0  0  0  0  0  0  0
   -1.2416   -0.1330    0.0000 C   0  0  0  0  0  0  0  0  0  0  0  0
    0.2581   -2.8217    0.0000 O   0  0  0  0  0  0  0  0  0  0  0  0
   -1.9875   -2.9125    0.0000 C   0  0  0  0  0  0  0  0  0  0  0  0
   -0.7792   -3.4125    0.0000 C   0  0  0  0  0  0  0  0  0  0  0  0
   -2.5721   -2.3201    0.0000 O   0  0  0  0  0  0  0  0  0  0  0  0
   -3.3729   -2.5290    0.0000 C   0  0  0  0  0  0  0  0  0  0  0  0
   -3.5957   -3.3303    0.0000 C   0  0  0  0  0  0  0  0  0  0  0  0
   -3.0111   -3.9226    0.0000 C   0  0  0  0  0  0  0  0  0  0  0  0
   -2.2038   -3.7138    0.0000 C   0  0  0  0  0  0  0  0  0  0  0  0
   -4.1833   -2.7417    0.0000 C   0  0  0  0  0  0  0  0  0  0  0  0
   -3.8125   -4.1250    0.0000 O   0  0  0  0  0  0  0  0  0  0  0  0
   -3.9692   -1.9449    0.0000 C   0  0  0  0  0  0  0  0  0  0  0  0
   -4.9804   -2.9546    0.0000 C   0  0  0  0  0  0  0  0  0  0  0  0
 26 27  1  0
  4  5  1  0
 26 28  1  0
  6 10  1  0
 27 29  1  0
  7  1  1  0
 27 30  1  0
  1  8  1  0
 30 31  1  0
  8  9  1  0
 30 32  2  0
  9 10  2  0
 31 33  1  0
  1  5  1  0
 31 34  1  0
  6  7  1  0
 33 35  1  0
 11 13  1  0
 11 14  2  0
 20 24  1  0
 12 15  1  0
 15 16  1  0
 12 17  1  0
 34 36  1  0
 34 39  1  0
  6 36  1  0
  6 37  1  0
 37 38  1  0
 38 39  1  0
 39 40  1  0
 37 41  1  0
 17 18  1  0
 17 22  1  0
  8 42  1  0
 18 19  1  0
  4 43  1  0
 19 20  1  0
  4 44  1  0
 43 45  1  0
 20 21  1  0
 21 22  1  0
 19 23  1  0
 11 12  1  0
  1  2  1  0
 43 49  1  0
 45 46  1  0
 46 47  1  0
 47 48  1  0
 48 49  1  0
 46 52  1  0
 47 50  1  0
 47 51  1  0
 23 25  1  0
  2  3  1  0
 50 53  1  0
 23 26  1  0
  3  4  1  0
M  END
>  <Classification>  (27) 
1

>  <pchembl>  (27) 
5.48

>  <InChI_steorem>  (27) 
InChI=1S/C42H70O11/c1-11-29(38(46)47)31-15-14-23(4)36(50-31)27(8)34(44)26(7)35(45)30(12-2)37-24(5)22-25(6)41(51-37)19-16-32(43)42(53-41)21-20-39(10,52-42)33-17-18-40(48,13-3)28(9)49-33/h16,19,23-34,36-37,43-44,48H,11-15,17-18,20-22H2,1-10H3,(H,46,47)

>  <source>  (27) 
ChEMBL25

>  <source_id>  (27) 
25

>  <optional_reference>  (27) 
10.1124/mol.112.084152

>  <optional_origin>  (27) 
None

>  <target>  (27) 
OATP1B3

$$$$

     RDKit          2D

 30 30  0  0  0  0  0  0  0  0999 V2000
   -4.3389  -14.9583    0.0000 C   0  0  0  0  0  0  0  0  0  0  0  0
   -4.3401  -15.7857    0.0000 C   0  0  0  0  0  0  0  0  0  0  0  0
   -3.6253  -16.1985    0.0000 C   0  0  0  0  0  0  0  0  0  0  0  0
   -2.9088  -15.7852    0.0000 C   0  0  0  0  0  0  0  0  0  0  0  0
   -2.9117  -14.9547    0.0000 C   0  0  0  0  0  0  0  0  0  0  0  0
   -3.6271  -14.5455    0.0000 C   0  0  0  0  0  0  0  0  0  0  0  0
   -5.0535  -14.5460    0.0000 Cl  0  0  0  0  0  0  0  0  0  0  0  0
   -5.0549  -16.1976    0.0000 Cl  0  0  0  0  0  0  0  0  0  0  0  0
   -2.1988  -14.5395    0.0000 C   0  0  0  0  0  0  0  0  0  0  0  0
   -1.4828  -14.9493    0.0000 N   0  0  0  0  0  0  0  0  0  0  0  0
   -2.2019  -13.7145    0.0000 O   0  0  0  0  0  0  0  0  0  0  0  0
   -0.7698  -14.5341    0.0000 C   0  0  0  0  0  0  0  0  0  0  0  0
   -0.0538  -14.9439    0.0000 C   0  0  0  0  0  0  0  0  0  0  0  0
   -0.7730  -13.7091    0.0000 C   0  0  0  0  0  0  0  0  0  0  0  0
   -0.0600  -13.2939    0.0000 C   0  0  0  0  0  0  0  0  0  0  0  0
   -0.0632  -12.4689    0.0000 C   0  0  0  0  0  0  0  0  0  0  0  0
    0.6498  -12.0537    0.0000 O   0  0  0  0  0  0  0  0  0  0  0  0
   -0.7792  -12.0591    0.0000 O   0  0  0  0  0  0  0  0  0  0  0  0
   -0.0507  -15.7689    0.0000 O   0  0  0  0  0  0  0  0  0  0  0  0
    0.6591  -14.5287    0.0000 N   0  0  0  0  0  0  0  0  0  0  0  0
    1.3751  -14.9385    0.0000 C   0  0  0  0  0  0  0  0  0  0  0  0
    2.0880  -14.5233    0.0000 C   0  0  0  0  0  0  0  0  0  0  0  0
    0.6560  -13.7037    0.0000 C   0  0  0  0  0  0  0  0  0  0  0  0
    1.3689  -13.2885    0.0000 C   0  0  0  0  0  0  0  0  0  0  0  0
    2.7978  -13.2831    0.0000 C   0  0  0  0  0  0  0  0  0  0  0  0
    3.5138  -13.6929    0.0000 C   0  0  0  0  0  0  0  0  0  0  0  0
    2.0849  -13.6983    0.0000 C   0  0  0  0  0  0  0  0  0  0  0  0
    2.8040  -14.9331    0.0000 C   0  0  0  0  0  0  0  0  0  0  0  0
    3.5169  -14.5179    0.0000 C   0  0  0  0  0  0  0  0  0  0  0  0
    4.2330  -14.9277    0.0000 C   0  0  0  0  0  0  0  0  0  0  0  0
 14 15  1  0
  1  7  1  0
 15 16  1  0
 16 17  1  0
  2  8  1  0
 16 18  2  0
  3  4  2  0
 13 19  2  0
  5  9  1  0
 13 20  1  0
  1  2  2  0
 20 21  1  0
  9 10  1  0
 21 22  1  0
  4  5  1  0
 20 23  1  0
  9 11  2  0
 23 24  1  0
 24 27  1  0
 27 25  1  0
 10 12  1  0
 25 26  1  0
  5  6  2  0
 12 13  1  0
 22 28  1  0
  6  1  1  0
 28 29  1  0
 12 14  1  0
 29 30  1  0
  2  3  1  0
M  END
>  <Classification>  (28) 
1

>  <pchembl>  (28) 
5.57

>  <InChI_steorem>  (28) 
InChI=1S/C22H32Cl2N2O4/c1-3-5-7-13-26(14-8-6-4-2)22(30)19(11-12-20(27)28)25-21(29)16-9-10-17(23)18(24)15-16/h9-10,15,19H,3-8,11-14H2,1-2H3,(H,25,29)(H,27,28)

>  <source>  (28) 
ChEMBL25

>  <source_id>  (28) 
25

>  <optional_reference>  (28) 
10.1124/mol.112.084152

>  <optional_origin>  (28) 
None

>  <target>  (28) 
OATP1B3

$$$$

     RDKit          2D

 56 58  0  0  0  0  0  0  0  0999 V2000
    0.8463   -6.0856    0.0000 C   0  0  0  0  0  0  0  0  0  0  0  0
    0.1327   -6.4963    0.0000 C   0  0  0  0  0  0  0  0  0  0  0  0
    0.1281   -7.3171    0.0000 C   0  0  0  0  0  0  0  0  0  0  0  0
    0.8352   -7.7335    0.0000 C   0  0  0  0  0  0  0  0  0  0  0  0
    1.5529   -7.3269    0.0000 C   0  0  0  0  0  0  0  0  0  0  0  0
    1.5593   -6.4999    0.0000 O   0  0  0  0  0  0  0  0  0  0  0  0
   -3.4390   -1.1491    0.0000 C   0  0  0  0  0  0  0  0  0  0  0  0
   -3.4390   -1.9746    0.0000 C   0  0  0  0  0  0  0  0  0  0  0  0
   -2.7260   -2.3853    0.0000 C   0  0  0  0  0  0  0  0  0  0  0  0
   -2.7260   -0.7343    0.0000 C   0  0  0  0  0  0  0  0  0  0  0  0
   -2.0129   -1.1491    0.0000 C   0  0  0  0  0  0  0  0  0  0  0  0
   -1.3019   -0.7353    0.0000 C   0  0  0  0  0  0  0  0  0  0  0  0
   -0.5853   -1.1472    0.0000 C   0  0  0  0  0  0  0  0  0  0  0  0
   -0.5804   -1.9702    0.0000 O   0  0  0  0  0  0  0  0  0  0  0  0
    0.1217   -0.7315    0.0000 C   0  0  0  0  0  0  0  0  0  0  0  0
    0.8337   -1.1390    0.0000 C   0  0  0  0  0  0  0  0  0  0  0  0
    0.8379   -1.9577    0.0000 O   0  0  0  0  0  0  0  0  0  0  0  0
    1.5374   -0.7259    0.0000 C   0  0  0  0  0  0  0  0  0  0  0  0
    2.2497   -1.1318    0.0000 C   0  0  0  0  0  0  0  0  0  0  0  0
    2.2525   -1.9497    0.0000 O   0  0  0  0  0  0  0  0  0  0  0  0
    2.9587   -2.3560    0.0000 C   0  0  0  0  0  0  0  0  0  0  0  0
    3.6667   -1.9448    0.0000 C   0  0  0  0  0  0  0  0  0  0  0  0
    3.6639   -1.1270    0.0000 C   0  0  0  0  0  0  0  0  0  0  0  0
    2.9532   -0.7203    0.0000 C   0  0  0  0  0  0  0  0  0  0  0  0
   -2.0128   -1.9746    0.0000 O   0  0  0  0  0  0  0  0  0  0  0  0
   -2.7236   -3.2108    0.0000 C   0  0  0  0  0  0  0  0  0  0  0  0
   -2.0069   -3.6194    0.0000 C   0  0  0  0  0  0  0  0  0  0  0  0
   -2.0046   -4.4450    0.0000 C   0  0  0  0  0  0  0  0  0  0  0  0
   -1.2878   -4.8578    0.0000 C   0  0  0  0  0  0  0  0  0  0  0  0
   -2.7188   -4.8618    0.0000 C   0  0  0  0  0  0  0  0  0  0  0  0
   -3.4354   -4.4491    0.0000 C   0  0  0  0  0  0  0  0  0  0  0  0
   -0.5736   -4.4408    0.0000 C   0  0  0  0  0  0  0  0  0  0  0  0
    0.1431   -4.8536    0.0000 C   0  0  0  0  0  0  0  0  0  0  0  0
    0.1413   -5.6800    0.0000 O   0  0  0  0  0  0  0  0  0  0  0  0
    1.5664   -5.6793    0.0000 C   0  0  0  0  0  0  0  0  0  0  0  0
    0.8489   -4.4356    0.0000 C   0  0  0  0  0  0  0  0  0  0  0  0
    2.9593   -3.1815    0.0000 C   0  0  0  0  0  0  0  0  0  0  0  0
    2.2441   -3.5926    0.0000 C   0  0  0  0  0  0  0  0  0  0  0  0
    2.2447   -4.4182    0.0000 O   0  0  0  0  0  0  0  0  0  0  0  0
    1.5284   -3.1825    0.0000 O   0  0  0  0  0  0  0  0  0  0  0  0
    1.5296   -4.8336    0.0000 C   0  0  0  0  0  0  0  0  0  0  0  0
   -2.7260    0.0913    0.0000 C   0  0  0  0  0  0  0  0  0  0  0  0
   -0.8960   -0.0166    0.0000 O   0  0  0  0  0  0  0  0  0  0  0  0
   -1.7216   -0.0166    0.0000 C   0  0  0  0  0  0  0  0  0  0  0  0
    0.1157    0.0940    0.0000 C   0  0  0  0  0  0  0  0  0  0  0  0
    1.5320    0.0997    0.0000 C   0  0  0  0  0  0  0  0  0  0  0  0
    2.9492    0.1051    0.0000 C   0  0  0  0  0  0  0  0  0  0  0  0
    4.3784   -0.7145    0.0000 O   0  0  0  0  0  0  0  0  0  0  0  0
    4.3831   -2.3582    0.0000 C   0  0  0  0  0  0  0  0  0  0  0  0
    0.8476   -3.6101    0.0000 C   0  0  0  0  0  0  0  0  0  0  0  0
    2.2656   -7.7423    0.0000 C   0  0  0  0  0  0  0  0  0  0  0  0
    0.8294   -8.5589    0.0000 C   0  0  0  0  0  0  0  0  0  0  0  0
    2.9838   -7.3364    0.0000 C   0  0  0  0  0  0  0  0  0  0  0  0
    3.6966   -7.7519    0.0000 C   0  0  0  0  0  0  0  0  0  0  0  0
    2.9894   -6.5110    0.0000 O   0  0  0  0  0  0  0  0  0  0  0  0
    2.2892   -6.0770    0.0000 C   0  0  0  0  0  0  0  0  0  0  0  0
 13 15  1  0
 28 30  1  0
 16 15  1  0
 30 31  1  0
 16 17  1  0
 29 32  1  0
  1  2  1  0
 32 33  1  0
 33 34  1  0
  1  6  1  0
  2  3  1  0
 16 18  1  0
 33 36  1  0
 34  1  1  0
  1 35  1  0
 35 41  1  0
 41 36  1  0
 19 18  1  0
 21 37  2  0
 19 20  2  0
 37 38  1  0
  7 10  1  0
 38 39  1  0
  8  9  2  0
 38 40  2  0
 11 10  1  0
 39 41  1  0
  3  4  1  0
 10 42  1  0
  4  5  1  0
 12 43  1  0
 11 12  1  0
 12 44  1  0
 19 24  1  0
 15 45  1  0
 21 22  1  0
 18 46  1  0
 22 23  1  0
 24 47  1  0
 23 24  1  0
 23 48  1  0
 13 12  1  0
 22 49  1  0
 11 25  1  0
 36 50  1  0
 13 14  2  0
  5 51  1  0
  9 26  1  0
  4 52  1  0
  5  6  1  0
 51 53  1  0
 26 27  2  0
 53 54  1  0
  7  8  1  0
 53 55  1  0
 27 28  1  0
 35 56  1  0
 28 29  1  0
M  END
>  <Classification>  (29) 
1

>  <pchembl>  (29) 
6.36

>  <InChI_steorem>  (29) 
InChI=1S/C45H74O11/c1-12-34-17-15-13-14-16-27(4)42(51)44(11,53)43(52)32(9)40(50)31(8)39(49)30(7)38(48)26(3)18-21-37(47)54-41-29(6)35(20-19-34)55-45(33(41)10)23-22-25(2)36(56-45)24-28(5)46/h13-15,17-18,21,25-36,38,40-42,46,48,50-51,53H,12,16,19-20,22-24H2,1-11H3

>  <source>  (29) 
ChEMBL25

>  <source_id>  (29) 
25

>  <optional_reference>  (29) 
10.1124/mol.112.084152

>  <optional_origin>  (29) 
None

>  <target>  (29) 
OATP1B3

$$$$

     RDKit          2D

 35 39  0  0  0  0  0  0  0  0999 V2000
   -1.9900   -0.3700    0.0000 C   0  0  0  0  0  0  0  0  0  0  0  0
   -0.4500   -0.5900    0.0000 C   0  0  0  0  0  0  0  0  0  0  0  0
    1.9900    0.3700    0.0000 C   0  0  0  0  0  0  0  0  0  0  0  0
   -2.5700    1.0300    0.0000 C   0  0  0  0  0  0  0  0  0  0  0  0
    0.4500    0.5900    0.0000 C   0  0  0  0  0  0  0  0  0  0  0  0
    2.5700   -1.0300    0.0000 C   0  0  0  0  0  0  0  0  0  0  0  0
   -4.1100    1.2500    0.0000 C   0  0  0  0  0  0  0  0  0  0  0  0
    0.0800   -2.0200    0.0000 C   0  0  0  0  0  0  0  0  0  0  0  0
    4.1100   -1.2500    0.0000 C   0  0  0  0  0  0  0  0  0  0  0  0
    2.9600    1.5900    0.0000 C   0  0  0  0  0  0  0  0  0  0  0  0
   -2.9600   -1.5900    0.0000 C   0  0  0  0  0  0  0  0  0  0  0  0
   -5.0700    0.0300    0.0000 O   0  0  0  0  0  0  0  0  0  0  0  0
    1.6100   -2.2500    0.0000 C   0  0  0  0  0  0  0  0  0  0  0  0
   -4.6682    2.6431    0.0000 C   0  0  0  0  0  0  0  0  0  0  0  0
   -4.4900   -1.3800    0.0000 C   0  0  0  0  0  0  0  0  0  0  0  0
    4.4900    1.3800    0.0000 C   0  0  0  0  0  0  0  0  0  0  0  0
    5.0700    0.0000    0.0000 C   0  0  0  0  0  0  0  0  0  0  0  0
   -1.6100    2.2500    0.0000 C   0  0  0  0  0  0  0  0  0  0  0  0
    0.0000    2.0200    0.0000 C   0  0  0  0  0  0  0  0  0  0  0  0
   -0.8731   -3.1786    0.0000 O   0  0  0  0  0  0  0  0  0  0  0  0
   -0.3469   -4.5841    0.0000 C   0  0  0  0  0  0  0  0  0  0  0  0
   -6.1141    2.9915    0.0000 C   0  0  0  0  0  0  0  0  0  0  0  0
   -3.8601    3.8917    0.0000 C   0  0  0  0  0  0  0  0  0  0  0  0
   -6.2127    4.4883    0.0000 O   0  0  0  0  0  0  0  0  0  0  0  0
   -5.2243   -2.3291    0.0000 O   0  0  0  0  0  0  0  0  0  0  0  0
   -4.8197    5.0446    0.0000 C   0  0  0  0  0  0  0  0  0  0  0  0
   -1.1091   -5.5109    0.0000 O   0  0  0  0  0  0  0  0  0  0  0  0
    2.5134    2.7038    0.0000 O   0  0  0  0  0  0  0  0  0  0  0  0
   -1.2035   -1.5239    0.0000 C   0  0  0  0  0  0  0  0  0  0  0  0
    1.5465    1.4850    0.0000 C   0  0  0  0  0  0  0  0  0  0  0  0
   -3.0163    2.1439    0.0000 C   0  0  0  0  0  0  0  0  0  0  0  0
    6.2601   -0.1538    0.0000 O   0  0  0  0  0  0  0  0  0  0  0  0
    3.3523   -2.1805    0.0000 C   0  0  0  0  0  0  0  0  0  0  0  0
    5.3023   -1.3860    0.0000 C   0  0  0  0  0  0  0  0  0  0  0  0
    0.8368   -4.7813    0.0000 C   0  0  0  0  0  0  0  0  0  0  0  0
  2  1  1  0
  3  5  1  0
  4  1  1  0
  5  2  1  0
  6 13  1  0
  7  4  1  0
  8  2  1  0
  9  6  1  0
 10  3  1  0
 11  1  2  0
 12 15  1  0
 13  8  1  0
  7 14  1  0
 15 11  1  0
 16 10  1  0
 17  9  1  0
 18  4  1  0
 19 18  1  0
  8 20  1  0
 21 20  1  0
 22 14  2  0
 23 14  1  0
 24 22  1  0
 25 15  2  0
 26 23  2  0
 27 21  2  0
 10 28  1  0
  2 29  1  0
  3 30  1  0
  4 31  1  0
 17 32  1  0
 33  9  1  0
 34  9  1  0
 35 21  1  0
  7 12  1  0
 19  5  1  0
  3  6  1  0
 24 26  1  0
 16 17  1  0
M  END
>  <Classification>  (30) 
1

>  <pchembl>  (30) 
5.18

>  <InChI_steorem>  (30) 
InChI=1S/C28H38O7/c1-15(29)34-22-11-18-25(2,3)20(30)13-21(31)27(18,5)17-7-9-26(4)19(28(17,22)6)12-23(32)35-24(26)16-8-10-33-14-16/h8,10,12,14,17-18,20-22,24,30-31H,7,9,11,13H2,1-6H3

>  <source>  (30) 
ChEMBL25

>  <source_id>  (30) 
25

>  <optional_reference>  (30) 
10.1124/mol.112.084152

>  <optional_origin>  (30) 
None

>  <target>  (30) 
OATP1B3

$$$$

     RDKit          2D

 35 40  0  0  0  0  0  0  0  0999 V2000
    0.5200   -0.6300    0.0000 C   0  0  0  0  0  0  0  0  0  0  0  0
   -0.7700   -1.4300    0.0000 C   0  0  0  0  0  0  0  0  0  0  0  0
   -3.4200   -2.9800    0.0000 C   0  0  0  0  0  0  0  0  0  0  0  0
   -3.4400   -1.4500    0.0000 C   0  0  0  0  0  0  0  0  0  0  0  0
    0.4900    0.8100    0.0000 C   0  0  0  0  0  0  0  0  0  0  0  0
    0.8300   -2.1400    0.0000 O   0  0  0  0  0  0  0  0  0  0  0  0
   -0.7500   -2.9800    0.0000 C   0  0  0  0  0  0  0  0  0  0  0  0
    1.9300   -1.1700    0.0000 C   0  0  0  0  0  0  0  0  0  0  0  0
   -2.1000   -3.7900    0.0000 C   0  0  0  0  0  0  0  0  0  0  0  0
   -2.1000   -0.6500    0.0000 C   0  0  0  0  0  0  0  0  0  0  0  0
    1.9700    1.2900    0.0000 C   0  0  0  0  0  0  0  0  0  0  0  0
   -4.7600   -3.8100    0.0000 C   0  0  0  0  0  0  0  0  0  0  0  0
   -2.0400    0.8500    0.0000 C   0  0  0  0  0  0  0  0  0  0  0  0
   -4.7900   -0.6500    0.0000 C   0  0  0  0  0  0  0  0  0  0  0  0
   -0.7700    1.5700    0.0000 C   0  0  0  0  0  0  0  0  0  0  0  0
    2.8700    0.1000    0.0000 C   0  0  0  0  0  0  0  0  0  0  0  0
    2.4204    2.7216    0.0000 C   0  0  0  0  0  0  0  0  0  0  0  0
   -6.1100   -3.0200    0.0000 C   0  0  0  0  0  0  0  0  0  0  0  0
   -6.1600   -1.4700    0.0000 C   0  0  0  0  0  0  0  0  0  0  0  0
   -3.3142    1.6442    0.0000 O   0  0  0  0  0  0  0  0  0  0  0  0
    0.2980   -3.5645    0.0000 O   0  0  0  0  0  0  0  0  0  0  0  0
   -3.2641    3.1442    0.0000 C   0  0  0  0  0  0  0  0  0  0  0  0
    3.6712    4.7726    0.0000 O   0  0  0  0  0  0  0  0  0  0  0  0
    3.7950    3.2777    0.0000 C   0  0  0  0  0  0  0  0  0  0  0  0
    1.4327    3.8347    0.0000 C   0  0  0  0  0  0  0  0  0  0  0  0
   -2.1060   -4.9900    0.0000 O   0  0  0  0  0  0  0  0  0  0  0  0
    2.2113    5.1168    0.0000 C   0  0  0  0  0  0  0  0  0  0  0  0
   -7.1412   -3.6337    0.0000 O   0  0  0  0  0  0  0  0  0  0  0  0
   -4.2824    3.7792    0.0000 O   0  0  0  0  0  0  0  0  0  0  0  0
    0.2823   -2.0068    0.0000 C   0  0  0  0  0  0  0  0  0  0  0  0
   -3.4420   -0.2500    0.0000 C   0  0  0  0  0  0  0  0  0  0  0  0
    0.6272    2.0021    0.0000 C   0  0  0  0  0  0  0  0  0  0  0  0
   -3.7006   -4.3737    0.0000 C   0  0  0  0  0  0  0  0  0  0  0  0
   -5.8048   -4.4002    0.0000 C   0  0  0  0  0  0  0  0  0  0  0  0
   -2.2053    3.7089    0.0000 C   0  0  0  0  0  0  0  0  0  0  0  0
  2  1  1  0
  3  4  1  0
  4 10  1  0
  5  1  1  0
  1  6  1  0
  7  2  1  0
  8  1  1  0
  9  7  1  0
 10  2  1  0
 11  5  1  0
 12  3  1  0
 13 15  1  0
 14  4  1  0
 15  5  1  0
  8 16  1  0
 11 17  1  0
 18 19  1  0
 19 14  2  0
 13 20  1  0
 21  7  2  0
 22 20  1  0
 23 24  1  0
 24 17  2  0
 25 17  1  0
 26  9  1  0
 27 25  2  0
 28 18  2  0
 29 22  2  0
  2 30  1  0
  4 31  1  0
  5 32  1  0
 33 12  1  0
 34 12  1  0
 35 22  1  0
  8  6  1  0
 11 16  1  0
 10 13  1  0
  9  3  2  0
 23 27  1  0
 18 12  1  0
M  END
>  <Classification>  (31) 
1

>  <pchembl>  (31) 
5.46

>  <InChI_steorem>  (31) 
InChI=1S/C28H32O7/c1-14(29)34-17-12-26(5)16(15-8-10-33-13-15)11-19-28(26,35-19)27(6)21(17)25(4)9-7-18(30)24(2,3)22(25)20(31)23(27)32/h7-10,13,16-17,19,21,31H,11-12H2,1-6H3

>  <source>  (31) 
ChEMBL25

>  <source_id>  (31) 
25

>  <optional_reference>  (31) 
10.1124/mol.112.084152

>  <optional_origin>  (31) 
None

>  <target>  (31) 
OATP1B3

$$$$

     RDKit          2D

 37 41  0  0  0  0  0  0  0  0999 V2000
   -1.9900   -0.3700    0.0000 C   0  0  0  0  0  0  0  0  0  0  0  0
   -0.4500   -0.5900    0.0000 C   0  0  0  0  0  0  0  0  0  0  0  0
   -2.5700    1.0300    0.0000 C   0  0  0  0  0  0  0  0  0  0  0  0
    1.9900    0.3700    0.0000 C   0  0  0  0  0  0  0  0  0  0  0  0
    0.4500    0.5900    0.0000 C   0  0  0  0  0  0  0  0  0  0  0  0
    2.5700   -1.0300    0.0000 C   0  0  0  0  0  0  0  0  0  0  0  0
   -4.1100    1.2500    0.0000 C   0  0  0  0  0  0  0  0  0  0  0  0
    0.0800   -2.0200    0.0000 C   0  0  0  0  0  0  0  0  0  0  0  0
    4.1100   -1.2500    0.0000 C   0  0  0  0  0  0  0  0  0  0  0  0
   -2.9600   -1.5900    0.0000 C   0  0  0  0  0  0  0  0  0  0  0  0
   -5.0700    0.0300    0.0000 O   0  0  0  0  0  0  0  0  0  0  0  0
    1.6100   -2.2500    0.0000 C   0  0  0  0  0  0  0  0  0  0  0  0
   -4.6682    2.6431    0.0000 C   0  0  0  0  0  0  0  0  0  0  0  0
   -4.4900   -1.3800    0.0000 C   0  0  0  0  0  0  0  0  0  0  0  0
    5.0700    0.0000    0.0000 C   0  0  0  0  0  0  0  0  0  0  0  0
   -1.6100    2.2500    0.0000 C   0  0  0  0  0  0  0  0  0  0  0  0
    0.0000    2.0200    0.0000 C   0  0  0  0  0  0  0  0  0  0  0  0
    2.9600    1.5900    0.0000 C   0  0  0  0  0  0  0  0  0  0  0  0
   -0.8731   -3.1786    0.0000 O   0  0  0  0  0  0  0  0  0  0  0  0
    6.5602   -0.1748    0.0000 O   0  0  0  0  0  0  0  0  0  0  0  0
   -0.3469   -4.5841    0.0000 C   0  0  0  0  0  0  0  0  0  0  0  0
    7.1554   -1.5525    0.0000 C   0  0  0  0  0  0  0  0  0  0  0  0
   -6.1141    2.9915    0.0000 C   0  0  0  0  0  0  0  0  0  0  0  0
   -3.8601    3.8917    0.0000 C   0  0  0  0  0  0  0  0  0  0  0  0
   -6.2127    4.4883    0.0000 O   0  0  0  0  0  0  0  0  0  0  0  0
    4.4900    1.3800    0.0000 C   0  0  0  0  0  0  0  0  0  0  0  0
   -5.2243   -2.3291    0.0000 O   0  0  0  0  0  0  0  0  0  0  0  0
   -4.8197    5.0446    0.0000 C   0  0  0  0  0  0  0  0  0  0  0  0
   -1.1091   -5.5109    0.0000 O   0  0  0  0  0  0  0  0  0  0  0  0
    8.3472   -1.6920    0.0000 O   0  0  0  0  0  0  0  0  0  0  0  0
   -1.2035   -1.5239    0.0000 C   0  0  0  0  0  0  0  0  0  0  0  0
   -3.0163    2.1439    0.0000 C   0  0  0  0  0  0  0  0  0  0  0  0
    1.5465    1.4850    0.0000 C   0  0  0  0  0  0  0  0  0  0  0  0
    3.3523   -2.1805    0.0000 C   0  0  0  0  0  0  0  0  0  0  0  0
    5.3023   -1.3860    0.0000 C   0  0  0  0  0  0  0  0  0  0  0  0
    0.8368   -4.7813    0.0000 C   0  0  0  0  0  0  0  0  0  0  0  0
    6.4390   -2.5152    0.0000 C   0  0  0  0  0  0  0  0  0  0  0  0
  2  1  1  0
  3  1  1  0
  4  5  1  0
  5  2  1  0
  6 12  1  0
  7  3  1  0
  8  2  1  0
  9  6  1  0
 10  1  2  0
 11 14  1  0
 12  8  1  0
  7 13  1  0
 14 10  1  0
 15  9  1  0
 16  3  1  0
 17 16  1  0
 18  4  1  0
  8 19  1  0
 15 20  1  0
 21 19  1  0
 22 20  1  0
 23 13  2  0
 24 13  1  0
 25 23  1  0
 26 18  1  0
 27 14  2  0
 28 24  2  0
 29 21  2  0
 30 22  2  0
  2 31  1  0
  3 32  1  0
  4 33  1  0
 34  9  1  0
 35  9  1  0
 36 21  1  0
 37 22  1  0
  7 11  1  0
 17  5  1  0
  6  4  1  0
 25 28  1  0
 26 15  1  0
M  END
>  <Classification>  (32) 
1

>  <pchembl>  (32) 
5.57

>  <InChI_steorem>  (32) 
InChI=1S/C30H40O7/c1-17(31)35-23-9-12-28(5)20-8-11-29(6)22(15-25(33)37-26(29)19-10-13-34-16-19)30(20,7)24(36-18(2)32)14-21(28)27(23,3)4/h10,13,15-16,20-21,23-24,26H,8-9,11-12,14H2,1-7H3

>  <source>  (32) 
ChEMBL25

>  <source_id>  (32) 
25

>  <optional_reference>  (32) 
10.1124/mol.112.084152

>  <optional_origin>  (32) 
None

>  <target>  (32) 
OATP1B3

$$$$

     RDKit          2D

 49 54  0  0  0  0  0  0  0  0999 V2000
    1.5500   -0.5300    0.0000 C   0  0  0  0  0  0  0  0  0  0  0  0
    2.4500    0.5000    0.0000 C   0  0  0  0  0  0  0  0  0  0  0  0
    1.5700   -1.9700    0.0000 C   0  0  0  0  0  0  0  0  0  0  0  0
   -0.8900   -1.9400    0.0000 C   0  0  0  0  0  0  0  0  0  0  0  0
    0.3100   -2.6400    0.0000 C   0  0  0  0  0  0  0  0  0  0  0  0
   -0.8900   -0.5300    0.0000 C   0  0  0  0  0  0  0  0  0  0  0  0
    5.5000   -1.2900    0.0000 C   0  0  0  0  0  0  0  0  0  0  0  0
   -2.1100   -2.6400    0.0000 C   0  0  0  0  0  0  0  0  0  0  0  0
    0.3100    0.1600    0.0000 O   0  0  0  0  0  0  0  0  0  0  0  0
   -3.3300   -0.5300    0.0000 C   0  0  0  0  0  0  0  0  0  0  0  0
   -3.3300   -1.9400    0.0000 C   0  0  0  0  0  0  0  0  0  0  0  0
    3.8300    0.7200    0.0000 O   0  0  0  0  0  0  0  0  0  0  0  0
   -2.1100    0.1600    0.0000 C   0  0  0  0  0  0  0  0  0  0  0  0
    2.4200   -3.0200    0.0000 C   0  0  0  0  0  0  0  0  0  0  0  0
    3.3200   -0.7100    0.0000 C   0  0  0  0  0  0  0  0  0  0  0  0
    5.0300    0.0000    0.0000 C   0  0  0  0  0  0  0  0  0  0  0  0
    3.8000   -3.2800    0.0000 C   0  0  0  0  0  0  0  0  0  0  0  0
    5.0100   -2.5900    0.0000 C   0  0  0  0  0  0  0  0  0  0  0  0
   -4.5500   -2.6400    0.0000 C   0  0  0  0  0  0  0  0  0  0  0  0
   -4.5500    0.1600    0.0000 O   0  0  0  0  0  0  0  0  0  0  0  0
    3.5950    1.4898    0.0000 C   0  0  0  0  0  0  0  0  0  0  0  0
   -2.6266   -4.0502    0.0000 O   0  0  0  0  0  0  0  0  0  0  0  0
    3.3330    2.9676    0.0000 C   0  0  0  0  0  0  0  0  0  0  0  0
   -2.1069    1.6620    0.0000 C   0  0  0  0  0  0  0  0  0  0  0  0
    4.2193    5.4119    0.0000 C   0  0  0  0  0  0  0  0  0  0  0  0
    4.4812    3.9341    0.0000 C   0  0  0  0  0  0  0  0  0  0  0  0
   -5.7600   -1.9400    0.0000 C   0  0  0  0  0  0  0  0  0  0  0  0
   -5.7600   -0.5300    0.0000 C   0  0  0  0  0  0  0  0  0  0  0  0
   -0.8061    2.4106    0.0000 C   0  0  0  0  0  0  0  0  0  0  0  0
   -4.1049   -4.3087    0.0000 C   0  0  0  0  0  0  0  0  0  0  0  0
    0.2864   -3.8398    0.0000 O   0  0  0  0  0  0  0  0  0  0  0  0
    4.4234   -0.2383    0.0000 O   0  0  0  0  0  0  0  0  0  0  0  0
    5.1374    6.1846    0.0000 O   0  0  0  0  0  0  0  0  0  0  0  0
   -0.8030    3.9114    0.0000 C   0  0  0  0  0  0  0  0  0  0  0  0
   -4.5177   -5.4355    0.0000 O   0  0  0  0  0  0  0  0  0  0  0  0
   -8.3368   -5.0468    0.0000 C   0  0  0  0  0  0  0  0  0  0  0  0
   -8.3321   -3.5460    0.0000 C   0  0  0  0  0  0  0  0  0  0  0  0
    3.0912    5.8209    0.0000 O   0  0  0  0  0  0  0  0  0  0  0  0
    5.9521   -0.3871    0.0000 C   0  0  0  0  0  0  0  0  0  0  0  0
    4.7841    1.1745    0.0000 C   0  0  0  0  0  0  0  0  0  0  0  0
   -7.0305   -2.7988    0.0000 C   0  0  0  0  0  0  0  0  0  0  0  0
   -7.0259   -1.2980    0.0000 C   0  0  0  0  0  0  0  0  0  0  0  0
    5.6094    3.5250    0.0000 C   0  0  0  0  0  0  0  0  0  0  0  0
   -4.8747   -3.3881    0.0000 C   0  0  0  0  0  0  0  0  0  0  0  0
   -5.7277    0.6696    0.0000 C   0  0  0  0  0  0  0  0  0  0  0  0
    0.2371    4.5099    0.0000 C   0  0  0  0  0  0  0  0  0  0  0  0
   -1.8412    4.5132    0.0000 C   0  0  0  0  0  0  0  0  0  0  0  0
   -9.3775   -5.6443    0.0000 C   0  0  0  0  0  0  0  0  0  0  0  0
   -7.2992   -5.6497    0.0000 C   0  0  0  0  0  0  0  0  0  0  0  0
  1  2  1  0
  3  1  1  0
  4  6  2  0
  5  3  1  0
  6  9  1  0
  1  7  1  0
  8  4  1  0
  9  1  1  0
 10 13  2  0
 11 10  1  0
 12  2  1  0
 13  6  1  0
 14  3  2  0
 15  2  1  0
 16  7  1  0
 17 18  1  0
 18  7  1  0
 19 11  1  0
 20 10  1  0
  2 21  1  0
 22  8  1  0
 23 21  1  0
 24 13  1  0
 25 26  1  0
 26 23  2  3
 27 28  1  0
 28 20  1  0
 29 24  1  0
 30 22  1  0
 31  5  2  0
 32 15  2  0
 33 25  2  0
 34 29  2  3
 35 30  2  0
 36 37  2  3
 37 41  1  0
 38 25  1  0
 39 16  1  0
 40 16  1  0
 41 42  1  0
 28 42  1  0
 43 26  1  0
 44 30  1  0
 28 45  1  0
 46 34  1  0
 47 34  1  0
 48 36  1  0
 49 36  1  0
 16 12  1  0
  5  4  1  0
 17 15  1  0
 14 17  1  0
 11  8  2  0
 19 27  2  0
M  END
>  <Classification>  (33) 
1

>  <pchembl>  (33) 
5.27

>  <InChI_steorem>  (33) 
InChI=1S/C40H46O9/c1-21(2)11-10-16-38(9)17-15-27-32(47-38)26(13-12-22(3)4)34-30(33(27)46-24(6)41)31(42)28-19-25-20-29-37(7,8)49-39(35(25)43,40(28,29)48-34)18-14-23(5)36(44)45/h11-12,14-15,17,19,25,29H,10,13,16,18,20H2,1-9H3,(H,44,45)

>  <source>  (33) 
ChEMBL25

>  <source_id>  (33) 
25

>  <optional_reference>  (33) 
10.1124/mol.112.084152

>  <optional_origin>  (33) 
None

>  <target>  (33) 
OATP1B3

$$$$

     RDKit          2D

 58 66  0  0  0  0  0  0  0  0999 V2000
    0.2650   -0.7760    0.0000 C   0  0  0  0  0  0  0  0  0  0  0  0
   -1.3817    0.2082    0.0000 C   0  0  0  0  0  0  0  0  0  0  0  0
   -1.1735   -2.8958    0.0000 C   0  0  0  0  0  0  0  0  0  0  0  0
   -2.4984   -0.6246    0.0000 C   0  0  0  0  0  0  0  0  0  0  0  0
    1.9116    0.2082    0.0000 C   0  0  0  0  0  0  0  0  0  0  0  0
   -1.1735   -1.2870    0.0000 C   0  0  0  0  0  0  0  0  0  0  0  0
   -1.1534   -7.5359    0.0000 C   0  0  0  0  0  0  0  0  0  0  0  0
    1.9116    2.1009    0.0000 C   0  0  0  0  0  0  0  0  0  0  0  0
    0.0757   -2.1198    0.0000 C   0  0  0  0  0  0  0  0  0  0  0  0
   -3.6908   -3.0662    0.0000 C   0  0  0  0  0  0  0  0  0  0  0  0
   -2.5382   -7.4719    0.0000 O   0  0  0  0  0  0  0  0  0  0  0  0
   -2.4605   -3.7854    0.0000 C   0  0  0  0  0  0  0  0  0  0  0  0
    0.2271    1.8170    0.0000 C   0  0  0  0  0  0  0  0  0  0  0  0
   -3.6908   -1.6277    0.0000 C   0  0  0  0  0  0  0  0  0  0  0  0
   -1.1565   -6.0351    0.0000 C   0  0  0  0  0  0  0  0  0  0  0  0
   -1.7858   -8.7695    0.0000 C   0  0  0  0  0  0  0  0  0  0  0  0
    0.0568    0.5300    0.0000 O   0  0  0  0  0  0  0  0  0  0  0  0
    3.1987    2.6498    0.0000 C   0  0  0  0  0  0  0  0  0  0  0  0
   -0.8517    1.1167    0.0000 O   0  0  0  0  0  0  0  0  0  0  0  0
   -1.3817    2.1009    0.0000 C   0  0  0  0  0  0  0  0  0  0  0  0
    1.2870    1.1735    0.0000 O   0  0  0  0  0  0  0  0  0  0  0  0
   -1.8548   -2.6309    0.0000 C   0  0  0  0  0  0  0  0  0  0  0  0
   -2.4572   -5.2864    0.0000 O   0  0  0  0  0  0  0  0  0  0  0  0
    0.2650    3.0662    0.0000 C   0  0  0  0  0  0  0  0  0  0  0  0
    3.1987   -0.3407    0.0000 C   0  0  0  0  0  0  0  0  0  0  0  0
    4.5046    1.9116    0.0000 O   0  0  0  0  0  0  0  0  0  0  0  0
    4.5046    0.3975    0.0000 C   0  0  0  0  0  0  0  0  0  0  0  0
    3.2365    4.1072    0.0000 C   0  0  0  0  0  0  0  0  0  0  0  0
   -2.0371    4.6437    0.0000 C   0  0  0  0  0  0  0  0  0  0  0  0
   -0.9747    3.5836    0.0000 O   0  0  0  0  0  0  0  0  0  0  0  0
    1.6107   -2.4242    0.0000 O   0  0  0  0  0  0  0  0  0  0  0  0
   -4.5491   -0.3403    0.0000 C   0  0  0  0  0  0  0  0  0  0  0  0
    2.0926   -3.8455    0.0000 C   0  0  0  0  0  0  0  0  0  0  0  0
   -3.8890    1.0076    0.0000 C   0  0  0  0  0  0  0  0  0  0  0  0
   -0.0942   -3.4205    0.0000 O   0  0  0  0  0  0  0  0  0  0  0  0
    4.5262    4.8569    0.0000 C   0  0  0  0  0  0  0  0  0  0  0  0
   -0.1182   -5.4333    0.0000 O   0  0  0  0  0  0  0  0  0  0  0  0
    2.1091    5.0766    0.0000 C   0  0  0  0  0  0  0  0  0  0  0  0
    4.1937    6.3196    0.0000 O   0  0  0  0  0  0  0  0  0  0  0  0
    0.0265   -1.2870    0.0000 O   0  0  0  0  0  0  0  0  0  0  0  0
   -3.1958    4.3316    0.0000 O   0  0  0  0  0  0  0  0  0  0  0  0
    5.5522   -0.1879    0.0000 O   0  0  0  0  0  0  0  0  0  0  0  0
    2.6998    6.4554    0.0000 C   0  0  0  0  0  0  0  0  0  0  0  0
    3.2693   -4.0808    0.0000 O   0  0  0  0  0  0  0  0  0  0  0  0
   -2.6917    1.0890    0.0000 O   0  0  0  0  0  0  0  0  0  0  0  0
   -0.1132   -8.1341    0.0000 C   0  0  0  0  0  0  0  0  0  0  0  0
   -2.4769    0.5752    0.0000 C   0  0  0  0  0  0  0  0  0  0  0  0
    1.9480    3.3003    0.0000 C   0  0  0  0  0  0  0  0  0  0  0  0
   -1.6510    6.0940    0.0000 C   0  0  0  0  0  0  0  0  0  0  0  0
   -4.7398   -3.6489    0.0000 C   0  0  0  0  0  0  0  0  0  0  0  0
    0.8134    2.8640    0.0000 C   0  0  0  0  0  0  0  0  0  0  0  0
   -4.7254    2.2537    0.0000 O   0  0  0  0  0  0  0  0  0  0  0  0
   -1.7547   -9.9691    0.0000 C   0  0  0  0  0  0  0  0  0  0  0  0
    1.3008   -4.7472    0.0000 C   0  0  0  0  0  0  0  0  0  0  0  0
   -2.7134    7.1542    0.0000 C   0  0  0  0  0  0  0  0  0  0  0  0
   -0.4923    6.4062    0.0000 C   0  0  0  0  0  0  0  0  0  0  0  0
   -4.1976    3.3314    0.0000 C   0  0  0  0  0  0  0  0  0  0  0  0
   -2.4047    8.3138    0.0000 C   0  0  0  0  0  0  0  0  0  0  0  0
  2  1  1  0
  3  9  1  0
  4  2  1  0
  5  1  1  0
  3  6  1  0
  7 15  1  0
  8  5  1  0
  9  1  1  0
 10 12  1  0
 11  7  1  0
 12  3  1  0
 13 17  1  0
 14  4  1  0
 15 23  1  0
 16  7  1  0
  1 17  1  0
 18  8  1  0
  2 19  1  0
 20  2  1  0
  5 21  1  0
 22  6  1  0
 23 12  1  0
 24  8  1  0
 25  5  1  0
 26 27  1  0
 27 25  1  0
 18 28  1  0
 29 30  1  0
 20 30  1  0
  9 31  1  0
 14 32  1  0
 33 31  1  0
 34 32  1  0
  3 35  1  0
 36 28  2  0
 37 15  2  0
 38 28  1  0
 39 36  1  0
  6 40  1  0
 41 29  2  0
 42 27  2  0
 43 38  2  0
 44 33  2  0
 45 34  2  0
 46  7  1  0
  4 47  1  0
  8 48  1  0
 49 29  1  0
 10 50  1  0
 13 51  1  0
 52 34  1  0
 53 16  1  0
 54 33  1  0
 55 49  1  0
 56 49  1  0
 57 52  1  0
 58 55  1  0
 13 21  1  0
 19 13  1  0
  4  6  1  0
 20 24  1  0
 14 10  1  0
 22 10  1  0
 26 18  1  0
 39 43  1  0
 16 11  1  0
M  END
>  <Classification>  (34) 
1

>  <pchembl>  (34) 
6.11

>  <InChI_steorem>  (34) 
InChI=1S/C41H52O17/c1-11-19(2)28(45)52-24-15-33(6)27(22-12-13-50-17-22)53-26(44)16-38(33)41-30(51-21(4)42)39(48)29(54-31(46)34(7)20(3)55-34)32(5)18-37(39,47)35(8,23(32)14-25(43)49-10)40(24,41)57-36(9,56-38)58-41/h12-13,17,19-20,23-24,27,29-30,47-48H,11,14-16,18H2,1-10H3

>  <source>  (34) 
ChEMBL25

>  <source_id>  (34) 
25

>  <optional_reference>  (34) 
10.1124/mol.112.084152

>  <optional_origin>  (34) 
None

>  <target>  (34) 
OATP1B3

$$$$

     RDKit          2D

 61 68  0  0  0  0  0  0  0  0999 V2000
    5.2085    5.9893    0.0000 C   0  0  0  0  0  0  0  0  0  0  0  0
    2.6166    7.5000    0.0000 C   0  0  0  0  0  0  0  0  0  0  0  0
    3.9064    5.2447    0.0000 C   0  0  0  0  0  0  0  0  0  0  0  0
    5.2147    7.4893    0.0000 C   0  0  0  0  0  0  0  0  0  0  0  0
    3.9187    8.2446    0.0000 C   0  0  0  0  0  0  0  0  0  0  0  0
    2.5981    3.0000    0.0000 C   0  0  0  0  0  0  0  0  0  0  0  0
    5.1961    2.9893    0.0000 C   0  0  0  0  0  0  0  0  0  0  0  0
    3.9002    3.7447    0.0000 C   0  0  0  0  0  0  0  0  0  0  0  0
    2.6104    6.0000    0.0000 C   0  0  0  0  0  0  0  0  0  0  0  0
    2.1275    9.8660    0.0000 C   0  0  0  0  0  0  0  0  0  0  0  0
    1.5118    8.4982    0.0000 C   0  0  0  0  0  0  0  0  0  0  0  0
    2.5919    1.5000    0.0000 C   0  0  0  0  0  0  0  0  0  0  0  0
    2.6104    6.0000    0.0000 C   0  0  0  0  0  0  0  0  0  0  0  0
    6.5044    5.2340    0.0000 C   0  0  0  0  0  0  0  0  0  0  0  0
    5.1900    1.4893    0.0000 C   0  0  0  0  0  0  0  0  0  0  0  0
    2.6293    7.6619    0.0000 C   0  0  0  0  0  0  0  0  0  0  0  0
    6.4982    3.7340    0.0000 C   0  0  0  0  0  0  0  0  0  0  0  0
    3.8878    0.7447    0.0000 O   0  0  0  0  0  0  0  0  0  0  0  0
    3.9064    5.2447    0.0000 O   0  0  0  0  0  0  0  0  0  0  0  0
    2.8610    4.4164    0.0000 O   0  0  0  0  0  0  0  0  0  0  0  0
    2.6166    7.5000    0.0000 O   0  0  0  0  0  0  0  0  0  0  0  0
    3.6187    9.7031    0.0000 C   0  0  0  0  0  0  0  0  0  0  0  0
    1.2999    3.7531    0.0000 C   0  0  0  0  0  0  0  0  0  0  0  0
    0.5085    9.6110    0.0000 O   0  0  0  0  0  0  0  0  0  0  0  0
    6.4865    0.7336    0.0000 C   0  0  0  0  0  0  0  0  0  0  0  0
    0.9705   11.0389    0.0000 C   0  0  0  0  0  0  0  0  0  0  0  0
    1.6433    4.8523    0.0000 O   0  0  0  0  0  0  0  0  0  0  0  0
    7.9830    5.4915    0.0000 O   0  0  0  0  0  0  0  0  0  0  0  0
    7.7965    2.9809    0.0000 O   0  0  0  0  0  0  0  0  0  0  0  0
    1.3146    6.9670    0.0000 C   0  0  0  0  0  0  0  0  0  0  0  0
    8.5001    6.9004    0.0000 C   0  0  0  0  0  0  0  0  0  0  0  0
    2.6049    3.7000    0.0000 C   0  0  0  0  0  0  0  0  0  0  0  0
    1.5502    0.9043    0.0000 O   0  0  0  0  0  0  0  0  0  0  0  0
    9.0982    3.7278    0.0000 C   0  0  0  0  0  0  0  0  0  0  0  0
    0.0442    7.7662    0.0000 C   0  0  0  0  0  0  0  0  0  0  0  0
    3.5854    6.7918    0.0000 O   0  0  0  0  0  0  0  0  0  0  0  0
    7.8415    1.3469    0.0000 C   0  0  0  0  0  0  0  0  0  0  0  0
    6.6160   -0.7480    0.0000 C   0  0  0  0  0  0  0  0  0  0  0  0
    8.8388    0.2265    0.0000 O   0  0  0  0  0  0  0  0  0  0  0  0
    2.1440   11.2895    0.0000 O   0  0  0  0  0  0  0  0  0  0  0  0
    8.0814   -1.0682    0.0000 C   0  0  0  0  0  0  0  0  0  0  0  0
    2.1922    2.5732    0.0000 O   0  0  0  0  0  0  0  0  0  0  0  0
    9.6823    7.1064    0.0000 O   0  0  0  0  0  0  0  0  0  0  0  0
   10.1362    3.1256    0.0000 O   0  0  0  0  0  0  0  0  0  0  0  0
    0.0902    8.9653    0.0000 O   0  0  0  0  0  0  0  0  0  0  0  0
    0.7886    5.1642    0.0000 C   0  0  0  0  0  0  0  0  0  0  0  0
    4.3366    6.6713    0.0000 C   0  0  0  0  0  0  0  0  0  0  0  0
    6.2329    2.3851    0.0000 C   0  0  0  0  0  0  0  0  0  0  0  0
    0.2596    3.1549    0.0000 O   0  0  0  0  0  0  0  0  0  0  0  0
   -0.0345   12.1536    0.0000 C   0  0  0  0  0  0  0  0  0  0  0  0
    2.0082    8.6719    0.0000 C   0  0  0  0  0  0  0  0  0  0  0  0
    3.8069    6.0916    0.0000 C   0  0  0  0  0  0  0  0  0  0  0  0
   -1.2835    7.0665    0.0000 O   0  0  0  0  0  0  0  0  0  0  0  0
    3.7872    3.9056    0.0000 C   0  0  0  0  0  0  0  0  0  0  0  0
    9.1011    4.9278    0.0000 C   0  0  0  0  0  0  0  0  0  0  0  0
    7.7309    7.8215    0.0000 C   0  0  0  0  0  0  0  0  0  0  0  0
   -0.3928    5.3750    0.0000 C   0  0  0  0  0  0  0  0  0  0  0  0
    1.5615    6.0821    0.0000 C   0  0  0  0  0  0  0  0  0  0  0  0
    0.3349   13.2954    0.0000 C   0  0  0  0  0  0  0  0  0  0  0  0
   -1.2080   11.9030    0.0000 C   0  0  0  0  0  0  0  0  0  0  0  0
   -2.2992    7.7055    0.0000 C   0  0  0  0  0  0  0  0  0  0  0  0
  2  5  1  0
  3  1  1  0
  4  1  1  0
  4  5  1  0
  6  8  1  0
  7 17  1  0
  8  3  1  0
  9  3  1  0
 10 16  1  0
 11 10  1  0
 12  6  1  0
 13 19  1  0
 14  1  1  0
 15  7  1  0
 16  4  1  0
 17 14  1  0
 18 15  1  0
  1 19  1  0
  3 20  1  0
 21 13  1  0
 22  5  1  0
 23  6  2  3
 24 11  1  0
 15 25  1  0
 26 24  1  0
  9 27  1  0
 14 28  1  0
 29 17  1  0
 16 30  1  0
 31 28  1  0
 32 27  1  0
 33 12  2  0
 34 29  1  0
 35 30  1  0
  2 36  1  0
 37 25  2  0
 38 25  1  0
 39 37  1  0
 40 26  2  0
 41 38  2  0
 42 32  2  0
 43 31  2  0
 44 34  2  0
 45 35  2  0
 46 23  1  0
  4 47  1  0
  7 48  1  0
 49 23  1  0
 50 26  1  0
 10 51  1  0
 13 52  1  0
 53 35  1  0
 54 32  1  0
 55 34  1  0
 56 31  1  0
 57 46  1  0
 58 46  1  0
 59 50  1  0
 60 50  1  0
 61 53  1  0
 13 20  1  0
  9  2  1  0
  8  7  1  0
  5 21  1  0
 22 10  1  0
  2 11  1  0
 12 18  1  0
 39 41  1  0
M  END
>  <Classification>  (35) 
1

>  <pchembl>  (35) 
6.16

>  <InChI_steorem>  (35) 
InChI=1S/C43H54O18/c1-18(2)27(48)26-28-37(9,29(57-33(26)50)23-13-14-53-16-23)30(54-20(5)44)31(55-21(6)45)43-38(10)24(15-25(47)52-12)36(8)17-40(38)41(51,34(36)58-32(49)19(3)4)35(56-22(7)46)42(28,43)60-39(11,59-40)61-43/h13-14,16,18-19,24,28-31,34-35,48,51H,15,17H2,1-12H3

>  <source>  (35) 
ChEMBL25

>  <source_id>  (35) 
25

>  <optional_reference>  (35) 
10.1124/mol.112.084152

>  <optional_origin>  (35) 
None

>  <target>  (35) 
OATP1B3

$$$$

     RDKit          2D

 95 96  0  1  0  0  0  0  0  0999 V2000
    2.7713   -0.4717    0.0000 O   0  0  0  0  0  0  0  0  0  0  0  0
    2.8677   -2.8787    0.0000 C   0  0  0  0  0  0  0  0  0  0  0  0
    2.1554   -0.8269    0.0000 O   0  0  0  0  0  0  0  0  0  0  0  0
    2.1554   -3.2959    0.0000 C   0  0  0  0  0  0  0  0  0  0  0  0
    0.7251   -3.2959    0.0000 C   0  0  0  0  0  0  0  0  0  0  0  0
    1.4412   -2.8787    0.0000 C   0  0  0  0  0  0  0  0  0  0  0  0
    0.7251   -0.8269    0.0000 C   0  0  0  0  0  0  0  0  0  0  0  0
    0.0172   -2.8787    0.0000 O   0  0  0  0  0  0  0  0  0  0  0  0
   -2.1293   -0.8269    0.0000 C   0  0  0  0  0  0  0  0  0  0  0  0
   -1.4216    0.4179    0.0000 C   0  0  0  0  0  0  0  0  0  0  0  0
   -1.4216   -0.4173    0.0000 C   0  0  0  0  0  0  0  0  0  0  0  0
   -0.7081   -0.8269    0.0000 C   0  0  0  0  0  0  0  0  0  0  0  0
   -2.1293   -1.6453    0.0000 C   0  0  0  0  0  0  0  0  0  0  0  0
   -0.7070   -4.4762    0.0000 O   0  0  0  0  0  0  0  0  0  0  0  0
   -2.0924   -3.6075    0.0000 C   0  0  0  0  0  0  0  0  0  0  0  0
   -3.5075   -3.5718    0.0000 C   0  0  0  0  0  0  0  0  0  0  0  0
   -2.8164   -3.9999    0.0000 C   0  0  0  0  0  0  0  0  0  0  0  0
   -2.8303   -4.8220    0.0000 C   0  0  0  0  0  0  0  0  0  0  0  0
   -2.8415   -6.4881    0.0000 C   0  0  0  0  0  0  0  0  0  0  0  0
   -1.4216   -7.3069    0.0000 O   0  0  0  0  0  0  0  0  0  0  0  0
   -0.7081   -5.2508    0.0000 C   0  0  0  0  0  0  0  0  0  0  0  0
    0.7251   -5.2508    0.0000 O   0  0  0  0  0  0  0  0  0  0  0  0
    1.4412   -7.3069    0.0000 C   0  0  0  0  0  0  0  0  0  0  0  0
    2.8677   -7.3069    0.0000 O   0  0  0  0  0  0  0  0  0  0  0  0
    2.1554   -5.2508    0.0000 C   0  0  0  0  0  0  0  0  0  0  0  0
    2.8677   -4.0145    0.0000 C   0  0  0  0  0  0  0  0  0  0  0  0
    2.8677   -4.8412    0.0000 C   0  0  0  0  0  0  0  0  0  0  0  0
    3.5842   -5.2508    0.0000 C   0  0  0  0  0  0  0  0  0  0  0  0
    4.2932   -7.3069    0.0000 C   0  0  0  0  0  0  0  0  0  0  0  0
    5.0057   -5.2508    0.0000 O   0  0  0  0  0  0  0  0  0  0  0  0
    6.4344   -7.7287    0.0000 C   0  0  0  0  0  0  0  0  0  0  0  0
    5.0057   -7.7287    0.0000 C   0  0  0  0  0  0  0  0  0  0  0  0
    5.7225   -7.3069    0.0000 C   0  0  0  0  0  0  0  0  0  0  0  0
    7.1518   -7.3069    0.0000 O   0  0  0  0  0  0  0  0  0  0  0  0
    8.6912   -4.5873    0.0000 C   0  0  0  0  0  0  0  0  0  0  0  0
    8.5772   -2.8787    0.0000 O   0  0  0  0  0  0  0  0  0  0  0  0
    7.8922   -2.4420    0.0000 C   0  0  0  0  0  0  0  0  0  0  0  0
    7.8602   -1.6453    0.0000 C   0  0  0  0  0  0  0  0  0  0  0  0
    6.4344   -0.8269    0.0000 O   0  0  0  0  0  0  0  0  0  0  0  0
    4.2932   -2.8787    0.0000 O   0  0  0  0  0  0  0  0  0  0  0  0
    4.2932   -2.0594    0.0000 C   0  0  0  0  0  0  0  0  0  0  0  0
    6.4344   -3.2959    0.0000 C   0  0  0  0  0  0  0  0  0  0  0  0
    5.7225   -2.8787    0.0000 C   0  0  0  0  0  0  0  0  0  0  0  0
    5.7225   -2.0594    0.0000 C   0  0  0  0  0  0  0  0  0  0  0  0
    6.4344   -1.6453    0.0000 C   0  0  0  0  0  0  0  0  0  0  0  0
    7.1518   -2.0594    0.0000 N   0  0  0  0  0  0  0  0  0  0  0  0
    7.1518   -2.8787    0.0000 C   0  0  0  0  0  0  0  0  0  0  0  0
    7.8602   -3.2959    0.0000 C   0  0  0  0  0  0  0  0  0  0  0  0
    7.8602   -4.5873    0.0000 N   0  0  0  0  0  0  0  0  0  0  0  0
    8.5762   -7.3445    0.0000 C   0  0  0  0  0  0  0  0  0  0  0  0
    8.5772   -6.4881    0.0000 C   0  0  0  0  0  0  0  0  0  0  0  0
    7.8602   -6.0785    0.0000 C   0  0  0  0  0  0  0  0  0  0  0  0
    7.1518   -6.4881    0.0000 C   0  0  0  0  0  0  0  0  0  0  0  0
    6.4344   -6.0785    0.0000 N   0  0  0  0  0  0  0  0  0  0  0  0
    5.7225   -6.4881    0.0000 C   0  0  0  0  0  0  0  0  0  0  0  0
    5.0057   -6.0785    0.0000 C   0  0  0  0  0  0  0  0  0  0  0  0
    4.2932   -6.4881    0.0000 N   0  0  0  0  0  0  0  0  0  0  0  0
    3.5842   -6.0785    0.0000 C   0  0  0  0  0  0  0  0  0  0  0  0
    2.8677   -6.4881    0.0000 C   0  0  0  0  0  0  0  0  0  0  0  0
    2.1554   -6.0785    0.0000 N   0  0  0  0  0  0  0  0  0  0  0  0
    1.4412   -6.4881    0.0000 C   0  0  0  0  0  0  0  0  0  0  0  0
    0.7251   -6.0785    0.0000 C   0  0  0  0  0  0  0  0  0  0  0  0
    0.0172   -6.4881    0.0000 N   0  0  0  0  0  0  0  0  0  0  0  0
   -0.7081   -6.0785    0.0000 C   0  0  0  0  0  0  0  0  0  0  0  0
   -1.4216   -6.4881    0.0000 C   0  0  0  0  0  0  0  0  0  0  0  0
   -2.1293   -6.0785    0.0000 N   0  0  0  0  0  0  0  0  0  0  0  0
   -2.1293   -5.2508    0.0000 C   0  0  0  0  0  0  0  0  0  0  0  0
   -1.4216   -4.8901    0.0000 C   0  0  0  0  0  0  0  0  0  0  0  0
   -1.4216   -2.0594    0.0000 N   0  0  0  0  0  0  0  0  0  0  0  0
   -0.7081   -1.6453    0.0000 C   0  0  0  0  0  0  0  0  0  0  0  0
    0.0172   -2.0594    0.0000 C   0  0  0  0  0  0  0  0  0  0  0  0
    0.7251   -1.6453    0.0000 N   0  0  0  0  0  0  0  0  0  0  0  0
    1.4412   -2.0594    0.0000 C   0  0  0  0  0  0  0  0  0  0  0  0
    2.1554   -1.6453    0.0000 C   0  0  0  0  0  0  0  0  0  0  0  0
    2.8677   -2.0594    0.0000 N   0  0  0  0  0  0  0  0  0  0  0  0
    3.5842   -1.6453    0.0000 C   0  0  0  0  0  0  0  0  0  0  0  0
    5.0057   -0.8269    0.0000 C   0  0  0  0  0  0  0  0  0  0  0  0
    2.8677    2.0694    0.0000 C   0  0  0  0  0  0  0  0  0  0  0  0
    3.5842    1.6556    0.0000 C   0  0  0  0  0  0  0  0  0  0  0  0
    3.5842    0.8400    0.0000 C   0  0  0  0  0  0  0  0  0  0  0  0
    4.2932    0.4178    0.0000 C   0  0  0  0  0  0  0  0  0  0  0  0
    4.2932   -0.4173    0.0000 C   0  0  0  0  0  0  0  0  0  0  0  0
    3.5842   -0.8269    0.0000 C   0  0  0  0  0  0  0  0  0  0  0  0
    5.0057   -1.6458    0.0000 N   0  0  0  0  0  0  0  0  0  0  0  0
    9.2890   -6.0867    0.0000 C   0  0  0  0  0  0  0  0  0  0  0  0
   10.7730   -6.0798    0.0000 C   0  0  0  0  0  0  0  0  0  0  0  0
   10.0281   -6.5111    0.0000 N   0  0  0  0  0  0  0  0  0  0  0  0
   10.0292   -7.3672    0.0000 C   0  0  0  0  0  0  0  0  0  0  0  0
   10.7735   -7.7984    0.0000 C   0  0  0  0  0  0  0  0  0  0  0  0
   11.5185   -7.3670    0.0000 N   0  0  0  0  0  0  0  0  0  0  0  0
   11.5191   -6.5045    0.0000 C   0  0  0  0  0  0  0  0  0  0  0  0
   12.2616   -7.7959    0.0000 C   0  0  0  0  0  0  0  0  0  0  0  0
   12.2618   -8.6539    0.0000 C   0  0  0  0  0  0  0  0  0  0  0  0
   13.0050   -9.0827    0.0000 O   0  0  0  0  0  0  0  0  0  0  0  0
   13.0052   -9.9407    0.0000 C   0  0  0  0  0  0  0  0  0  0  0  0
 83 82  1  0
 76 83  1  0
 83  1  1  0
 82 81  1  0
 82 77  1  0
 81 80  1  0
 80 79  2  3
 79 78  1  0
 76 75  1  0
 76 41  1  0
 74 75  1  0
 75  2  1  0
 73 74  1  0
 74  3  2  0
 72 73  1  0
 73  6  1  0
 71 72  1  0
 72  7  1  0
 70 71  1  0
 71  8  2  0
 69 70  1  0
 70 12  1  0
 69 68  1  0
 69 13  1  0
 67 68  1  0
 68 14  2  0
 66 67  1  0
 67 18  1  0
 65 66  1  0
 66 19  1  0
 64 65  1  0
 65 20  2  0
 63 64  1  0
 64 21  1  0
 62 63  1  0
 61 62  1  0
 62 22  2  0
 60 61  1  0
 61 23  1  0
 59 60  1  0
 58 59  1  0
 59 24  2  0
 57 58  1  0
 58 28  1  0
 56 57  1  0
 57 29  1  0
 55 56  1  0
 56 30  2  0
 54 55  1  0
 55 33  1  0
 53 54  1  0
 53 52  1  0
 53 34  2  0
 52 51  1  0
 52 49  1  0
 51 85  1  0
 51 50  1  0
 48 49  1  0
 49 35  1  0
 47 48  1  0
 48 36  2  0
 46 47  1  0
 47 37  1  0
 45 46  1  0
 46 38  1  0
 44 45  1  0
 45 39  2  0
 44 43  1  0
 84 44  1  0
 43 42  1  0
 41 40  2  0
 41 84  1  0
 33 32  1  0
 33 31  1  0
 28 27  1  0
 27 26  1  0
 27 25  1  0
 18 17  1  0
 17 16  1  0
 17 15  1  0
 12 11  1  0
 11 10  1  0
 11  9  1  0
  6  5  1  0
  6  4  1  0
 87 85  1  0
 86 87  1  0
 86 91  1  0
 87 88  1  0
 88 89  1  0
 89 90  1  0
 90 91  1  0
 90 92  1  0
 92 93  1  0
 93 94  1  0
 94 95  1  0
M  STY  1   1 SUP
M  SLB  1   1   1
M  SAL   1  1  84
M  SBL   1  2  69  72
M  SMT   1 N
M  END
>  <Classification>  (36) 
1

>  <pchembl>  (36) 
6.06

>  <InChI_steorem>  (36) 
InChI=1S/C69H125N13O13/c1-26-28-29-45(13)58(83)57-62(87)72-50(27-2)65(90)74(18)49(17)64(89)79(23)56(46(14)39-82-32-30-81(31-33-82)34-35-95-25)61(86)73-54(43(9)10)68(93)75(19)51(36-40(3)4)60(85)70-47(15)59(84)71-48(16)63(88)76(20)52(37-41(5)6)66(91)77(21)53(38-42(7)8)67(92)78(22)55(44(11)12)69(94)80(57)24/h26,28,40-58,83H,27,29-39H2,1-25H3,(H,70,85)(H,71,84)(H,72,87)(H,73,86)

>  <source>  (36) 
ChEMBL25

>  <source_id>  (36) 
25

>  <optional_reference>  (36) 
10.1021/jm500862r

>  <optional_origin>  (36) 
None

>  <target>  (36) 
OATP1B3

$$$$

     RDKit          2D

 55 57  0  0  0  0  0  0  0  0999 V2000
    4.7272   -7.6908    0.0000 C   0  0  0  0  0  0  0  0  0  0  0  0
    2.0891   -6.4131    0.0000 C   0  0  0  0  0  0  0  0  0  0  0  0
    0.6608   -6.4180    0.0000 C   0  0  0  0  0  0  0  0  0  0  0  0
   -0.0534   -4.3629    0.0000 C   0  0  0  0  0  0  0  0  0  0  0  0
    1.3750   -6.8261    0.0000 C   0  0  0  0  0  0  0  0  0  0  0  0
    4.3191   -8.4002    0.0000 C   0  0  0  0  0  0  0  0  0  0  0  0
    2.8033   -5.1791    0.0000 C   0  0  0  0  0  0  0  0  0  0  0  0
    2.0891   -5.5872    0.0000 C   0  0  0  0  0  0  0  0  0  0  0  0
    0.6608   -3.1386    0.0000 C   0  0  0  0  0  0  0  0  0  0  0  0
    0.6608   -5.5969    0.0000 O   0  0  0  0  0  0  0  0  0  0  0  0
    0.6608   -3.9548    0.0000 C   0  0  0  0  0  0  0  0  0  0  0  0
    1.3750   -2.7255    0.0000 C   0  0  0  0  0  0  0  0  0  0  0  0
    4.7223   -6.5929    0.0000 O   0  0  0  0  0  0  0  0  0  0  0  0
    0.4713  -10.0034    0.0000 C   0  0  0  0  0  0  0  0  0  0  0  0
    3.4884   -8.4002    0.0000 C   0  0  0  0  0  0  0  0  0  0  0  0
    2.8033   -4.3629    0.0000 C   0  0  0  0  0  0  0  0  0  0  0  0
    1.7053   -9.2940    0.0000 C   0  0  0  0  0  0  0  0  0  0  0  0
    1.2972  -10.0034    0.0000 C   0  0  0  0  0  0  0  0  0  0  0  0
    4.3191   -6.9766    0.0000 O   0  0  0  0  0  0  0  0  0  0  0  0
    1.2972   -8.5799    0.0000 O   0  0  0  0  0  0  0  0  0  0  0  0
   -0.0534   -5.1838    0.0000 C   0  0  0  0  0  0  0  0  0  0  0  0
    0.0534   -9.2940    0.0000 C   0  0  0  0  0  0  0  0  0  0  0  0
    2.8033   -6.8212    0.0000 O   0  0  0  0  0  0  0  0  0  0  0  0
    0.4713   -8.5799    0.0000 C   0  0  0  0  0  0  0  0  0  0  0  0
    2.0891   -3.1337    0.0000 C   0  0  0  0  0  0  0  0  0  0  0  0
    2.0891   -3.9548    0.0000 C   0  0  0  0  0  0  0  0  0  0  0  0
    3.0754   -7.6908    0.0000 C   0  0  0  0  0  0  0  0  0  0  0  0
    3.0803   -9.1191    0.0000 N   0  0  0  0  0  0  0  0  0  0  0  0
   -0.0534   -6.8308    0.0000 O   0  0  0  0  0  0  0  0  0  0  0  0
    3.4884   -6.9766    0.0000 C   0  0  0  0  0  0  0  0  0  0  0  0
    1.3701   -1.8997    0.0000 O   0  0  0  0  0  0  0  0  0  0  0  0
   -0.4664   -3.6438    0.0000 O   0  0  0  0  0  0  0  0  0  0  0  0
    4.7272   -9.1191    0.0000 O   0  0  0  0  0  0  0  0  0  0  0  0
    3.2114   -3.6438    0.0000 O   0  0  0  0  0  0  0  0  0  0  0  0
    1.3750   -4.3725    0.0000 O   0  0  0  0  0  0  0  0  0  0  0  0
   -0.2478  -10.4115    0.0000 O   0  0  0  0  0  0  0  0  0  0  0  0
   -0.7725   -9.2940    0.0000 O   0  0  0  0  0  0  0  0  0  0  0  0
   -0.8745   -4.3629    0.0000 C   0  0  0  0  0  0  0  0  0  0  0  0
    1.3797   -7.6519    0.0000 C   0  0  0  0  0  0  0  0  0  0  0  0
    1.3701   -5.1742    0.0000 C   0  0  0  0  0  0  0  0  0  0  0  0
   -0.0534   -2.7255    0.0000 C   0  0  0  0  0  0  0  0  0  0  0  0
    0.4664  -10.8342    0.0000 C   0  0  0  0  0  0  0  0  0  0  0  0
    3.6292   -4.3629    0.0000 C   0  0  0  0  0  0  0  0  0  0  0  0
   -0.7676   -5.6017    0.0000 C   0  0  0  0  0  0  0  0  0  0  0  0
    0.0583   -7.8609    0.0000 C   0  0  0  0  0  0  0  0  0  0  0  0
    2.8033   -2.7159    0.0000 C   0  0  0  0  0  0  0  0  0  0  0  0
    3.4931   -9.8333    0.0000 C   0  0  0  0  0  0  0  0  0  0  0  0
    2.2542   -9.1191    0.0000 C   0  0  0  0  0  0  0  0  0  0  0  0
    3.0803   -6.2576    0.0000 C   0  0  0  0  0  0  0  0  0  0  0  0
   -0.9620   -9.9936    0.0000 C   0  0  0  0  0  0  0  0  0  0  0  0
   -1.4818   -5.1887    0.0000 C   0  0  0  0  0  0  0  0  0  0  0  0
    5.5522   -9.1191    0.0000 C   0  0  0  0  0  0  0  0  0  0  0  0
    5.9647   -9.8336    0.0000 C   0  0  0  0  0  0  0  0  0  0  0  0
    5.9647   -8.4047    0.0000 O   0  0  0  0  0  0  0  0  0  0  0  0
    6.7897   -9.8336    0.0000 C   0  0  0  0  0  0  0  0  0  0  0  0
  2  8  1  0
  3  5  1  0
  4 11  1  0
  5  2  1  0
  6  1  1  0
  7 13  1  0
  8  7  1  0
  9 12  1  0
 10  3  1  0
 11  9  1  0
 12 25  1  0
  1 13  1  0
 14 18  1  0
 15  6  1  0
 16  7  1  0
 17 23  1  0
 18 17  1  0
 19  1  1  0
 20 17  1  0
 21 10  1  0
 22 24  1  0
  2 23  1  0
 24 20  1  0
 25 26  1  0
 26 16  1  0
 27 30  1  0
 15 28  1  0
 29  3  2  0
 30 19  1  0
 31 12  2  0
  4 32  1  0
  6 33  1  0
 16 34  1  0
 11 35  1  0
 14 36  1  0
 22 37  1  0
 38  4  1  0
  5 39  1  0
  8 40  1  0
  9 41  1  0
 14 42  1  0
 43 16  1  0
 21 44  1  0
 24 45  1  0
 25 46  1  0
 47 28  1  0
 48 28  1  0
 30 49  1  0
 50 36  1  0
 51 44  1  0
 27 15  1  0
 21  4  1  0
 22 14  1  0
 33 52  1  0
 52 53  1  0
 52 54  2  0
 53 55  1  0
M  END
>  <Classification>  (37) 
1

>  <pchembl>  (37) 
5.51

>  <InChI_steorem>  (37) 
InChI=1S/C40H71NO14/c1-15-27-40(11,48)33(44)22(5)30(43)20(3)18-38(9,47)35(55-37-32(53-28(42)16-2)26(41(12)13)17-21(4)50-37)23(6)31(24(7)36(46)52-27)54-29-19-39(10,49-14)34(45)25(8)51-29/h20-27,29,31-35,37,44-45,47-48H,15-19H2,1-14H3

>  <source>  (37) 
ChEMBL25

>  <source_id>  (37) 
25

>  <optional_reference>  (37) 
10.1124/mol.112.084152

>  <optional_origin>  (37) 
None

>  <target>  (37) 
OATP1B3

$$$$

     RDKit          2D

 27 29  0  0  0  0  0  0  0  0999 V2000
    7.3565   -1.9325    0.0000 Cl  0  0  0  0  0  0  0  0  0  0  0  0
    9.3003   -4.0275    0.0000 Cl  0  0  0  0  0  0  0  0  0  0  0  0
    6.1920   -2.9400    0.0000 O   0  0  0  0  0  0  0  0  0  0  0  0
    5.7795   -4.7473    0.0000 O   0  0  0  0  0  0  0  0  0  0  0  0
    6.9624   -5.4906    0.0000 O   0  0  0  0  0  0  0  0  0  0  0  0
    3.0836   -4.0275    0.0000 O   0  0  0  0  0  0  0  0  0  0  0  0
    8.9332   -2.4189    0.0000 O   0  0  0  0  0  0  0  0  0  0  0  0
    3.6344   -1.6146    0.0000 O   0  0  0  0  0  0  0  0  0  0  0  0
    2.6625   -2.6621    0.0000 O   0  0  0  0  0  0  0  0  0  0  0  0
    6.9353   -3.2980    0.0000 C   0  0  0  0  0  0  0  0  0  0  0  0
    7.1189   -4.1023    0.0000 C   0  0  0  0  0  0  0  0  0  0  0  0
    5.4487   -3.2980    0.0000 C   0  0  0  0  0  0  0  0  0  0  0  0
    5.2651   -4.1023    0.0000 C   0  0  0  0  0  0  0  0  0  0  0  0
    4.8439   -2.7369    0.0000 C   0  0  0  0  0  0  0  0  0  0  0  0
    7.5401   -2.7369    0.0000 C   0  0  0  0  0  0  0  0  0  0  0  0
    7.9072   -4.3455    0.0000 C   0  0  0  0  0  0  0  0  0  0  0  0
    6.6045   -4.7473    0.0000 C   0  0  0  0  0  0  0  0  0  0  0  0
    4.0556   -2.9800    0.0000 C   0  0  0  0  0  0  0  0  0  0  0  0
    4.4768   -4.3455    0.0000 C   0  0  0  0  0  0  0  0  0  0  0  0
    3.8720   -3.7843    0.0000 C   0  0  0  0  0  0  0  0  0  0  0  0
    8.3284   -2.9800    0.0000 C   0  0  0  0  0  0  0  0  0  0  0  0
    8.5120   -3.7843    0.0000 C   0  0  0  0  0  0  0  0  0  0  0  0
    3.4508   -2.4189    0.0000 C   0  0  0  0  0  0  0  0  0  0  0  0
    5.0275   -1.9325    0.0000 C   0  0  0  0  0  0  0  0  0  0  0  0
    8.0908   -5.1498    0.0000 C   0  0  0  0  0  0  0  0  0  0  0  0
    4.2932   -5.1498    0.0000 C   0  0  0  0  0  0  0  0  0  0  0  0
    3.0296   -1.0534    0.0000 C   0  0  0  0  0  0  0  0  0  0  0  0
  1 15  1  0
  2 22  1  0
  3 10  1  0
  3 12  1  0
  4 13  1  0
  4 17  1  0
  5 17  2  0
  6 20  1  0
  7 21  1  0
  8 23  1  0
  8 27  1  0
  9 23  2  0
 10 11  2  0
 10 15  1  0
 11 16  1  0
 11 17  1  0
 12 13  2  0
 12 14  1  0
 13 19  1  0
 14 18  2  0
 14 24  1  0
 15 21  2  0
 16 22  2  0
 16 25  1  0
 18 20  1  0
 18 23  1  0
 19 20  2  0
 19 26  1  0
 21 22  1  0
M  END
>  <Classification>  (38) 
1

>  <pchembl>  (38) 
5.62

>  <InChI_steorem>  (38) 
InChI=1S/C18H14Cl2O7/c1-5-9-16(11(20)13(22)10(5)19)26-14-6(2)8(17(23)25-4)12(21)7(3)15(14)27-18(9)24/h21-22H,1-4H3

>  <source>  (38) 
ChEMBL25

>  <source_id>  (38) 
25

>  <optional_reference>  (38) 
10.1124/mol.112.084152

>  <optional_origin>  (38) 
None

>  <target>  (38) 
OATP1B3

$$$$

     RDKit          2D

 27 29  0  0  0  0  0  0  0  0999 V2000
    7.3981   -2.5483    0.0000 Cl  0  0  0  0  0  0  0  0  0  0  0  0
    9.3419   -4.6433    0.0000 Cl  0  0  0  0  0  0  0  0  0  0  0  0
    6.2336   -3.5558    0.0000 O   0  0  0  0  0  0  0  0  0  0  0  0
    5.8211   -5.3631    0.0000 O   0  0  0  0  0  0  0  0  0  0  0  0
    7.0040   -6.1064    0.0000 O   0  0  0  0  0  0  0  0  0  0  0  0
    3.1253   -4.6433    0.0000 O   0  0  0  0  0  0  0  0  0  0  0  0
    8.9748   -3.0347    0.0000 O   0  0  0  0  0  0  0  0  0  0  0  0
    3.6760   -2.2303    0.0000 O   0  0  0  0  0  0  0  0  0  0  0  0
    2.7041   -3.2778    0.0000 O   0  0  0  0  0  0  0  0  0  0  0  0
    6.9769   -3.9138    0.0000 C   0  0  0  0  0  0  0  0  0  0  0  0
    7.1605   -4.7181    0.0000 C   0  0  0  0  0  0  0  0  0  0  0  0
    5.4903   -3.9138    0.0000 C   0  0  0  0  0  0  0  0  0  0  0  0
    5.3067   -4.7181    0.0000 C   0  0  0  0  0  0  0  0  0  0  0  0
    7.5817   -3.3526    0.0000 C   0  0  0  0  0  0  0  0  0  0  0  0
    7.9488   -4.9613    0.0000 C   0  0  0  0  0  0  0  0  0  0  0  0
    4.8855   -3.3526    0.0000 C   0  0  0  0  0  0  0  0  0  0  0  0
    6.6461   -5.3631    0.0000 C   0  0  0  0  0  0  0  0  0  0  0  0
    4.0972   -3.5958    0.0000 C   0  0  0  0  0  0  0  0  0  0  0  0
    8.3700   -3.5958    0.0000 C   0  0  0  0  0  0  0  0  0  0  0  0
    8.5536   -4.4001    0.0000 C   0  0  0  0  0  0  0  0  0  0  0  0
    3.9136   -4.4001    0.0000 C   0  0  0  0  0  0  0  0  0  0  0  0
    4.5184   -4.9613    0.0000 C   0  0  0  0  0  0  0  0  0  0  0  0
    3.4924   -3.0347    0.0000 C   0  0  0  0  0  0  0  0  0  0  0  0
    8.1324   -5.7656    0.0000 C   0  0  0  0  0  0  0  0  0  0  0  0
    5.0691   -2.5483    0.0000 C   0  0  0  0  0  0  0  0  0  0  0  0
    2.9417   -5.4476    0.0000 C   0  0  0  0  0  0  0  0  0  0  0  0
    3.0712   -1.6692    0.0000 C   0  0  0  0  0  0  0  0  0  0  0  0
  1 14  1  0
  2 20  1  0
  3 10  1  0
  3 12  1  0
  4 13  1  0
  4 17  1  0
  5 17  2  0
  6 21  1  0
  6 26  1  0
  7 19  1  0
  8 23  1  0
  8 27  1  0
  9 23  2  0
 10 11  2  0
 10 14  1  0
 11 15  1  0
 11 17  1  0
 12 13  2  0
 12 16  1  0
 13 22  1  0
 14 19  2  0
 15 20  2  0
 15 24  1  0
 16 18  2  0
 16 25  1  0
 18 21  1  0
 18 23  1  0
 19 20  1  0
 21 22  2  0
M  END
>  <Classification>  (39) 
1

>  <pchembl>  (39) 
5.58

>  <InChI_steorem>  (39) 
InChI=1S/C18H14Cl2O7/c1-6-11-16(13(20)14(21)12(6)19)27-15-7(2)10(17(22)25-4)8(24-3)5-9(15)26-18(11)23/h5,21H,1-4H3

>  <source>  (39) 
ChEMBL25

>  <source_id>  (39) 
25

>  <optional_reference>  (39) 
10.1124/mol.112.084152

>  <optional_origin>  (39) 
None

>  <target>  (39) 
OATP1B3

$$$$

     RDKit          2D

 32 35  0  0  0  0  0  0  0  0999 V2000
    4.6810   -5.2709    0.0000 O   0  0  0  0  0  0  0  0  0  0  0  0
    2.2060   -3.8419    0.0000 O   0  0  0  0  0  0  0  0  0  0  0  0
    4.6810   -2.4130    0.0000 O   0  0  0  0  0  0  0  0  0  0  0  0
    5.9185   -3.1275    0.0000 O   0  0  0  0  0  0  0  0  0  0  0  0
    5.9185   -5.9853    0.0000 O   0  0  0  0  0  0  0  0  0  0  0  0
    9.2185   -4.5564    0.0000 O   0  0  0  0  0  0  0  0  0  0  0  0
    4.6810   -3.8419    0.0000 C   0  0  0  0  0  0  0  0  0  0  0  0
    4.2685   -4.5564    0.0000 C   0  0  0  0  0  0  0  0  0  0  0  0
    3.4435   -4.5564    0.0000 C   0  0  0  0  0  0  0  0  0  0  0  0
    3.0310   -3.8419    0.0000 C   0  0  0  0  0  0  0  0  0  0  0  0
    4.2685   -3.1275    0.0000 C   0  0  0  0  0  0  0  0  0  0  0  0
    3.4435   -3.1275    0.0000 C   0  0  0  0  0  0  0  0  0  0  0  0
    5.5060   -3.8419    0.0000 C   0  0  0  0  0  0  0  0  0  0  0  0
    5.9185   -4.5564    0.0000 C   0  0  0  0  0  0  0  0  0  0  0  0
    5.5060   -5.2709    0.0000 C   0  0  0  0  0  0  0  0  0  0  0  0
    1.7935   -4.5564    0.0000 C   0  0  0  0  0  0  0  0  0  0  0  0
    3.0310   -5.2709    0.0000 C   0  0  0  0  0  0  0  0  0  0  0  0
    6.7435   -4.5564    0.0000 C   0  0  0  0  0  0  0  0  0  0  0  0
    3.0310   -2.4130    0.0000 C   0  0  0  0  0  0  0  0  0  0  0  0
    2.2060   -5.2709    0.0000 C   0  0  0  0  0  0  0  0  0  0  0  0
    7.1560   -3.8419    0.0000 C   0  0  0  0  0  0  0  0  0  0  0  0
    7.1560   -5.2709    0.0000 C   0  0  0  0  0  0  0  0  0  0  0  0
    1.0651   -4.1691    0.0000 C   0  0  0  0  0  0  0  0  0  0  0  0
    1.0651   -4.9437    0.0000 C   0  0  0  0  0  0  0  0  0  0  0  0
    3.4435   -1.6985    0.0000 C   0  0  0  0  0  0  0  0  0  0  0  0
    4.2685   -1.6985    0.0000 C   0  0  0  0  0  0  0  0  0  0  0  0
    7.9810   -3.8419    0.0000 C   0  0  0  0  0  0  0  0  0  0  0  0
    7.9810   -5.2709    0.0000 C   0  0  0  0  0  0  0  0  0  0  0  0
    8.3935   -4.5564    0.0000 C   0  0  0  0  0  0  0  0  0  0  0  0
    3.0310   -0.9841    0.0000 C   0  0  0  0  0  0  0  0  0  0  0  0
    3.4435   -0.2696    0.0000 C   0  0  0  0  0  0  0  0  0  0  0  0
    2.2060   -0.9841    0.0000 C   0  0  0  0  0  0  0  0  0  0  0  0
  1  8  1  0
  1 15  1  0
  2 10  1  0
  2 16  1  0
  3 11  1  0
  3 26  1  0
  4 13  1  0
  5 15  2  0
  6 29  1  0
  7  8  2  0
  7 11  1  0
  7 13  1  0
  8  9  1  0
  9 10  2  0
  9 17  1  0
 10 12  1  0
 11 12  2  0
 12 19  1  0
 13 14  2  0
 14 15  1  0
 14 18  1  0
 16 20  1  0
 16 23  1  0
 16 24  1  0
 17 20  2  0
 18 21  2  0
 18 22  1  0
 19 25  1  0
 21 27  1  0
 22 28  2  0
 25 30  2  3
 27 29  2  0
 28 29  1  0
 30 31  1  0
 30 32  1  0
M  END
>  <Classification>  (40) 
1

>  <pchembl>  (40) 
6.13

>  <InChI_steorem>  (40) 
InChI=1S/C26H26O6/c1-14(2)6-11-17-22-18(12-13-26(3,4)32-22)24-20(23(17)30-5)21(28)19(25(29)31-24)15-7-9-16(27)10-8-15/h6-10,12-13,27-28H,11H2,1-5H3

>  <source>  (40) 
ChEMBL25

>  <source_id>  (40) 
25

>  <optional_reference>  (40) 
10.1124/mol.112.084152

>  <optional_origin>  (40) 
None

>  <target>  (40) 
OATP1B3

$$$$

     RDKit          2D

 53 56  0  0  0  0  0  0  0  0999 V2000
   -7.0179   -2.4779    0.0000 C   0  0  0  0  0  0  0  0  0  0  0  0
   -7.7612   -2.8358    0.0000 C   0  0  0  0  0  0  0  0  0  0  0  0
   -7.9447   -3.6401    0.0000 O   0  0  0  0  0  0  0  0  0  0  0  0
   -7.4303   -4.2851    0.0000 C   0  0  0  0  0  0  0  0  0  0  0  0
   -6.6054   -4.2851    0.0000 C   0  0  0  0  0  0  0  0  0  0  0  0
   -6.0910   -3.6401    0.0000 C   0  0  0  0  0  0  0  0  0  0  0  0
   -6.2746   -2.8358    0.0000 C   0  0  0  0  0  0  0  0  0  0  0  0
   -5.2867   -3.8237    0.0000 C   0  0  0  0  0  0  0  0  0  0  0  0
   -3.9064   -3.4538    0.0000 C   0  0  0  0  0  0  0  0  0  0  0  0
   -4.7033   -3.2403    0.0000 C   0  0  0  0  0  0  0  0  0  0  0  0
   -5.0732   -4.6206    0.0000 C   0  0  0  0  0  0  0  0  0  0  0  0
   -4.2763   -4.8341    0.0000 C   0  0  0  0  0  0  0  0  0  0  0  0
   -3.6929   -4.2507    0.0000 C   0  0  0  0  0  0  0  0  0  0  0  0
   -2.8691   -4.2939    0.0000 C   0  0  0  0  0  0  0  0  0  0  0  0
   -2.5734   -3.5237    0.0000 C   0  0  0  0  0  0  0  0  0  0  0  0
   -3.2145   -3.0045    0.0000 C   0  0  0  0  0  0  0  0  0  0  0  0
   -2.4198   -4.9858    0.0000 C   0  0  0  0  0  0  0  0  0  0  0  0
   -2.7154   -5.7560    0.0000 C   0  0  0  0  0  0  0  0  0  0  0  0
   -2.0743   -6.2752    0.0000 C   0  0  0  0  0  0  0  0  0  0  0  0
   -1.3824   -5.8259    0.0000 O   0  0  0  0  0  0  0  0  0  0  0  0
   -1.5959   -5.0290    0.0000 C   0  0  0  0  0  0  0  0  0  0  0  0
   -3.1713   -2.1806    0.0000 O   0  0  0  0  0  0  0  0  0  0  0  0
   -4.0355   -2.6390    0.0000 O   0  0  0  0  0  0  0  0  0  0  0  0
   -4.9168   -2.4434    0.0000 C   0  0  0  0  0  0  0  0  0  0  0  0
   -5.8775   -4.4370    0.0000 C   0  0  0  0  0  0  0  0  0  0  0  0
   -6.2474   -5.0284    0.0000 C   0  0  0  0  0  0  0  0  0  0  0  0
   -6.6599   -5.7429    0.0000 O   0  0  0  0  0  0  0  0  0  0  0  0
   -5.4230   -5.0593    0.0000 O   0  0  0  0  0  0  0  0  0  0  0  0
   -6.2474   -6.4574    0.0000 C   0  0  0  0  0  0  0  0  0  0  0  0
   -8.1448   -4.6976    0.0000 C   0  0  0  0  0  0  0  0  0  0  0  0
   -7.2168   -5.0820    0.0000 C   0  0  0  0  0  0  0  0  0  0  0  0
   -8.7282   -4.1143    0.0000 O   0  0  0  0  0  0  0  0  0  0  0  0
   -9.5251   -4.3278    0.0000 C   0  0  0  0  0  0  0  0  0  0  0  0
  -10.1084   -3.7444    0.0000 C   0  0  0  0  0  0  0  0  0  0  0  0
   -9.7386   -5.1247    0.0000 O   0  0  0  0  0  0  0  0  0  0  0  0
   -8.4062   -2.3215    0.0000 O   0  0  0  0  0  0  0  0  0  0  0  0
   -5.6295   -2.3215    0.0000 O   0  0  0  0  0  0  0  0  0  0  0  0
   -5.6295   -1.4965    0.0000 C   0  0  0  0  0  0  0  0  0  0  0  0
   -4.9151   -1.0840    0.0000 C   0  0  0  0  0  0  0  0  0  0  0  0
   -6.3440   -1.0840    0.0000 O   0  0  0  0  0  0  0  0  0  0  0  0
   -5.2867   -5.4174    0.0000 O   0  0  0  0  0  0  0  0  0  0  0  0
   -4.7033   -6.0008    0.0000 C   0  0  0  0  0  0  0  0  0  0  0  0
   -4.9169   -6.7977    0.0000 O   0  0  0  0  0  0  0  0  0  0  0  0
   -4.0627   -5.6310    0.0000 O   0  0  0  0  0  0  0  0  0  0  0  0
   -3.2377   -5.6310    0.0000 C   0  0  0  0  0  0  0  0  0  0  0  0
   -2.8252   -6.3454    0.0000 C   0  0  0  0  0  0  0  0  0  0  0  0
   -2.8252   -4.9165    0.0000 O   0  0  0  0  0  0  0  0  0  0  0  0
   -3.2377   -7.0599    0.0000 C   0  0  0  0  0  0  0  0  0  0  0  0
   -2.0284   -6.5590    0.0000 O   0  0  0  0  0  0  0  0  0  0  0  0
   -2.8252   -7.7744    0.0000 C   0  0  0  0  0  0  0  0  0  0  0  0
   -4.0627   -7.0599    0.0000 C   0  0  0  0  0  0  0  0  0  0  0  0
   -3.2377   -8.4888    0.0000 C   0  0  0  0  0  0  0  0  0  0  0  0
   -3.4794   -5.0476    0.0000 C   0  0  0  0  0  0  0  0  0  0  0  0
  1  2  1  0
  2  3  1  0
  3  4  1  0
  4  5  1  0
  5  6  1  0
  6  7  1  0
  7  1  1  0
  6  8  1  0
 10  8  1  0
  8 11  1  0
  9 10  1  0
 11 12  1  0
 12 13  1  0
 13 14  1  0
  9 13  1  0
  9 16  1  0
 14 15  1  0
 15 16  1  0
 14 17  1  0
 17 18  1  0
 17 21  2  0
 18 19  2  0
 19 20  1  0
 20 21  1  0
 16 22  2  0
  9 23  1  0
 10 24  2  0
  6 25  1  0
  5 26  1  0
 26 27  1  0
 26 28  2  0
 27 29  1  0
  4 30  1  0
  4 31  1  0
 30 32  1  0
 32 33  1  0
 33 34  1  0
 33 35  2  0
  2 36  2  0
  7 37  1  0
 37 38  1  0
 38 39  1  0
 38 40  2  0
 11 41  1  0
 41 42  1  0
 42 43  2  0
 12 44  1  0
 44 45  1  0
 45 46  1  0
 45 47  2  0
 46 48  1  0
 46 49  1  0
 48 50  1  0
 48 51  1  0
 50 52  1  0
 13 53  1  0
M  END
>  <Classification>  (41) 
1

>  <pchembl>  (41) 
5.47

>  <InChI_steorem>  (41) 
InChI=1S/C37H48O16/c1-10-18(2)28(43)32(44)52-31-29(50-17-38)27(19(3)37(46)24(41)13-23(36(31,37)8)22-11-12-48-15-22)35(7)25(51-21(5)40)14-26(42)53-34(6,16-49-20(4)39)30(35)33(45)47-9/h11-12,15,17-18,23,25,27-31,43,46H,3,10,13-14,16H2,1-2,4-9H3

>  <source>  (41) 
ChEMBL25

>  <source_id>  (41) 
25

>  <optional_reference>  (41) 
10.1124/mol.112.084152

>  <optional_origin>  (41) 
None

>  <target>  (41) 
OATP1B3

$$$$

     RDKit          2D

 46 51  0  0  0  0  0  0  0  0999 V2000
   13.6075   -1.2063    0.0000 C   0  0  0  0  0  0  0  0  0  0  0  0
   14.3158   -0.7896    0.0000 C   0  0  0  0  0  0  0  0  0  0  0  0
   13.6116   -2.0313    0.0000 C   0  0  0  0  0  0  0  0  0  0  0  0
   12.1908   -2.0396    0.0000 C   0  0  0  0  0  0  0  0  0  0  0  0
   12.8991   -2.4438    0.0000 C   0  0  0  0  0  0  0  0  0  0  0  0
   12.1825   -1.2146    0.0000 C   0  0  0  0  0  0  0  0  0  0  0  0
   16.1158   -0.3729    0.0000 C   0  0  0  0  0  0  0  0  0  0  0  0
   12.8908   -0.7979    0.0000 O   0  0  0  0  0  0  0  0  0  0  0  0
   10.7575   -1.2188    0.0000 C   0  0  0  0  0  0  0  0  0  0  0  0
   10.7616   -2.0438    0.0000 C   0  0  0  0  0  0  0  0  0  0  0  0
   14.7241   -0.0729    0.0000 O   0  0  0  0  0  0  0  0  0  0  0  0
   11.4700   -2.4521    0.0000 C   0  0  0  0  0  0  0  0  0  0  0  0
   11.4700   -0.8021    0.0000 C   0  0  0  0  0  0  0  0  0  0  0  0
   14.3200   -2.4354    0.0000 C   0  0  0  0  0  0  0  0  0  0  0  0
   15.0283   -1.1979    0.0000 C   0  0  0  0  0  0  0  0  0  0  0  0
   15.5200    0.1437    0.0000 C   0  0  0  0  0  0  0  0  0  0  0  0
   15.0325   -2.0229    0.0000 C   0  0  0  0  0  0  0  0  0  0  0  0
   16.1158   -1.4063    0.0000 C   0  0  0  0  0  0  0  0  0  0  0  0
   10.0450   -2.4521    0.0000 C   0  0  0  0  0  0  0  0  0  0  0  0
   10.0450   -0.8021    0.0000 O   0  0  0  0  0  0  0  0  0  0  0  0
   14.3075    0.0354    0.0000 C   0  0  0  0  0  0  0  0  0  0  0  0
   13.5908    0.4437    0.0000 C   0  0  0  0  0  0  0  0  0  0  0  0
   11.4658    0.0229    0.0000 C   0  0  0  0  0  0  0  0  0  0  0  0
   14.2950    1.6854    0.0000 C   0  0  0  0  0  0  0  0  0  0  0  0
   13.5825    1.2687    0.0000 C   0  0  0  0  0  0  0  0  0  0  0  0
    9.3366   -2.0438    0.0000 C   0  0  0  0  0  0  0  0  0  0  0  0
    9.3366   -1.2188    0.0000 C   0  0  0  0  0  0  0  0  0  0  0  0
   10.7491    0.4354    0.0000 C   0  0  0  0  0  0  0  0  0  0  0  0
   12.9033   -3.2688    0.0000 O   0  0  0  0  0  0  0  0  0  0  0  0
   15.7450   -0.7813    0.0000 O   0  0  0  0  0  0  0  0  0  0  0  0
   15.0116    1.2771    0.0000 O   0  0  0  0  0  0  0  0  0  0  0  0
   10.7491    1.2604    0.0000 C   0  0  0  0  0  0  0  0  0  0  0  0
    6.8700   -2.6646    0.0000 C   0  0  0  0  0  0  0  0  0  0  0  0
    7.2783   -1.9438    0.0000 C   0  0  0  0  0  0  0  0  0  0  0  0
   11.4700   -3.2771    0.0000 O   0  0  0  0  0  0  0  0  0  0  0  0
   14.2908    2.5104    0.0000 O   0  0  0  0  0  0  0  0  0  0  0  0
   16.1033    0.7312    0.0000 C   0  0  0  0  0  0  0  0  0  0  0  0
   15.1033    0.8604    0.0000 C   0  0  0  0  0  0  0  0  0  0  0  0
    8.1033   -1.9396    0.0000 C   0  0  0  0  0  0  0  0  0  0  0  0
    8.5116   -1.2229    0.0000 C   0  0  0  0  0  0  0  0  0  0  0  0
   12.8658    1.6771    0.0000 C   0  0  0  0  0  0  0  0  0  0  0  0
    8.9200   -0.5021    0.0000 C   0  0  0  0  0  0  0  0  0  0  0  0
   10.0325    1.6687    0.0000 C   0  0  0  0  0  0  0  0  0  0  0  0
   11.4616    1.6729    0.0000 C   0  0  0  0  0  0  0  0  0  0  0  0
    6.0450   -2.6688    0.0000 C   0  0  0  0  0  0  0  0  0  0  0  0
    7.2866   -3.3729    0.0000 C   0  0  0  0  0  0  0  0  0  0  0  0
  2  1  1  0
  3  1  1  0
  4  5  1  0
  5  3  1  0
  6  8  1  0
  7  1  1  0
  1  8  1  0
  9 13  1  0
 10 12  1  0
  2 11  1  0
 12  4  2  0
 13  6  2  0
 14  3  1  0
 15  2  1  0
 16  7  1  0
 17 14  1  0
 18  7  1  0
 19 10  1  0
 20  9  1  0
  2 21  1  0
 22 21  1  0
 23 13  1  0
 24 25  1  0
 25 22  2  3
 26 19  2  0
 27 20  1  0
 28 23  1  0
 29  5  2  0
 30 15  1  0
 31 24  2  0
 32 28  2  3
 33 34  2  3
 34 39  1  0
 35 12  1  0
 36 24  1  0
 37 16  1  0
 38 16  1  0
 39 40  1  0
 40 27  1  0
 41 25  1  0
 27 42  1  0
 43 32  1  0
 44 32  1  0
 45 33  1  0
 46 33  1  0
 16 11  1  0
 18 17  1  0
  4  6  1  0
 15 17  1  0
 10  9  2  0
 26 27  1  0
M  END
>  <Classification>  (42) 
1

>  <pchembl>  (42) 
5.55

>  <InChI_steorem>  (42) 
InChI=1S/C38H48O8/c1-20(2)10-9-15-36(8)16-14-24-29(39)28-30(40)26-18-23-19-27-35(6,7)46-37(33(23)41,17-13-22(5)34(42)43)38(26,27)45-32(28)25(31(24)44-36)12-11-21(3)4/h10-11,13-14,16,23,26-27,33,39,41H,9,12,15,17-19H2,1-8H3,(H,42,43)

>  <source>  (42) 
ChEMBL25

>  <source_id>  (42) 
25

>  <optional_reference>  (42) 
10.1124/mol.112.084152

>  <optional_origin>  (42) 
None

>  <target>  (42) 
OATP1B3

$$$$

     RDKit          2D

 32 37  0  0  0  0  0  0  0  0999 V2000
   -0.8313    0.1932    0.0000 C   0  0  0  0  0  0  0  0  0  0  0  0
   -1.3714    0.8168    0.0000 C   0  0  0  0  0  0  0  0  0  0  0  0
   -0.0212    0.3491    0.0000 C   0  0  0  0  0  0  0  0  0  0  0  0
   -1.1014   -0.5864    0.0000 C   0  0  0  0  0  0  0  0  0  0  0  0
   -0.5613    0.9727    0.0000 O   0  0  0  0  0  0  0  0  0  0  0  0
    1.3290   -0.1186    0.0000 C   0  0  0  0  0  0  0  0  0  0  0  0
    0.5189   -0.2746    0.0000 C   0  0  0  0  0  0  0  0  0  0  0  0
   -2.1816    0.6609    0.0000 C   0  0  0  0  0  0  0  0  0  0  0  0
    1.5991    0.6609    0.0000 C   0  0  0  0  0  0  0  0  0  0  0  0
   -1.9115   -0.7423    0.0000 C   0  0  0  0  0  0  0  0  0  0  0  0
    0.2488    1.1286    0.0000 C   0  0  0  0  0  0  0  0  0  0  0  0
   -2.4516   -0.1186    0.0000 O   0  0  0  0  0  0  0  0  0  0  0  0
    2.4092    0.8168    0.0000 C   0  0  0  0  0  0  0  0  0  0  0  0
    1.8691   -0.7423    0.0000 C   0  0  0  0  0  0  0  0  0  0  0  0
    1.0590    1.2845    0.0000 C   0  0  0  0  0  0  0  0  0  0  0  0
   -2.1816   -1.5218    0.0000 C   0  0  0  0  0  0  0  0  0  0  0  0
   -0.5613   -1.2100    0.0000 C   0  0  0  0  0  0  0  0  0  0  0  0
    0.2488   -1.0541    0.0000 C   0  0  0  0  0  0  0  0  0  0  0  0
    2.6792   -0.5864    0.0000 C   0  0  0  0  0  0  0  0  0  0  0  0
    2.9493    0.1932    0.0000 C   0  0  0  0  0  0  0  0  0  0  0  0
   -2.7216    1.2845    0.0000 O   0  0  0  0  0  0  0  0  0  0  0  0
   -2.9710   -1.7616    0.0000 C   0  0  0  0  0  0  0  0  0  0  0  0
   -0.2912    1.7523    0.0000 O   0  0  0  0  0  0  0  0  0  0  0  0
   -1.7096   -2.1985    0.0000 C   0  0  0  0  0  0  0  0  0  0  0  0
   -2.9869   -2.5864    0.0000 O   0  0  0  0  0  0  0  0  0  0  0  0
   -2.2073   -2.8565    0.0000 C   0  0  0  0  0  0  0  0  0  0  0  0
   -0.0916    1.1711    0.0000 C   0  0  0  0  0  0  0  0  0  0  0  0
   -1.3714   -1.3659    0.0000 C   0  0  0  0  0  0  0  0  0  0  0  0
    1.0590   -0.8982    0.0000 C   0  0  0  0  0  0  0  0  0  0  0  0
    2.2817    1.6319    0.0000 C   0  0  0  0  0  0  0  0  0  0  0  0
    3.0136    1.3783    0.0000 C   0  0  0  0  0  0  0  0  0  0  0  0
    3.7594    0.3491    0.0000 O   0  0  0  0  0  0  0  0  0  0  0  0
  2  1  1  0
  3  1  1  0
  4  1  1  0
  1  5  1  0
  6  7  1  0
  7  3  1  0
  8  2  1  0
  9 15  1  0
 10  4  1  0
 11  3  1  0
 12 10  1  0
 13  9  1  0
 14  6  1  0
 15 11  1  0
 10 16  1  0
 17  4  1  0
 18 17  1  0
 19 14  2  0
 20 13  1  0
 21  8  2  0
 22 16  2  0
 23 11  2  0
 24 16  1  0
 25 22  1  0
 26 24  2  0
  3 27  1  0
  4 28  1  0
  6 29  1  0
 30 13  1  0
 31 13  1  0
 20 32  1  0
  2  5  1  0
  7 18  1  0
 12  8  1  0
  9  6  1  0
 26 25  1  0
 20 19  1  0
M  END
>  <Classification>  (43) 
1

>  <pchembl>  (43) 
5.3

>  <InChI_steorem>  (43) 
InChI=1S/C26H32O6/c1-22(2)16-12-18(28)25(5)15(23(16,3)9-7-17(22)27)6-10-24(4)19(14-8-11-30-13-14)31-21(29)20-26(24,25)32-20/h7-9,11,13,15-17,19-20,27H,6,10,12H2,1-5H3

>  <source>  (43) 
ChEMBL25

>  <source_id>  (43) 
25

>  <optional_reference>  (43) 
10.1124/mol.112.084152

>  <optional_origin>  (43) 
None

>  <target>  (43) 
OATP1B3

$$$$

     RDKit          2D

 34 38  0  0  0  0  0  0  0  0999 V2000
    0.4452   -0.1449    0.0000 C   0  0  0  0  0  0  0  0  0  0  0  0
   -0.3649   -0.3008    0.0000 C   0  0  0  0  0  0  0  0  0  0  0  0
    0.7152    0.6347    0.0000 C   0  0  0  0  0  0  0  0  0  0  0  0
   -1.7152    0.1669    0.0000 C   0  0  0  0  0  0  0  0  0  0  0  0
   -0.9050    0.3228    0.0000 C   0  0  0  0  0  0  0  0  0  0  0  0
   -1.9852   -0.6126    0.0000 C   0  0  0  0  0  0  0  0  0  0  0  0
    1.5254    0.7906    0.0000 C   0  0  0  0  0  0  0  0  0  0  0  0
   -0.6350   -1.0804    0.0000 C   0  0  0  0  0  0  0  0  0  0  0  0
   -2.7954   -0.7685    0.0000 C   0  0  0  0  0  0  0  0  0  0  0  0
    0.9853   -0.7685    0.0000 C   0  0  0  0  0  0  0  0  0  0  0  0
    2.0655    0.1669    0.0000 O   0  0  0  0  0  0  0  0  0  0  0  0
   -1.4451   -1.2363    0.0000 C   0  0  0  0  0  0  0  0  0  0  0  0
    1.7954    1.5701    0.0000 C   0  0  0  0  0  0  0  0  0  0  0  0
    1.7954   -0.6126    0.0000 C   0  0  0  0  0  0  0  0  0  0  0  0
    0.1751    1.2583    0.0000 C   0  0  0  0  0  0  0  0  0  0  0  0
   -0.6350    1.1024    0.0000 C   0  0  0  0  0  0  0  0  0  0  0  0
   -2.2553    0.7906    0.0000 C   0  0  0  0  0  0  0  0  0  0  0  0
   -0.0949   -1.7040    0.0000 O   0  0  0  0  0  0  0  0  0  0  0  0
   -0.3649   -2.4836    0.0000 C   0  0  0  0  0  0  0  0  0  0  0  0
   -3.3354   -0.1449    0.0000 C   0  0  0  0  0  0  0  0  0  0  0  0
    1.3235    2.2468    0.0000 C   0  0  0  0  0  0  0  0  0  0  0  0
    2.5848    1.8099    0.0000 C   0  0  0  0  0  0  0  0  0  0  0  0
    1.8212    2.9047    0.0000 O   0  0  0  0  0  0  0  0  0  0  0  0
    2.3355   -1.2363    0.0000 O   0  0  0  0  0  0  0  0  0  0  0  0
    2.6007    2.6347    0.0000 C   0  0  0  0  0  0  0  0  0  0  0  0
   -3.0654    0.6347    0.0000 C   0  0  0  0  0  0  0  0  0  0  0  0
    0.1751   -3.1072    0.0000 O   0  0  0  0  0  0  0  0  0  0  0  0
    0.1751   -0.9244    0.0000 C   0  0  0  0  0  0  0  0  0  0  0  0
    0.9853    1.4142    0.0000 C   0  0  0  0  0  0  0  0  0  0  0  0
   -1.4451    0.9465    0.0000 C   0  0  0  0  0  0  0  0  0  0  0  0
   -2.6678   -1.5836    0.0000 C   0  0  0  0  0  0  0  0  0  0  0  0
   -3.3998   -1.3301    0.0000 C   0  0  0  0  0  0  0  0  0  0  0  0
   -4.1456   -0.3008    0.0000 O   0  0  0  0  0  0  0  0  0  0  0  0
   -1.1751   -2.6395    0.0000 C   0  0  0  0  0  0  0  0  0  0  0  0
  2  1  1  0
  3  1  1  0
  4  5  1  0
  5  2  1  0
  6 12  1  0
  7  3  1  0
  8  2  1  0
  9  6  1  0
 10  1  2  0
 11 14  1  0
 12  8  1  0
  7 13  1  0
 14 10  1  0
 15  3  1  0
 16 15  1  0
 17  4  1  0
  8 18  1  0
 19 18  1  0
 20  9  1  0
 21 13  2  0
 22 13  1  0
 23 21  1  0
 24 14  2  0
 25 22  2  0
 26 17  1  0
 27 19  2  0
  2 28  1  0
  3 29  1  0
  4 30  1  0
 31  9  1  0
 32  9  1  0
 20 33  1  0
 34 19  1  0
 11  7  1  0
 16  5  1  0
  6  4  1  0
 23 25  1  0
 20 26  1  0
M  END
>  <Classification>  (44) 
1

>  <pchembl>  (44) 
5.6

>  <InChI_steorem>  (44) 
InChI=1S/C28H38O6/c1-16(29)33-22-13-19-25(2,3)21(30)8-11-26(19,4)18-7-10-27(5)20(28(18,22)6)14-23(31)34-24(27)17-9-12-32-15-17/h9,12,14-15,18-19,21-22,24,30H,7-8,10-11,13H2,1-6H3

>  <source>  (44) 
ChEMBL25

>  <source_id>  (44) 
25

>  <optional_reference>  (44) 
10.1124/mol.112.084152

>  <optional_origin>  (44) 
None

>  <target>  (44) 
OATP1B3

$$$$

     RDKit          2D

 34 38  0  0  0  0  0  0  0  0999 V2000
    0.4452   -0.1449    0.0000 C   0  0  0  0  0  0  0  0  0  0  0  0
   -0.3649   -0.3008    0.0000 C   0  0  0  0  0  0  0  0  0  0  0  0
    0.7152    0.6347    0.0000 C   0  0  0  0  0  0  0  0  0  0  0  0
   -1.7152    0.1669    0.0000 C   0  0  0  0  0  0  0  0  0  0  0  0
   -0.9050    0.3228    0.0000 C   0  0  0  0  0  0  0  0  0  0  0  0
   -1.9852   -0.6126    0.0000 C   0  0  0  0  0  0  0  0  0  0  0  0
    1.5254    0.7906    0.0000 C   0  0  0  0  0  0  0  0  0  0  0  0
   -0.6350   -1.0804    0.0000 C   0  0  0  0  0  0  0  0  0  0  0  0
   -2.7954   -0.7685    0.0000 C   0  0  0  0  0  0  0  0  0  0  0  0
    0.9853   -0.7685    0.0000 C   0  0  0  0  0  0  0  0  0  0  0  0
    2.0655    0.1669    0.0000 O   0  0  0  0  0  0  0  0  0  0  0  0
   -1.4451   -1.2363    0.0000 C   0  0  0  0  0  0  0  0  0  0  0  0
    1.7954    1.5701    0.0000 C   0  0  0  0  0  0  0  0  0  0  0  0
    1.7954   -0.6126    0.0000 C   0  0  0  0  0  0  0  0  0  0  0  0
    0.1751    1.2583    0.0000 C   0  0  0  0  0  0  0  0  0  0  0  0
   -0.6350    1.1024    0.0000 C   0  0  0  0  0  0  0  0  0  0  0  0
   -3.3354   -0.1449    0.0000 C   0  0  0  0  0  0  0  0  0  0  0  0
   -2.2553    0.7906    0.0000 C   0  0  0  0  0  0  0  0  0  0  0  0
   -0.0949   -1.7040    0.0000 O   0  0  0  0  0  0  0  0  0  0  0  0
   -0.3649   -2.4836    0.0000 C   0  0  0  0  0  0  0  0  0  0  0  0
    1.3235    2.2468    0.0000 C   0  0  0  0  0  0  0  0  0  0  0  0
    2.5848    1.8099    0.0000 C   0  0  0  0  0  0  0  0  0  0  0  0
    1.8212    2.9047    0.0000 O   0  0  0  0  0  0  0  0  0  0  0  0
   -3.0654    0.6347    0.0000 C   0  0  0  0  0  0  0  0  0  0  0  0
    2.3355   -1.2363    0.0000 O   0  0  0  0  0  0  0  0  0  0  0  0
    2.6007    2.6347    0.0000 C   0  0  0  0  0  0  0  0  0  0  0  0
   -4.1456   -0.3008    0.0000 O   0  0  0  0  0  0  0  0  0  0  0  0
    0.1751   -3.1072    0.0000 O   0  0  0  0  0  0  0  0  0  0  0  0
    0.1751   -0.9244    0.0000 C   0  0  0  0  0  0  0  0  0  0  0  0
    0.9853    1.4142    0.0000 C   0  0  0  0  0  0  0  0  0  0  0  0
   -1.4451    0.9465    0.0000 C   0  0  0  0  0  0  0  0  0  0  0  0
   -2.6678   -1.5836    0.0000 C   0  0  0  0  0  0  0  0  0  0  0  0
   -3.3998   -1.3301    0.0000 C   0  0  0  0  0  0  0  0  0  0  0  0
   -1.1751   -2.6395    0.0000 C   0  0  0  0  0  0  0  0  0  0  0  0
  2  1  1  0
  3  1  1  0
  4  5  1  0
  5  2  1  0
  6 12  1  0
  7  3  1  0
  8  2  1  0
  9  6  1  0
 10  1  2  0
 11 14  1  0
 12  8  1  0
  7 13  1  0
 14 10  1  0
 15  3  1  0
 16 15  1  0
 17  9  1  0
 18  4  1  0
  8 19  1  0
 20 19  1  0
 21 13  2  0
 22 13  1  0
 23 21  1  0
 24 18  1  0
 25 14  2  0
 26 22  2  0
 27 17  2  0
 28 20  2  0
  2 29  1  0
  3 30  1  0
  4 31  1  0
 32  9  1  0
 33  9  1  0
 34 20  1  0
  7 11  1  0
 16  5  1  0
  4  6  1  0
 23 26  1  0
 24 17  1  0
M  END
>  <Classification>  (45) 
1

>  <pchembl>  (45) 
5.11

>  <InChI_steorem>  (45) 
InChI=1S/C28H36O6/c1-16(29)33-22-13-19-25(2,3)21(30)8-11-26(19,4)18-7-10-27(5)20(28(18,22)6)14-23(31)34-24(27)17-9-12-32-15-17/h9,12,14-15,18-19,22,24H,7-8,10-11,13H2,1-6H3

>  <source>  (45) 
ChEMBL25

>  <source_id>  (45) 
25

>  <optional_reference>  (45) 
10.1124/mol.112.084152

>  <optional_origin>  (45) 
None

>  <target>  (45) 
OATP1B3

$$$$

     RDKit          2D

 34 38  0  0  0  0  0  0  0  0999 V2000
   -0.6169    0.1568    0.0000 C   0  0  0  0  0  0  0  0  0  0  0  0
   -0.6116    0.9774    0.0000 C   0  0  0  0  0  0  0  0  0  0  0  0
    1.7277   -0.3094    0.0000 C   0  0  0  0  0  0  0  0  0  0  0  0
    0.0978   -0.2445    0.0000 C   0  0  0  0  0  0  0  0  0  0  0  0
    0.8069    0.1475    0.0000 C   0  0  0  0  0  0  0  0  0  0  0  0
    1.6658    1.0332    0.0000 O   0  0  0  0  0  0  0  0  0  0  0  0
    1.7222   -1.1517    0.0000 C   0  0  0  0  0  0  0  0  0  0  0  0
    2.4531    0.0879    0.0000 C   0  0  0  0  0  0  0  0  0  0  0  0
   -1.3317    1.3896    0.0000 C   0  0  0  0  0  0  0  0  0  0  0  0
    2.4423   -1.5640    0.0000 C   0  0  0  0  0  0  0  0  0  0  0  0
   -1.3422   -0.2352    0.0000 C   0  0  0  0  0  0  0  0  0  0  0  0
   -2.0516    0.9867    0.0000 O   0  0  0  0  0  0  0  0  0  0  0  0
   -2.0569    0.1661    0.0000 C   0  0  0  0  0  0  0  0  0  0  0  0
   -1.3271    2.3263    0.0000 C   0  0  0  0  0  0  0  0  0  0  0  0
    3.1677   -0.3188    0.0000 C   0  0  0  0  0  0  0  0  0  0  0  0
    3.1623   -1.1611    0.0000 C   0  0  0  0  0  0  0  0  0  0  0  0
    0.1083    1.3803    0.0000 C   0  0  0  0  0  0  0  0  0  0  0  0
    0.8122    0.9681    0.0000 C   0  0  0  0  0  0  0  0  0  0  0  0
    0.9125   -1.6243    0.0000 C   0  0  0  0  0  0  0  0  0  0  0  0
    0.9163   -2.5610    0.0000 C   0  0  0  0  0  0  0  0  0  0  0  0
   -2.0842    2.8637    0.0000 C   0  0  0  0  0  0  0  0  0  0  0  0
   -0.5694    2.8624    0.0000 C   0  0  0  0  0  0  0  0  0  0  0  0
   -1.7942    3.7538    0.0000 O   0  0  0  0  0  0  0  0  0  0  0  0
    0.0954   -0.9935    0.0000 C   0  0  0  0  0  0  0  0  0  0  0  0
   -2.7045   -0.2101    0.0000 O   0  0  0  0  0  0  0  0  0  0  0  0
   -0.8580    3.7530    0.0000 C   0  0  0  0  0  0  0  0  0  0  0  0
    1.5665   -2.9326    0.0000 O   0  0  0  0  0  0  0  0  0  0  0  0
   -0.6079    1.7263    0.0000 C   0  0  0  0  0  0  0  0  0  0  0  0
    1.0899   -0.7021    0.0000 C   0  0  0  0  0  0  0  0  0  0  0  0
    3.8071   -1.5420    0.0000 O   0  0  0  0  0  0  0  0  0  0  0  0
    0.1073   -3.0332    0.0000 O   0  0  0  0  0  0  0  0  0  0  0  0
    1.7831   -1.9194    0.0000 C   0  0  0  0  0  0  0  0  0  0  0  0
    3.0980   -1.9259    0.0000 C   0  0  0  0  0  0  0  0  0  0  0  0
    0.1104   -3.7821    0.0000 C   0  0  0  0  0  0  0  0  0  0  0  0
  2  1  1  0
  3  8  1  0
  4  1  1  0
  5  4  1  0
  1  6  1  0
  7  3  1  0
  8  6  1  0
  9  2  1  0
 10 16  1  0
 11  1  1  0
 12 13  1  0
 13 11  1  0
  9 14  1  0
 15  8  1  0
 16 15  1  0
 17  2  1  0
 18  5  1  0
  7 19  1  0
 20 19  1  0
 21 14  2  0
 22 14  1  0
 23 21  1  0
 24  4  2  0
 25 13  2  0
 26 22  2  0
 27 20  2  0
  2 28  1  0
  3 29  1  0
 16 30  1  0
 31 20  1  0
 32 10  1  0
 33 10  1  0
 34 31  1  0
  3  5  1  0
 12  9  1  0
 17 18  1  0
  7 10  1  0
 26 23  1  0
M  END
>  <Classification>  (46) 
1

>  <pchembl>  (46) 
5.51

>  <InChI_steorem>  (46) 
InChI=1S/C27H36O7/c1-15-17-7-9-25(4)23(16-8-10-32-14-16)33-22(30)13-27(15,25)34-20-12-19(28)24(2,3)18(26(17,20)5)11-21(29)31-6/h8,10,14,17-20,23,28H,1,7,9,11-13H2,2-6H3

>  <source>  (46) 
ChEMBL25

>  <source_id>  (46) 
25

>  <optional_reference>  (46) 
10.1124/mol.112.084152

>  <optional_origin>  (46) 
None

>  <target>  (46) 
OATP1B3

$$$$

     RDKit          2D

 34 38  0  0  0  0  0  0  0  0999 V2000
   -1.0834   -0.2014    0.0000 C   0  0  0  0  0  0  0  0  0  0  0  0
   -0.2450   -0.3212    0.0000 C   0  0  0  0  0  0  0  0  0  0  0  0
    1.0834    0.2014    0.0000 C   0  0  0  0  0  0  0  0  0  0  0  0
   -1.3991    0.5607    0.0000 C   0  0  0  0  0  0  0  0  0  0  0  0
    0.2450    0.3212    0.0000 C   0  0  0  0  0  0  0  0  0  0  0  0
    1.3991   -0.5607    0.0000 C   0  0  0  0  0  0  0  0  0  0  0  0
   -2.2375    0.6805    0.0000 C   0  0  0  0  0  0  0  0  0  0  0  0
    0.0436   -1.0997    0.0000 C   0  0  0  0  0  0  0  0  0  0  0  0
    2.2375   -0.6805    0.0000 C   0  0  0  0  0  0  0  0  0  0  0  0
    1.6115    0.8656    0.0000 C   0  0  0  0  0  0  0  0  0  0  0  0
   -1.6115   -0.8656    0.0000 C   0  0  0  0  0  0  0  0  0  0  0  0
   -2.7602    0.0163    0.0000 O   0  0  0  0  0  0  0  0  0  0  0  0
    0.8765   -1.2249    0.0000 C   0  0  0  0  0  0  0  0  0  0  0  0
   -2.5414    1.4389    0.0000 C   0  0  0  0  0  0  0  0  0  0  0  0
   -2.4444   -0.7513    0.0000 C   0  0  0  0  0  0  0  0  0  0  0  0
   -0.8765    1.2249    0.0000 C   0  0  0  0  0  0  0  0  0  0  0  0
    2.4444    0.7513    0.0000 C   0  0  0  0  0  0  0  0  0  0  0  0
    0.0000    1.0997    0.0000 C   0  0  0  0  0  0  0  0  0  0  0  0
   -0.4753   -1.7305    0.0000 O   0  0  0  0  0  0  0  0  0  0  0  0
    2.7602    0.0000    0.0000 C   0  0  0  0  0  0  0  0  0  0  0  0
   -0.1889   -2.4957    0.0000 C   0  0  0  0  0  0  0  0  0  0  0  0
   -3.3286    1.6286    0.0000 C   0  0  0  0  0  0  0  0  0  0  0  0
   -2.1015    2.1187    0.0000 C   0  0  0  0  0  0  0  0  0  0  0  0
   -3.3823    2.4435    0.0000 O   0  0  0  0  0  0  0  0  0  0  0  0
   -2.8442   -1.2680    0.0000 O   0  0  0  0  0  0  0  0  0  0  0  0
   -2.6239    2.7464    0.0000 C   0  0  0  0  0  0  0  0  0  0  0  0
   -0.6038   -3.0002    0.0000 O   0  0  0  0  0  0  0  0  0  0  0  0
   -0.6552   -0.8296    0.0000 C   0  0  0  0  0  0  0  0  0  0  0  0
    0.8419    0.8085    0.0000 C   0  0  0  0  0  0  0  0  0  0  0  0
   -1.6421    1.1672    0.0000 C   0  0  0  0  0  0  0  0  0  0  0  0
    1.8250   -1.1871    0.0000 C   0  0  0  0  0  0  0  0  0  0  0  0
    2.8867   -0.7546    0.0000 C   0  0  0  0  0  0  0  0  0  0  0  0
    3.4081   -0.0837    0.0000 O   0  0  0  0  0  0  0  0  0  0  0  0
    0.4556   -2.6030    0.0000 C   0  0  0  0  0  0  0  0  0  0  0  0
  2  1  1  0
  3  5  1  0
  4  1  1  0
  5  2  1  0
  6 13  1  0
  7  4  1  0
  8  2  1  0
  9  6  1  0
 10  3  1  0
 11  1  2  0
 12 15  1  0
 13  8  1  0
  7 14  1  0
 15 11  1  0
 16  4  1  0
 17 10  2  0
 18 16  1  0
  8 19  1  0
 20  9  1  0
 21 19  1  0
 22 14  2  0
 23 14  1  0
 24 22  1  0
 25 15  2  0
 26 23  2  0
 27 21  2  0
  2 28  1  0
  3 29  1  0
  4 30  1  0
 31  9  1  0
 32  9  1  0
 20 33  1  0
 34 21  1  0
 12  7  1  0
  5 18  1  0
  6  3  1  0
 24 26  1  0
 20 17  1  0
M  END
>  <Classification>  (47) 
1

>  <pchembl>  (47) 
5.43

>  <InChI_steorem>  (47) 
InChI=1S/C28H36O6/c1-16(29)33-22-13-19-25(2,3)21(30)8-11-26(19,4)18-7-10-27(5)20(28(18,22)6)14-23(31)34-24(27)17-9-12-32-15-17/h8-9,11-12,14-15,18-19,21-22,24,30H,7,10,13H2,1-6H3

>  <source>  (47) 
ChEMBL25

>  <source_id>  (47) 
25

>  <optional_reference>  (47) 
10.1124/mol.112.084152

>  <optional_origin>  (47) 
None

>  <target>  (47) 
OATP1B3

$$$$

     RDKit          2D

 34 38  0  0  0  0  0  0  0  0999 V2000
   -1.0834   -0.2014    0.0000 C   0  0  0  0  0  0  0  0  0  0  0  0
   -0.2450   -0.3212    0.0000 C   0  0  0  0  0  0  0  0  0  0  0  0
    1.0834    0.2014    0.0000 C   0  0  0  0  0  0  0  0  0  0  0  0
   -1.3991    0.5607    0.0000 C   0  0  0  0  0  0  0  0  0  0  0  0
    0.2450    0.3212    0.0000 C   0  0  0  0  0  0  0  0  0  0  0  0
    1.3991   -0.5607    0.0000 C   0  0  0  0  0  0  0  0  0  0  0  0
   -2.2375    0.6805    0.0000 C   0  0  0  0  0  0  0  0  0  0  0  0
    0.0436   -1.0997    0.0000 C   0  0  0  0  0  0  0  0  0  0  0  0
    2.2375   -0.6805    0.0000 C   0  0  0  0  0  0  0  0  0  0  0  0
    1.6115    0.8656    0.0000 C   0  0  0  0  0  0  0  0  0  0  0  0
   -1.6115   -0.8656    0.0000 C   0  0  0  0  0  0  0  0  0  0  0  0
   -2.7602    0.0163    0.0000 O   0  0  0  0  0  0  0  0  0  0  0  0
    0.8765   -1.2249    0.0000 C   0  0  0  0  0  0  0  0  0  0  0  0
   -2.5414    1.4389    0.0000 C   0  0  0  0  0  0  0  0  0  0  0  0
   -2.4444   -0.7513    0.0000 C   0  0  0  0  0  0  0  0  0  0  0  0
    2.7602    0.0000    0.0000 C   0  0  0  0  0  0  0  0  0  0  0  0
    2.4444    0.7513    0.0000 C   0  0  0  0  0  0  0  0  0  0  0  0
   -0.8765    1.2249    0.0000 C   0  0  0  0  0  0  0  0  0  0  0  0
    0.0000    1.0997    0.0000 C   0  0  0  0  0  0  0  0  0  0  0  0
   -0.4753   -1.7305    0.0000 O   0  0  0  0  0  0  0  0  0  0  0  0
   -0.1889   -2.4957    0.0000 C   0  0  0  0  0  0  0  0  0  0  0  0
   -3.3286    1.6286    0.0000 C   0  0  0  0  0  0  0  0  0  0  0  0
   -2.1015    2.1187    0.0000 C   0  0  0  0  0  0  0  0  0  0  0  0
   -3.3823    2.4435    0.0000 O   0  0  0  0  0  0  0  0  0  0  0  0
   -2.8442   -1.2680    0.0000 O   0  0  0  0  0  0  0  0  0  0  0  0
   -2.6239    2.7464    0.0000 C   0  0  0  0  0  0  0  0  0  0  0  0
    3.4081   -0.0837    0.0000 O   0  0  0  0  0  0  0  0  0  0  0  0
   -0.6038   -3.0002    0.0000 O   0  0  0  0  0  0  0  0  0  0  0  0
   -0.6552   -0.8296    0.0000 C   0  0  0  0  0  0  0  0  0  0  0  0
    0.8419    0.8085    0.0000 C   0  0  0  0  0  0  0  0  0  0  0  0
   -1.6421    1.1672    0.0000 C   0  0  0  0  0  0  0  0  0  0  0  0
    1.8250   -1.1871    0.0000 C   0  0  0  0  0  0  0  0  0  0  0  0
    2.8867   -0.7546    0.0000 C   0  0  0  0  0  0  0  0  0  0  0  0
    0.4556   -2.6030    0.0000 C   0  0  0  0  0  0  0  0  0  0  0  0
  2  1  1  0
  3  5  1  0
  4  1  1  0
  5  2  1  0
  6 13  1  0
  7  4  1  0
  8  2  1  0
  9  6  1  0
 10  3  1  0
 11  1  2  0
 12 15  1  0
 13  8  1  0
  7 14  1  0
 15 11  1  0
 16  9  1  0
 17 10  2  0
 18  4  1  0
 19 18  1  0
  8 20  1  0
 21 20  1  0
 22 14  2  0
 23 14  1  0
 24 22  1  0
 25 15  2  0
 26 23  2  0
 27 16  2  0
 28 21  2  0
  2 29  1  0
  3 30  1  0
  4 31  1  0
 32  9  1  0
 33  9  1  0
 34 21  1  0
 12  7  1  0
 19  5  1  0
  3  6  1  0
 24 26  1  0
 17 16  1  0
M  END
>  <Classification>  (48) 
1

>  <pchembl>  (48) 
5.42

>  <InChI_steorem>  (48) 
InChI=1S/C28H34O6/c1-16(29)33-22-13-19-25(2,3)21(30)8-11-26(19,4)18-7-10-27(5)20(28(18,22)6)14-23(31)34-24(27)17-9-12-32-15-17/h8-9,11-12,14-15,18-19,22,24H,7,10,13H2,1-6H3

>  <source>  (48) 
ChEMBL25

>  <source_id>  (48) 
25

>  <optional_reference>  (48) 
10.1124/mol.112.084152

>  <optional_origin>  (48) 
None

>  <target>  (48) 
OATP1B3

$$$$

     RDKit          2D

 33 39  0  0  0  0  0  0  0  0999 V2000
    0.8690    0.1754    0.0000 C   0  0  0  0  0  0  0  0  0  0  0  0
    1.3902   -0.4641    0.0000 C   0  0  0  0  0  0  0  0  0  0  0  0
    0.0545    0.0437    0.0000 C   0  0  0  0  0  0  0  0  0  0  0  0
   -2.6168    1.0594    0.0000 C   0  0  0  0  0  0  0  0  0  0  0  0
    1.1622    0.9465    0.0000 C   0  0  0  0  0  0  0  0  0  0  0  0
   -1.8024    1.1911    0.0000 C   0  0  0  0  0  0  0  0  0  0  0  0
   -1.2811    0.5516    0.0000 C   0  0  0  0  0  0  0  0  0  0  0  0
    0.5758   -0.5958    0.0000 O   0  0  0  0  0  0  0  0  0  0  0  0
   -2.3236    1.8305    0.0000 O   0  0  0  0  0  0  0  0  0  0  0  0
   -0.4667    0.6832    0.0000 C   0  0  0  0  0  0  0  0  0  0  0  0
   -1.5743   -0.2196    0.0000 C   0  0  0  0  0  0  0  0  0  0  0  0
    2.2046   -0.3325    0.0000 C   0  0  0  0  0  0  0  0  0  0  0  0
   -2.9100    0.2883    0.0000 C   0  0  0  0  0  0  0  0  0  0  0  0
    1.9766    1.0782    0.0000 C   0  0  0  0  0  0  0  0  0  0  0  0
   -2.3888   -0.3512    0.0000 C   0  0  0  0  0  0  0  0  0  0  0  0
    2.4978    0.4387    0.0000 O   0  0  0  0  0  0  0  0  0  0  0  0
   -0.2387   -0.7274    0.0000 C   0  0  0  0  0  0  0  0  0  0  0  0
    2.2698    1.8493    0.0000 C   0  0  0  0  0  0  0  0  0  0  0  0
   -1.0531   -0.8591    0.0000 C   0  0  0  0  0  0  0  0  0  0  0  0
    0.6409    1.5860    0.0000 C   0  0  0  0  0  0  0  0  0  0  0  0
   -0.1735    1.4544    0.0000 C   0  0  0  0  0  0  0  0  0  0  0  0
    2.7258   -0.9719    0.0000 O   0  0  0  0  0  0  0  0  0  0  0  0
    3.0660    2.0654    0.0000 C   0  0  0  0  0  0  0  0  0  0  0  0
   -3.7244    0.1566    0.0000 O   0  0  0  0  0  0  0  0  0  0  0  0
    1.8183    2.5398    0.0000 C   0  0  0  0  0  0  0  0  0  0  0  0
    3.1065    2.8894    0.0000 O   0  0  0  0  0  0  0  0  0  0  0  0
    2.3354    3.1826    0.0000 C   0  0  0  0  0  0  0  0  0  0  0  0
    0.1003   -0.7800    0.0000 C   0  0  0  0  0  0  0  0  0  0  0  0
    1.4554    1.7177    0.0000 C   0  0  0  0  0  0  0  0  0  0  0  0
   -0.9879    1.3227    0.0000 C   0  0  0  0  0  0  0  0  0  0  0  0
    0.2826   -1.3669    0.0000 O   0  0  0  0  0  0  0  0  0  0  0  0
   -3.0097   -0.8945    0.0000 C   0  0  0  0  0  0  0  0  0  0  0  0
   -2.2856   -1.1698    0.0000 C   0  0  0  0  0  0  0  0  0  0  0  0
  2  1  1  0
  3  1  1  0
  4  6  1  0
  5  1  1  0
  6  7  1  0
  7 10  1  0
  1  8  1  0
  6  9  1  0
 10  3  1  0
 11 19  1  0
 12  2  1  0
 13 15  1  0
 14  5  1  0
 15 11  1  0
 16 14  1  0
 17  3  1  0
 14 18  1  0
 19 17  1  0
 20  5  1  0
 21 20  1  0
 22 12  2  0
 23 18  2  0
 24 13  2  0
 25 18  1  0
 26 23  1  0
 27 25  2  0
  3 28  1  0
  5 29  1  0
  7 30  1  0
 17 31  1  0
 32 15  1  0
 33 15  1  0
  2  8  1  0
 21 10  1  0
 16 12  1  0
 11  7  1  0
 26 27  1  0
  4  9  1  0
  4 13  1  0
M  END
>  <Classification>  (49) 
1

>  <pchembl>  (49) 
5.53

>  <InChI_steorem>  (49) 
InChI=1S/C26H32O7/c1-22(2)14-10-15(27)25(5)13(24(14,4)19-16(31-19)17(22)28)6-8-23(3)18(12-7-9-30-11-12)32-21(29)20-26(23,25)33-20/h7,9,11,13-16,18-20,27H,6,8,10H2,1-5H3

>  <source>  (49) 
ChEMBL25

>  <source_id>  (49) 
25

>  <optional_reference>  (49) 
10.1124/mol.112.084152

>  <optional_origin>  (49) 
None

>  <target>  (49) 
OATP1B3

$$$$

     RDKit          2D

 37 41  0  0  0  0  0  0  0  0999 V2000
   -0.3007    0.1606    0.0000 C   0  0  0  0  0  0  0  0  0  0  0  0
   -0.8725   -0.5108    0.0000 C   0  0  0  0  0  0  0  0  0  0  0  0
    1.3924   -0.2896    0.0000 C   0  0  0  0  0  0  0  0  0  0  0  0
    0.2350   -0.3513    0.0000 C   0  0  0  0  0  0  0  0  0  0  0  0
    0.7767   -0.8873    0.0000 C   0  0  0  0  0  0  0  0  0  0  0  0
    0.3746    0.7407    0.0000 O   0  0  0  0  0  0  0  0  0  0  0  0
    2.1781   -0.5412    0.0000 C   0  0  0  0  0  0  0  0  0  0  0  0
    1.2175    0.5166    0.0000 C   0  0  0  0  0  0  0  0  0  0  0  0
   -1.6984   -0.3897    0.0000 C   0  0  0  0  0  0  0  0  0  0  0  0
    2.7888    0.0134    0.0000 C   0  0  0  0  0  0  0  0  0  0  0  0
    2.6139    0.8196    0.0000 C   0  0  0  0  0  0  0  0  0  0  0  0
   -0.6891    0.9192    0.0000 C   0  0  0  0  0  0  0  0  0  0  0  0
   -2.0135    0.3760    0.0000 O   0  0  0  0  0  0  0  0  0  0  0  0
   -1.5111    1.0349    0.0000 C   0  0  0  0  0  0  0  0  0  0  0  0
   -2.2061   -1.0400    0.0000 C   0  0  0  0  0  0  0  0  0  0  0  0
    1.8282    1.0713    0.0000 C   0  0  0  0  0  0  0  0  0  0  0  0
   -0.6431   -1.3464    0.0000 C   0  0  0  0  0  0  0  0  0  0  0  0
    0.1926   -1.5133    0.0000 C   0  0  0  0  0  0  0  0  0  0  0  0
    3.2247    1.3743    0.0000 O   0  0  0  0  0  0  0  0  0  0  0  0
    2.3530   -1.3475    0.0000 C   0  0  0  0  0  0  0  0  0  0  0  0
    3.1387   -1.5991    0.0000 C   0  0  0  0  0  0  0  0  0  0  0  0
    3.0497    2.1805    0.0000 C   0  0  0  0  0  0  0  0  0  0  0  0
   -3.0306   -1.0114    0.0000 C   0  0  0  0  0  0  0  0  0  0  0  0
   -1.9785   -1.8329    0.0000 C   0  0  0  0  0  0  0  0  0  0  0  0
   -3.3126   -1.7867    0.0000 O   0  0  0  0  0  0  0  0  0  0  0  0
    0.8102    0.2402    0.0000 C   0  0  0  0  0  0  0  0  0  0  0  0
   -1.8246    1.7980    0.0000 O   0  0  0  0  0  0  0  0  0  0  0  0
   -2.6623   -2.2945    0.0000 C   0  0  0  0  0  0  0  0  0  0  0  0
    2.2640    2.4321    0.0000 O   0  0  0  0  0  0  0  0  0  0  0  0
    3.7495   -1.0445    0.0000 O   0  0  0  0  0  0  0  0  0  0  0  0
   -1.4191   -1.1288    0.0000 C   0  0  0  0  0  0  0  0  0  0  0  0
    1.5807   -1.0928    0.0000 C   0  0  0  0  0  0  0  0  0  0  0  0
    3.3137   -2.4053    0.0000 O   0  0  0  0  0  0  0  0  0  0  0  0
    3.5525    0.3257    0.0000 C   0  0  0  0  0  0  0  0  0  0  0  0
    3.2290   -0.6844    0.0000 C   0  0  0  0  0  0  0  0  0  0  0  0
    3.6605    2.7351    0.0000 C   0  0  0  0  0  0  0  0  0  0  0  0
    4.0994   -2.6569    0.0000 C   0  0  0  0  0  0  0  0  0  0  0  0
  2  1  1  0
  3  8  1  0
  4  1  1  0
  5  4  1  0
  1  6  1  0
  7  3  1  0
  8  6  1  0
  9  2  1  0
 10 11  1  0
 11 16  1  0
 12  1  1  0
 13 14  1  0
 14 12  1  0
  9 15  1  0
 16  8  1  0
 17  2  1  0
 18  5  1  0
 11 19  1  0
  7 20  1  0
 21 20  1  0
 22 19  1  0
 23 15  2  0
 24 15  1  0
 25 23  1  0
 26  4  2  0
 27 14  2  0
 28 24  2  0
 29 22  2  0
 30 21  2  0
  2 31  1  0
  3 32  1  0
 33 21  1  0
 34 10  1  0
 35 10  1  0
 36 22  1  0
 37 33  1  0
  3  5  1  0
  9 13  1  0
 17 18  1  0
  7 10  1  0
 28 25  1  0
M  END
>  <Classification>  (50) 
1

>  <pchembl>  (50) 
5.35

>  <InChI_steorem>  (50) 
InChI=1S/C29H38O8/c1-16-19-8-10-27(5)25(18-9-11-34-15-18)36-24(32)14-29(16,27)37-22-13-21(35-17(2)30)26(3,4)20(28(19,22)6)12-23(31)33-7/h9,11,15,19-22,25H,1,8,10,12-14H2,2-7H3

>  <source>  (50) 
ChEMBL25

>  <source_id>  (50) 
25

>  <optional_reference>  (50) 
10.1124/mol.112.084152

>  <optional_origin>  (50) 
None

>  <target>  (50) 
OATP1B3

$$$$

     RDKit          2D

 39 44  0  0  0  0  0  0  0  0999 V2000
    0.8313   -0.1233    0.0000 C   0  0  0  0  0  0  0  0  0  0  0  0
    1.5552   -0.5363    0.0000 C   0  0  0  0  0  0  0  0  0  0  0  0
    0.1126   -0.5363    0.0000 C   0  0  0  0  0  0  0  0  0  0  0  0
    0.8313    0.7186    0.0000 C   0  0  0  0  0  0  0  0  0  0  0  0
    0.8152   -0.8313    0.0000 O   0  0  0  0  0  0  0  0  0  0  0  0
   -1.3193   -0.5363    0.0000 C   0  0  0  0  0  0  0  0  0  0  0  0
   -0.5953   -0.1180    0.0000 C   0  0  0  0  0  0  0  0  0  0  0  0
    2.2792   -0.1180    0.0000 C   0  0  0  0  0  0  0  0  0  0  0  0
   -1.3193   -1.3622    0.0000 C   0  0  0  0  0  0  0  0  0  0  0  0
    1.5552    1.1369    0.0000 C   0  0  0  0  0  0  0  0  0  0  0  0
    2.2792    0.7186    0.0000 O   0  0  0  0  0  0  0  0  0  0  0  0
   -2.0433   -1.7858    0.0000 C   0  0  0  0  0  0  0  0  0  0  0  0
    0.1126   -1.3622    0.0000 C   0  0  0  0  0  0  0  0  0  0  0  0
   -2.0433   -0.1180    0.0000 C   0  0  0  0  0  0  0  0  0  0  0  0
   -2.7565   -1.3622    0.0000 C   0  0  0  0  0  0  0  0  0  0  0  0
    1.5552    1.9417    0.0000 C   0  0  0  0  0  0  0  0  0  0  0  0
   -0.5953   -1.7858    0.0000 C   0  0  0  0  0  0  0  0  0  0  0  0
   -2.7565   -0.5363    0.0000 C   0  0  0  0  0  0  0  0  0  0  0  0
    0.1126    1.1369    0.0000 C   0  0  0  0  0  0  0  0  0  0  0  0
   -0.5953    0.7186    0.0000 C   0  0  0  0  0  0  0  0  0  0  0  0
   -2.0466    0.6866    0.0000 O   0  0  0  0  0  0  0  0  0  0  0  0
   -3.4556   -1.7608    0.0000 O   0  0  0  0  0  0  0  0  0  0  0  0
   -3.4605   -2.5657    0.0000 C   0  0  0  0  0  0  0  0  0  0  0  0
   -1.3516    1.0924    0.0000 C   0  0  0  0  0  0  0  0  0  0  0  0
    2.8366   -0.4397    0.0000 O   0  0  0  0  0  0  0  0  0  0  0  0
    0.9053    2.4041    0.0000 C   0  0  0  0  0  0  0  0  0  0  0  0
    2.2069    2.4017    0.0000 C   0  0  0  0  0  0  0  0  0  0  0  0
    1.1553    3.1687    0.0000 O   0  0  0  0  0  0  0  0  0  0  0  0
    1.9597    3.1672    0.0000 C   0  0  0  0  0  0  0  0  0  0  0  0
   -4.0195   -2.8844    0.0000 O   0  0  0  0  0  0  0  0  0  0  0  0
   -1.3543    1.7360    0.0000 O   0  0  0  0  0  0  0  0  0  0  0  0
    0.1132    0.0000    0.0000 C   0  0  0  0  0  0  0  0  0  0  0  0
    0.8323    1.3622    0.0000 C   0  0  0  0  0  0  0  0  0  0  0  0
    0.6725   -1.6796    0.0000 O   0  0  0  0  0  0  0  0  0  0  0  0
   -1.3193    0.1073    0.0000 C   0  0  0  0  0  0  0  0  0  0  0  0
   -1.4797   -2.0967    0.0000 C   0  0  0  0  0  0  0  0  0  0  0  0
   -2.6088   -2.0930    0.0000 C   0  0  0  0  0  0  0  0  0  0  0  0
   -0.8859    0.8264    0.0000 C   0  0  0  0  0  0  0  0  0  0  0  0
   -2.9050   -2.8906    0.0000 C   0  0  0  0  0  0  0  0  0  0  0  0
  2  1  1  0
  3  1  1  0
  4  1  1  0
  1  5  1  0
  6  7  1  0
  7  3  1  0
  8  2  1  0
  9 17  1  0
 10  4  1  0
 11 10  1  0
 12  9  1  0
 13  3  1  0
 14  6  1  0
 15 12  1  0
 10 16  1  0
 17 13  1  0
 18 14  1  0
 19  4  1  0
 20 19  1  0
 14 21  1  0
 15 22  1  0
 23 22  1  0
 24 21  1  0
 25  8  2  0
 26 16  2  0
 27 16  1  0
 28 26  1  0
 29 27  2  0
 30 23  2  0
 31 24  2  0
  3 32  1  0
  4 33  1  0
 13 34  1  0
  6 35  1  0
 36 12  1  0
 37 12  1  0
 38 24  1  0
 39 23  1  0
  2  5  1  0
  7 20  1  0
  8 11  1  0
  6  9  1  0
 28 29  1  0
 18 15  1  0
M  END
>  <Classification>  (51) 
1

>  <pchembl>  (51) 
5.53

>  <InChI_steorem>  (51) 
InChI=1S/C30H40O9/c1-15(31)36-21-13-22(37-16(2)32)28(6)18-8-10-27(5)23(17-9-11-35-14-17)38-25(34)24-30(27,39-24)29(18,7)20(33)12-19(28)26(21,3)4/h9,11,14,18-24,33H,8,10,12-13H2,1-7H3

>  <source>  (51) 
ChEMBL25

>  <source_id>  (51) 
25

>  <optional_reference>  (51) 
10.1124/mol.112.084152

>  <optional_origin>  (51) 
None

>  <target>  (51) 
OATP1B3

$$$$

     RDKit          2D

 47 51  0  0  0  0  0  0  0  0999 V2000
    2.4643   -4.9607    0.0000 C   0  0  0  0  0  0  0  0  0  0  0  0
    1.7498   -5.3732    0.0000 C   0  0  0  0  0  0  0  0  0  0  0  0
    1.7498   -6.1982    0.0000 C   0  0  0  0  0  0  0  0  0  0  0  0
    2.4643   -6.6107    0.0000 C   0  0  0  0  0  0  0  0  0  0  0  0
    3.1788   -6.1982    0.0000 C   0  0  0  0  0  0  0  0  0  0  0  0
    3.1788   -5.3732    0.0000 C   0  0  0  0  0  0  0  0  0  0  0  0
    3.8933   -4.9607    0.0000 O   0  0  0  0  0  0  0  0  0  0  0  0
    4.6077   -5.3732    0.0000 C   0  0  0  0  0  0  0  0  0  0  0  0
    4.6077   -6.1982    0.0000 C   0  0  0  0  0  0  0  0  0  0  0  0
    3.8933   -6.6107    0.0000 C   0  0  0  0  0  0  0  0  0  0  0  0
    1.0353   -4.9607    0.0000 O   0  0  0  0  0  0  0  0  0  0  0  0
    0.3208   -5.3732    0.0000 C   0  0  0  0  0  0  0  0  0  0  0  0
    0.3208   -6.1982    0.0000 C   0  0  0  0  0  0  0  0  0  0  0  0
    1.0353   -6.6107    0.0000 C   0  0  0  0  0  0  0  0  0  0  0  0
    0.1073   -4.5763    0.0000 C   0  0  0  0  0  0  0  0  0  0  0  0
   -0.3936   -4.9607    0.0000 C   0  0  0  0  0  0  0  0  0  0  0  0
   -1.1081   -5.3732    0.0000 C   0  0  0  0  0  0  0  0  0  0  0  0
   -1.8226   -4.9607    0.0000 C   0  0  0  0  0  0  0  0  0  0  0  0
   -2.5371   -5.3732    0.0000 C   0  0  0  0  0  0  0  0  0  0  0  0
   -3.2515   -4.9607    0.0000 C   0  0  0  0  0  0  0  0  0  0  0  0
   -2.5371   -6.1982    0.0000 C   0  0  0  0  0  0  0  0  0  0  0  0
    2.4643   -4.1357    0.0000 C   0  0  0  0  0  0  0  0  0  0  0  0
    1.7498   -3.7232    0.0000 C   0  0  0  0  0  0  0  0  0  0  0  0
    1.7498   -2.8982    0.0000 C   0  0  0  0  0  0  0  0  0  0  0  0
    1.0353   -2.4857    0.0000 C   0  0  0  0  0  0  0  0  0  0  0  0
    2.4643   -2.4857    0.0000 C   0  0  0  0  0  0  0  0  0  0  0  0
    3.8933   -7.4357    0.0000 O   0  0  0  0  0  0  0  0  0  0  0  0
    2.4643   -7.4357    0.0000 O   0  0  0  0  0  0  0  0  0  0  0  0
    5.1911   -5.9565    0.0000 C   0  0  0  0  0  0  0  0  0  0  0  0
    4.9823   -4.6381    0.0000 C   0  0  0  0  0  0  0  0  0  0  0  0
    5.7971   -4.7672    0.0000 O   0  0  0  0  0  0  0  0  0  0  0  0
    5.9262   -5.5820    0.0000 C   0  0  0  0  0  0  0  0  0  0  0  0
    5.9880   -6.1701    0.0000 C   0  0  0  0  0  0  0  0  0  0  0  0
    5.0202   -6.9126    0.0000 C   0  0  0  0  0  0  0  0  0  0  0  0
    5.8171   -7.1262    0.0000 C   0  0  0  0  0  0  0  0  0  0  0  0
    6.7512   -5.5820    0.0000 C   0  0  0  0  0  0  0  0  0  0  0  0
    6.6406   -5.9945    0.0000 C   0  0  0  0  0  0  0  0  0  0  0  0
    4.2678   -4.2256    0.0000 C   0  0  0  0  0  0  0  0  0  0  0  0
    4.2678   -3.4006    0.0000 O   0  0  0  0  0  0  0  0  0  0  0  0
    3.5533   -4.6381    0.0000 O   0  0  0  0  0  0  0  0  0  0  0  0
    4.9823   -3.8131    0.0000 C   0  0  0  0  0  0  0  0  0  0  0  0
    5.6967   -3.4006    0.0000 C   0  0  0  0  0  0  0  0  0  0  0  0
    5.6967   -2.5756    0.0000 C   0  0  0  0  0  0  0  0  0  0  0  0
    6.4112   -2.1631    0.0000 C   0  0  0  0  0  0  0  0  0  0  0  0
    4.9823   -2.1631    0.0000 C   0  0  0  0  0  0  0  0  0  0  0  0
    6.4112   -1.3381    0.0000 O   0  0  0  0  0  0  0  0  0  0  0  0
    7.1257   -2.5756    0.0000 O   0  0  0  0  0  0  0  0  0  0  0  0
  1  2  2  0
  1  6  1  0
  3  4  2  0
  4  5  1  0
 10  5  1  0
  5  6  2  0
  6  7  1  0
  7  8  1  0
  8  9  1  0
  9 10  1  0
  2 11  1  0
  2  3  1  0
 14  3  1  0
 11 12  1  0
 12 13  1  0
 13 14  2  0
 12 15  1  0
 12 16  1  0
 16 17  1  0
 17 18  1  0
 18 19  2  3
 19 20  1  0
 19 21  1  0
  1 22  1  0
 22 23  1  0
 23 24  2  3
 24 25  1  0
 24 26  1  0
 10 27  2  0
  4 28  1  0
 29 32  1  0
 29  8  1  0
  8 30  1  0
 30 31  1  0
 31 32  1  0
 29 33  1  0
  9 34  2  0
 34 35  1  0
 35 33  1  0
 32 36  1  0
 32 37  1  0
 30 38  1  0
 38 39  2  0
 38 40  1  0
 30 41  1  0
 41 42  1  0
 42 43  2  3
 43 44  1  0
 43 45  1  0
 44 46  2  0
 44 47  1  0
M  END
>  <Classification>  (52) 
1

>  <pchembl>  (52) 
5.65

>  <InChI_steorem>  (52) 
InChI=1S/C38H46O9/c1-21(2)11-10-18-36(8)19-17-24-29(39)28-30(40)26-12-9-13-27-35(6,7)47-37(34(43)44,20-16-23(5)33(41)42)38(26,27)46-32(28)25(31(24)45-36)15-14-22(3)4/h11-12,14,16-17,19,27,39H,9-10,13,15,18,20H2,1-8H3,(H,41,42)(H,43,44)

>  <source>  (52) 
ChEMBL25

>  <source_id>  (52) 
25

>  <optional_reference>  (52) 
10.1124/mol.112.084152

>  <optional_origin>  (52) 
None

>  <target>  (52) 
OATP1B3

$$$$

     RDKit          2D

 46 51  0  0  0  0  0  0  0  0999 V2000
    0.8340   -0.1238    0.0000 C   0  0  0  0  0  0  0  0  0  0  0  0
    1.5604   -0.5381    0.0000 C   0  0  0  0  0  0  0  0  0  0  0  0
    0.1130   -0.5381    0.0000 C   0  0  0  0  0  0  0  0  0  0  0  0
    0.8340    0.7210    0.0000 C   0  0  0  0  0  0  0  0  0  0  0  0
    0.8179   -0.8340    0.0000 O   0  0  0  0  0  0  0  0  0  0  0  0
   -1.3237   -0.5381    0.0000 C   0  0  0  0  0  0  0  0  0  0  0  0
   -0.5973   -0.1184    0.0000 C   0  0  0  0  0  0  0  0  0  0  0  0
    2.2868   -0.1184    0.0000 C   0  0  0  0  0  0  0  0  0  0  0  0
   -1.3237   -1.3667    0.0000 C   0  0  0  0  0  0  0  0  0  0  0  0
    1.5604    1.1407    0.0000 C   0  0  0  0  0  0  0  0  0  0  0  0
    2.2868    0.7210    0.0000 O   0  0  0  0  0  0  0  0  0  0  0  0
    0.1130   -1.3667    0.0000 C   0  0  0  0  0  0  0  0  0  0  0  0
   -2.0501   -1.7918    0.0000 C   0  0  0  0  0  0  0  0  0  0  0  0
   -2.0501   -0.1184    0.0000 C   0  0  0  0  0  0  0  0  0  0  0  0
   -2.7657   -1.3667    0.0000 C   0  0  0  0  0  0  0  0  0  0  0  0
    1.5604    1.9482    0.0000 C   0  0  0  0  0  0  0  0  0  0  0  0
   -0.5973   -1.7918    0.0000 C   0  0  0  0  0  0  0  0  0  0  0  0
   -2.7657   -0.5381    0.0000 C   0  0  0  0  0  0  0  0  0  0  0  0
    0.1130    1.1407    0.0000 C   0  0  0  0  0  0  0  0  0  0  0  0
   -0.5973    0.7210    0.0000 C   0  0  0  0  0  0  0  0  0  0  0  0
    0.8162   -1.7637    0.0000 O   0  0  0  0  0  0  0  0  0  0  0  0
   -2.0535    0.6888    0.0000 O   0  0  0  0  0  0  0  0  0  0  0  0
   -3.4671   -1.7667    0.0000 O   0  0  0  0  0  0  0  0  0  0  0  0
   -2.7542    1.0902    0.0000 C   0  0  0  0  0  0  0  0  0  0  0  0
    1.5118   -1.3537    0.0000 C   0  0  0  0  0  0  0  0  0  0  0  0
   -3.4720   -2.5742    0.0000 C   0  0  0  0  0  0  0  0  0  0  0  0
    2.8461   -0.4411    0.0000 O   0  0  0  0  0  0  0  0  0  0  0  0
    0.9083    2.4121    0.0000 C   0  0  0  0  0  0  0  0  0  0  0  0
    2.2142    2.4097    0.0000 C   0  0  0  0  0  0  0  0  0  0  0  0
    1.1591    3.1793    0.0000 O   0  0  0  0  0  0  0  0  0  0  0  0
    1.9662    3.1778    0.0000 C   0  0  0  0  0  0  0  0  0  0  0  0
    2.0741   -1.6711    0.0000 O   0  0  0  0  0  0  0  0  0  0  0  0
   -2.7564    1.6283    0.0000 O   0  0  0  0  0  0  0  0  0  0  0  0
   -4.0329   -2.8941    0.0000 O   0  0  0  0  0  0  0  0  0  0  0  0
    0.1135    0.0000    0.0000 C   0  0  0  0  0  0  0  0  0  0  0  0
    0.8350    1.3667    0.0000 C   0  0  0  0  0  0  0  0  0  0  0  0
   -1.3237    0.1076    0.0000 C   0  0  0  0  0  0  0  0  0  0  0  0
   -1.4847   -2.1037    0.0000 C   0  0  0  0  0  0  0  0  0  0  0  0
   -2.6175   -2.1000    0.0000 C   0  0  0  0  0  0  0  0  0  0  0  0
    1.5068   -0.8156    0.0000 C   0  0  0  0  0  0  0  0  0  0  0  0
   -3.2192    0.8194    0.0000 C   0  0  0  0  0  0  0  0  0  0  0  0
   -2.9147   -2.9002    0.0000 C   0  0  0  0  0  0  0  0  0  0  0  0
   -1.2958    1.1259    0.0000 O   0  0  0  0  0  0  0  0  0  0  0  0
   -1.2948    1.9335    0.0000 C   0  0  0  0  0  0  0  0  0  0  0  0
   -0.7351    2.2555    0.0000 C   0  0  0  0  0  0  0  0  0  0  0  0
   -1.8534    2.2573    0.0000 O   0  0  0  0  0  0  0  0  0  0  0  0
  1  5  1  0
  6  7  1  0
  7  3  1  0
  8  2  1  0
  9 17  1  0
 10  4  1  0
 11 10  1  0
 12  3  1  0
 13  9  1  0
 14  6  1  0
 15 13  1  0
 10 16  1  0
 17 12  1  0
 18 14  1  0
 19  4  1  0
 20 19  1  0
 12 21  1  0
 14 22  1  0
 15 23  1  0
 24 22  1  0
 25 21  1  0
 26 23  1  0
 27  8  2  0
 28 16  2  0
 29 16  1  0
 30 28  1  0
 31 29  2  0
 32 25  2  0
 33 24  2  0
 34 26  2  0
  3 35  1  0
  4 36  1  0
  6 37  1  0
 38 13  1  0
 39 13  1  0
 40 25  1  0
 41 24  1  0
 42 26  1  0
  2  5  1  0
  7 20  1  0
 11  8  1  0
  6  9  1  0
 30 31  1  0
 15 18  1  0
 20 43  1  0
  2  1  1  0
 43 44  1  0
  3  1  1  0
 44 45  1  0
  4  1  1  0
 44 46  2  0
M  END
>  <Classification>  (53) 
1

>  <pchembl>  (53) 
5.4

>  <InChI_steorem>  (53) 
InChI=1S/C34H44O12/c1-16(35)41-21-14-31(7)27(20-10-11-40-15-20)45-29(39)28-34(31,46-28)33(9)25(44-19(4)38)12-22-30(5,6)23(42-17(2)36)13-24(43-18(3)37)32(22,8)26(21)33/h10-11,15,21-28H,12-14H2,1-9H3

>  <source>  (53) 
ChEMBL25

>  <source_id>  (53) 
25

>  <optional_reference>  (53) 
10.1124/mol.112.084152

>  <optional_origin>  (53) 
None

>  <target>  (53) 
OATP1B3

$$$$

     RDKit          2D

 83 92  0  0  0  0  0  0  0  0999 V2000
    8.1208    3.5312    0.0000 C   0  0  0  0  0  0  0  0  0  0  0  0
    8.5333    2.8168    0.0000 C   0  0  0  0  0  0  0  0  0  0  0  0
    9.3583    2.8168    0.0000 C   0  0  0  0  0  0  0  0  0  0  0  0
    9.7708    3.5312    0.0000 C   0  0  0  0  0  0  0  0  0  0  0  0
    9.3583    4.2457    0.0000 C   0  0  0  0  0  0  0  0  0  0  0  0
    8.5333    4.2457    0.0000 C   0  0  0  0  0  0  0  0  0  0  0  0
    7.2958    3.5312    0.0000 C   0  0  0  0  0  0  0  0  0  0  0  0
    6.8833    4.2457    0.0000 C   0  0  0  0  0  0  0  0  0  0  0  0
    7.2958    4.9602    0.0000 C   0  0  0  0  0  0  0  0  0  0  0  0
    8.1208    4.9602    0.0000 C   0  0  0  0  0  0  0  0  0  0  0  0
    6.8833    2.8168    0.0000 C   0  0  0  0  0  0  0  0  0  0  0  0
    6.0583    2.8168    0.0000 C   0  0  0  0  0  0  0  0  0  0  0  0
    5.6458    3.5312    0.0000 C   0  0  0  0  0  0  0  0  0  0  0  0
    6.0583    4.2457    0.0000 C   0  0  0  0  0  0  0  0  0  0  0  0
    4.8208    3.5312    0.0000 C   0  0  0  0  0  0  0  0  0  0  0  0
    4.4083    4.2457    0.0000 C   0  0  0  0  0  0  0  0  0  0  0  0
    4.8208    4.9602    0.0000 C   0  0  0  0  0  0  0  0  0  0  0  0
    5.6458    4.9602    0.0000 C   0  0  0  0  0  0  0  0  0  0  0  0
    4.4083    2.8168    0.0000 C   0  0  0  0  0  0  0  0  0  0  0  0
    3.5833    2.8168    0.0000 C   0  0  0  0  0  0  0  0  0  0  0  0
    3.1708    3.5312    0.0000 C   0  0  0  0  0  0  0  0  0  0  0  0
    3.5833    4.2457    0.0000 C   0  0  0  0  0  0  0  0  0  0  0  0
    9.3870    5.0702    0.0000 C   0  0  0  0  0  0  0  0  0  0  0  0
   10.0579    4.6829    0.0000 C   0  0  0  0  0  0  0  0  0  0  0  0
   10.5958    3.5312    0.0000 O   0  0  0  0  0  0  0  0  0  0  0  0
   11.0083    2.8168    0.0000 C   0  0  0  0  0  0  0  0  0  0  0  0
   11.8333    2.8168    0.0000 O   0  0  0  0  0  0  0  0  0  0  0  0
   12.2458    2.1023    0.0000 C   0  0  0  0  0  0  0  0  0  0  0  0
   11.8333    1.3878    0.0000 C   0  0  0  0  0  0  0  0  0  0  0  0
   11.0083    1.3878    0.0000 C   0  0  0  0  0  0  0  0  0  0  0  0
   10.5958    2.1023    0.0000 C   0  0  0  0  0  0  0  0  0  0  0  0
   13.0708    2.1023    0.0000 C   0  0  0  0  0  0  0  0  0  0  0  0
   13.4833    2.8168    0.0000 O   0  0  0  0  0  0  0  0  0  0  0  0
   12.2458    0.6733    0.0000 O   0  0  0  0  0  0  0  0  0  0  0  0
   10.5958    0.6733    0.0000 O   0  0  0  0  0  0  0  0  0  0  0  0
    9.7708    2.1023    0.0000 O   0  0  0  0  0  0  0  0  0  0  0  0
    7.7083    2.8168    0.0000 C   0  0  0  0  0  0  0  0  0  0  0  0
    6.4708    4.9602    0.0000 C   0  0  0  0  0  0  0  0  0  0  0  0
    5.9720    5.0662    0.0000 C   0  0  0  0  0  0  0  0  0  0  0  0
    3.9958    4.9602    0.0000 C   0  0  0  0  0  0  0  0  0  0  0  0
    3.1708    4.9602    0.0000 O   0  0  0  0  0  0  0  0  0  0  0  0
    4.4083    5.6746    0.0000 O   0  0  0  0  0  0  0  0  0  0  0  0
    4.9070    5.7807    0.0000 O   0  0  0  0  0  0  0  0  0  0  0  0
    2.7583    5.6746    0.0000 C   0  0  0  0  0  0  0  0  0  0  0  0
    3.1708    6.3891    0.0000 O   0  0  0  0  0  0  0  0  0  0  0  0
    2.7583    7.1036    0.0000 C   0  0  0  0  0  0  0  0  0  0  0  0
    1.9333    7.1036    0.0000 C   0  0  0  0  0  0  0  0  0  0  0  0
    1.5208    6.3891    0.0000 C   0  0  0  0  0  0  0  0  0  0  0  0
    1.9333    5.6746    0.0000 C   0  0  0  0  0  0  0  0  0  0  0  0
    1.5208    4.9602    0.0000 O   0  0  0  0  0  0  0  0  0  0  0  0
    0.6958    4.9602    0.0000 C   0  0  0  0  0  0  0  0  0  0  0  0
    0.2833    5.6746    0.0000 O   0  0  0  0  0  0  0  0  0  0  0  0
   -0.5417    5.6746    0.0000 C   0  0  0  0  0  0  0  0  0  0  0  0
   -0.9542    4.9602    0.0000 C   0  0  0  0  0  0  0  0  0  0  0  0
   -0.5417    4.2457    0.0000 C   0  0  0  0  0  0  0  0  0  0  0  0
    0.2833    4.2457    0.0000 C   0  0  0  0  0  0  0  0  0  0  0  0
   -0.9542    6.3891    0.0000 C   0  0  0  0  0  0  0  0  0  0  0  0
    0.6958    3.5312    0.0000 O   0  0  0  0  0  0  0  0  0  0  0  0
   -0.9542    3.5312    0.0000 O   0  0  0  0  0  0  0  0  0  0  0  0
   -1.7792    4.9602    0.0000 O   0  0  0  0  0  0  0  0  0  0  0  0
    3.5545    1.9923    0.0000 C   0  0  0  0  0  0  0  0  0  0  0  0
    2.8836    2.3796    0.0000 C   0  0  0  0  0  0  0  0  0  0  0  0
    0.6958    6.3891    0.0000 O   0  0  0  0  0  0  0  0  0  0  0  0
    1.5208    7.8181    0.0000 O   0  0  0  0  0  0  0  0  0  0  0  0
   -2.1917    5.6746    0.0000 C   0  0  0  0  0  0  0  0  0  0  0  0
   -1.7792    6.3891    0.0000 O   0  0  0  0  0  0  0  0  0  0  0  0
   -2.1917    7.1036    0.0000 C   0  0  0  0  0  0  0  0  0  0  0  0
   -3.0167    7.1036    0.0000 C   0  0  0  0  0  0  0  0  0  0  0  0
   -3.4292    6.3891    0.0000 C   0  0  0  0  0  0  0  0  0  0  0  0
   -3.0167    5.6746    0.0000 C   0  0  0  0  0  0  0  0  0  0  0  0
   -3.4292    4.9602    0.0000 O   0  0  0  0  0  0  0  0  0  0  0  0
   -3.4292    7.8181    0.0000 O   0  0  0  0  0  0  0  0  0  0  0  0
   -4.2542    6.3891    0.0000 O   0  0  0  0  0  0  0  0  0  0  0  0
   -4.6667    7.1036    0.0000 C   0  0  0  0  0  0  0  0  0  0  0  0
   -4.2542    7.8181    0.0000 O   0  0  0  0  0  0  0  0  0  0  0  0
   -4.6667    8.5325    0.0000 C   0  0  0  0  0  0  0  0  0  0  0  0
   -5.4917    8.5325    0.0000 C   0  0  0  0  0  0  0  0  0  0  0  0
   -5.9042    7.8181    0.0000 C   0  0  0  0  0  0  0  0  0  0  0  0
   -5.4917    7.1036    0.0000 C   0  0  0  0  0  0  0  0  0  0  0  0
   -4.2542    9.2470    0.0000 C   0  0  0  0  0  0  0  0  0  0  0  0
   -5.9042    9.2470    0.0000 O   0  0  0  0  0  0  0  0  0  0  0  0
   -6.7292    7.8181    0.0000 O   0  0  0  0  0  0  0  0  0  0  0  0
   -5.9042    6.3891    0.0000 O   0  0  0  0  0  0  0  0  0  0  0  0
  1  2  1  0
  2  3  1  0
  3  4  1  0
  4  5  1  0
  5  6  1  0
  1  7  1  0
  6  1  1  0
 10  6  1  0
  8  9  1  0
  9 10  1  0
 14  8  1  0
  8  7  1  0
  7 11  1  0
 11 12  1  0
 12 13  2  0
 13 15  1  0
 14 13  1  0
 18 14  1  0
 16 17  1  0
 17 18  1  0
 15 19  1  0
 16 15  1  0
 22 16  1  0
 19 20  1  0
 20 21  1  0
 21 22  1  0
  5 23  1  0
  5 24  1  0
  4 25  1  0
 25 26  1  0
 26 27  1  0
 31 26  1  0
 27 28  1  0
 28 29  1  0
 29 30  1  0
 30 31  1  0
 28 32  1  0
 32 33  1  0
 29 34  1  0
 30 35  1  0
 31 36  1  0
  1 37  1  0
  8 38  1  0
 14 39  1  0
 16 40  1  0
 40 41  1  0
 40 42  2  0
 17 43  1  0
 41 44  1  0
 44 45  1  0
 49 44  1  0
 45 46  1  0
 46 47  1  0
 47 48  1  0
 48 49  1  0
 49 50  1  0
 50 51  1  0
 51 52  1  0
 56 51  1  0
 52 53  1  0
 53 54  1  0
 54 55  1  0
 55 56  1  0
 53 57  1  0
 56 58  1  0
 55 59  1  0
 54 60  1  0
 20 61  1  0
 20 62  1  0
 48 63  1  0
 47 64  1  0
 60 65  1  0
 65 66  1  0
 70 65  1  0
 66 67  1  0
 67 68  1  0
 68 69  1  0
 69 70  1  0
 70 71  1  0
 68 72  1  0
 69 73  1  0
 73 74  1  0
 74 75  1  0
 79 74  1  0
 75 76  1  0
 76 77  1  0
 77 78  1  0
 78 79  1  0
 76 80  1  0
 77 81  1  0
 78 82  1  0
 79 83  1  0
M  END
>  <Classification>  (54) 
1

>  <pchembl>  (54) 
5.28

>  <InChI_steorem>  (54) 
InChI=1S/C58H94O25/c1-23-34(63)37(66)40(69)48(76-23)81-45-28(61)22-74-47(43(45)72)80-44-24(2)77-49(42(71)39(44)68)82-46-35(64)27(60)21-75-51(46)83-52(73)58-17-16-53(3,4)18-26(58)25-10-11-31-55(7)14-13-33(79-50-41(70)38(67)36(65)29(20-59)78-50)54(5,6)30(55)12-15-56(31,8)57(25,9)19-32(58)62/h10,23-24,26-51,59-72H,11-22H2,1-9H3

>  <source>  (54) 
ChEMBL25

>  <source_id>  (54) 
25

>  <optional_reference>  (54) 
10.1124/mol.112.084152

>  <optional_origin>  (54) 
None

>  <target>  (54) 
OATP1B3

$$$$

     RDKit          2D

 30 33  0  0  0  0  0  0  0  0999 V2000
   -0.1409    1.1694    0.0000 O   0  0  0  0  0  0  0  0  0  0  0  0
   -0.2139   -2.6105    0.0000 O   0  0  0  0  0  0  0  0  0  0  0  0
   -4.4070   -1.7192    0.0000 O   0  0  0  0  0  0  0  0  0  0  0  0
    1.5337    3.4690    0.0000 O   0  0  0  0  0  0  0  0  0  0  0  0
    0.2962    2.7545    0.0000 O   0  0  0  0  0  0  0  0  0  0  0  0
    0.3007   -0.1896    0.0000 C   0  0  0  0  0  0  0  0  0  0  0  0
    0.1292   -0.9966    0.0000 C   0  0  0  0  0  0  0  0  0  0  0  0
   -0.6555   -1.2515    0.0000 C   0  0  0  0  0  0  0  0  0  0  0  0
   -1.2686   -0.6995    0.0000 C   0  0  0  0  0  0  0  0  0  0  0  0
   -2.0532   -0.9544    0.0000 C   0  0  0  0  0  0  0  0  0  0  0  0
   -0.3124    0.3624    0.0000 C   0  0  0  0  0  0  0  0  0  0  0  0
    1.1212   -0.1034    0.0000 C   0  0  0  0  0  0  0  0  0  0  0  0
   -2.2247   -1.7614    0.0000 C   0  0  0  0  0  0  0  0  0  0  0  0
   -1.0970    0.1075    0.0000 C   0  0  0  0  0  0  0  0  0  0  0  0
   -0.8270   -2.0585    0.0000 C   0  0  0  0  0  0  0  0  0  0  0  0
    0.8436   -1.4091    0.0000 C   0  0  0  0  0  0  0  0  0  0  0  0
    1.4567   -0.8571    0.0000 C   0  0  0  0  0  0  0  0  0  0  0  0
   -1.6116   -2.3134    0.0000 C   0  0  0  0  0  0  0  0  0  0  0  0
   -2.6663   -0.4024    0.0000 C   0  0  0  0  0  0  0  0  0  0  0  0
    1.5337    0.6111    0.0000 C   0  0  0  0  0  0  0  0  0  0  0  0
    0.5556    0.5950    0.0000 C   0  0  0  0  0  0  0  0  0  0  0  0
   -3.0093   -2.0163    0.0000 C   0  0  0  0  0  0  0  0  0  0  0  0
   -1.8817   -0.1475    0.0000 C   0  0  0  0  0  0  0  0  0  0  0  0
   -3.6224   -1.4643    0.0000 C   0  0  0  0  0  0  0  0  0  0  0  0
   -3.4509   -0.6573    0.0000 C   0  0  0  0  0  0  0  0  0  0  0  0
    1.1212    1.3256    0.0000 C   0  0  0  0  0  0  0  0  0  0  0  0
    2.3587    0.6111    0.0000 C   0  0  0  0  0  0  0  0  0  0  0  0
    1.5337    2.0400    0.0000 C   0  0  0  0  0  0  0  0  0  0  0  0
    1.1212    2.7545    0.0000 C   0  0  0  0  0  0  0  0  0  0  0  0
    1.1212    4.1834    0.0000 C   0  0  0  0  0  0  0  0  0  0  0  0
 11  1  1  0
 15  2  1  0
 24  3  1  0
  4 29  1  0
  4 30  1  0
  5 29  2  0
  6  7  1  0
  6 11  1  0
  6 12  1  0
  6 21  1  0
  7  8  1  0
  7 16  1  0
  8  9  1  0
  8 15  1  0
  9 10  1  0
  9 14  1  0
 10 13  1  0
 10 19  1  0
 10 23  1  0
 11 14  1  0
 12 17  1  0
 12 20  1  0
 13 18  1  0
 13 22  1  0
 15 18  1  0
 16 17  1  0
 19 25  1  0
 20 26  1  0
 20 27  1  0
 22 24  1  0
 24 25  1  0
 26 28  1  0
 28 29  1  0
M  END
>  <Classification>  (55) 
1

>  <pchembl>  (55) 
5.43

>  <InChI_steorem>  (55) 
InChI=1S/C25H42O5/c1-14(5-8-22(29)30-4)17-6-7-18-23-19(13-21(28)25(17,18)3)24(2)10-9-16(26)11-15(24)12-20(23)27/h14-21,23,26-28H,5-13H2,1-4H3

>  <source>  (55) 
ChEMBL25

>  <source_id>  (55) 
25

>  <optional_reference>  (55) 
10.1124/mol.112.084152

>  <optional_origin>  (55) 
None

>  <target>  (55) 
OATP1B3

$$$$

     RDKit          2D

 42 48  0  0  0  0  0  0  0  0999 V2000
    6.1583   -4.4125    0.0000 C   0  0  0  0  0  0  0  0  0  0  0  0
    5.4500   -4.8292    0.0000 C   0  0  0  0  0  0  0  0  0  0  0  0
    5.4458   -5.6500    0.0000 C   0  0  0  0  0  0  0  0  0  0  0  0
    6.1542   -6.0667    0.0000 C   0  0  0  0  0  0  0  0  0  0  0  0
    6.8750   -4.8250    0.0000 C   0  0  0  0  0  0  0  0  0  0  0  0
    6.8750   -5.6583    0.0000 C   0  0  0  0  0  0  0  0  0  0  0  0
    4.7333   -3.5917    0.0000 C   0  0  0  0  0  0  0  0  0  0  0  0
    4.7333   -1.9417    0.0000 C   0  0  0  0  0  0  0  0  0  0  0  0
    4.0250   -3.1792    0.0000 C   0  0  0  0  0  0  0  0  0  0  0  0
    4.0250   -2.3542    0.0000 C   0  0  0  0  0  0  0  0  0  0  0  0
    5.4458   -3.1792    0.0000 O   0  0  0  0  0  0  0  0  0  0  0  0
    4.7333   -4.4167    0.0000 O   0  0  0  0  0  0  0  0  0  0  0  0
    7.5875   -6.0708    0.0000 C   0  0  0  0  0  0  0  0  0  0  0  0
    5.4458   -2.3583    0.0000 C   0  0  0  0  0  0  0  0  0  0  0  0
    7.4875   -4.2750    0.0000 C   0  0  0  0  0  0  0  0  0  0  0  0
    4.7375   -1.1167    0.0000 O   0  0  0  0  0  0  0  0  0  0  0  0
    4.7375   -6.0542    0.0000 C   0  0  0  0  0  0  0  0  0  0  0  0
    6.1542   -6.8833    0.0000 C   0  0  0  0  0  0  0  0  0  0  0  0
    9.0083   -6.9042    0.0000 C   0  0  0  0  0  0  0  0  0  0  0  0
    7.1542   -3.5208    0.0000 O   0  0  0  0  0  0  0  0  0  0  0  0
    6.3333   -3.6083    0.0000 C   0  0  0  0  0  0  0  0  0  0  0  0
    8.2875   -7.3083    0.0000 C   0  0  0  0  0  0  0  0  0  0  0  0
    9.0125   -6.0792    0.0000 C   0  0  0  0  0  0  0  0  0  0  0  0
    5.4417   -7.2875    0.0000 C   0  0  0  0  0  0  0  0  0  0  0  0
    4.7333   -6.8792    0.0000 C   0  0  0  0  0  0  0  0  0  0  0  0
    7.5792   -6.8958    0.0000 C   0  0  0  0  0  0  0  0  0  0  0  0
    8.3000   -5.6583    0.0000 C   0  0  0  0  0  0  0  0  0  0  0  0
    6.1708   -1.1333    0.0000 O   0  0  0  0  0  0  0  0  0  0  0  0
    5.4583   -0.7125    0.0000 C   0  0  0  0  0  0  0  0  0  0  0  0
    4.1250   -7.4250    0.0000 O   0  0  0  0  0  0  0  0  0  0  0  0
    5.2708   -8.0917    0.0000 O   0  0  0  0  0  0  0  0  0  0  0  0
    6.1583   -1.9583    0.0000 C   0  0  0  0  0  0  0  0  0  0  0  0
    4.4542   -8.1750    0.0000 C   0  0  0  0  0  0  0  0  0  0  0  0
    8.2958   -4.4458    0.0000 O   0  0  0  0  0  0  0  0  0  0  0  0
    3.3083   -3.5958    0.0000 O   0  0  0  0  0  0  0  0  0  0  0  0
    3.3083   -1.9458    0.0000 O   0  0  0  0  0  0  0  0  0  0  0  0
    9.7208   -7.3208    0.0000 O   0  0  0  0  0  0  0  0  0  0  0  0
    9.7292   -5.6708    0.0000 O   0  0  0  0  0  0  0  0  0  0  0  0
    8.2833   -8.1333    0.0000 O   0  0  0  0  0  0  0  0  0  0  0  0
    5.4708    0.1125    0.0000 C   0  0  0  0  0  0  0  0  0  0  0  0
    7.5667   -8.5417    0.0000 C   0  0  0  0  0  0  0  0  0  0  0  0
   10.4417   -6.0875    0.0000 C   0  0  0  0  0  0  0  0  0  0  0  0
  2  1  1  0
  3  2  1  0
  4  6  1  0
  5  1  1  0
  6  5  1  0
  7 12  1  0
  8 14  1  0
  9  7  1  0
 10  9  1  0
 11  7  1  0
  2 12  1  0
  6 13  1  0
 14 11  1  0
 15  5  1  0
 16  8  1  0
 17  3  2  0
 18  4  2  0
 19 23  2  0
 20 21  1  0
 21  1  1  0
 22 26  2  0
 23 27  1  0
 24 18  1  0
 25 17  1  0
 26 13  1  0
 27 13  2  0
 28 32  1  0
 29 28  1  0
 30 25  1  0
 31 24  1  0
 32 14  1  0
 33 30  1  0
 34 15  2  0
  9 35  1  0
 10 36  1  0
 37 19  1  0
 38 23  1  0
 39 22  1  0
 29 40  1  0
 41 39  1  0
 42 38  1  0
 20 15  1  0
  3  4  1  0
 25 24  2  0
 19 22  1  0
  8 10  1  0
 31 33  1  0
 16 29  1  0
M  END
>  <Classification>  (56) 
0

>  <pchembl>  (56) 
4.87

>  <InChI_steorem>  (56) 
InChI=1S/C29H32O13/c1-11-36-9-20-27(40-11)24(31)25(32)29(41-20)42-26-14-7-17-16(38-10-39-17)6-13(14)21(22-15(26)8-37-28(22)33)12-4-18(34-2)23(30)19(5-12)35-3/h4-7,11,15,20-22,24-27,29-32H,8-10H2,1-3H3

>  <source>  (56) 
ChEMBL25

>  <source_id>  (56) 
25

>  <optional_reference>  (56) 
10.1016/j.ejmech.2015.01.011

>  <optional_origin>  (56) 
None

>  <target>  (56) 
OATP1B3

$$$$

     RDKit          2D

 60 68  0  0  0  0  0  0  0  0999 V2000
   -1.0316  -15.3055    0.0000 C   0  0  0  0  0  0  0  0  0  0  0  0
   -1.8565  -15.3053    0.0000 C   0  0  0  0  0  0  0  0  0  0  0  0
   -2.2683  -16.0188    0.0000 C   0  0  0  0  0  0  0  0  0  0  0  0
   -0.6170  -16.0122    0.0000 C   0  0  0  0  0  0  0  0  0  0  0  0
   -1.0224  -16.7252    0.0000 C   0  0  0  0  0  0  0  0  0  0  0  0
   -1.8535  -16.7307    0.0000 C   0  0  0  0  0  0  0  0  0  0  0  0
   -2.0987  -17.5193    0.0000 N   0  0  0  0  0  0  0  0  0  0  0  0
   -0.7631  -17.5162    0.0000 C   0  0  0  0  0  0  0  0  0  0  0  0
   -1.4329  -18.0014    0.0000 C   0  0  0  0  0  0  0  0  0  0  0  0
   -1.3440  -18.8216    0.0000 C   0  0  0  0  0  0  0  0  0  0  0  0
   -0.5868  -19.1540    0.0000 C   0  0  0  0  0  0  0  0  0  0  0  0
   -0.0044  -17.8431    0.0000 C   0  0  0  0  0  0  0  0  0  0  0  0
    0.0775  -18.6654    0.0000 C   0  0  0  0  0  0  0  0  0  0  0  0
    0.8302  -19.0028    0.0000 C   0  0  0  0  0  0  0  0  0  0  0  0
    1.5046  -18.5239    0.0000 C   0  0  0  0  0  0  0  0  0  0  0  0
    1.4185  -17.6975    0.0000 C   0  0  0  0  0  0  0  0  0  0  0  0
    0.6660  -17.3579    0.0000 N   0  0  0  0  0  0  0  0  0  0  0  0
    0.3547  -16.4484    0.0000 C   0  0  0  0  0  0  0  0  0  0  0  0
   -0.4347  -16.5298    0.0000 C   0  0  0  0  0  0  0  0  0  0  0  0
    0.0818  -19.4849    0.0000 C   0  0  0  0  0  0  0  0  0  0  0  0
   -0.5773  -19.9790    0.0000 O   0  0  0  0  0  0  0  0  0  0  0  0
    0.8525  -19.9637    0.0000 C   0  0  0  0  0  0  0  0  0  0  0  0
   -1.7015  -19.5553    0.0000 C   0  0  0  0  0  0  0  0  0  0  0  0
   -2.1609  -18.8132    0.0000 O   0  0  0  0  0  0  0  0  0  0  0  0
   -2.8841  -17.7854    0.0000 C   0  0  0  0  0  0  0  0  0  0  0  0
   -3.4974  -17.2389    0.0000 O   0  0  0  0  0  0  0  0  0  0  0  0
   -2.2692  -14.5903    0.0000 O   0  0  0  0  0  0  0  0  0  0  0  0
   -3.0860  -14.5902    0.0000 C   0  0  0  0  0  0  0  0  0  0  0  0
   -2.7069  -11.9490    0.0000 C   0  0  0  0  0  0  0  0  0  0  0  0
   -3.1969  -12.6097    0.0000 C   0  0  0  0  0  0  0  0  0  0  0  0
   -2.8770  -13.3607    0.0000 C   0  0  0  0  0  0  0  0  0  0  0  0
   -1.8875  -12.0419    0.0000 C   0  0  0  0  0  0  0  0  0  0  0  0
   -1.5618  -12.7970    0.0000 C   0  0  0  0  0  0  0  0  0  0  0  0
   -2.0516  -13.4684    0.0000 C   0  0  0  0  0  0  0  0  0  0  0  0
   -1.5712  -14.1329    0.0000 N   0  0  0  0  0  0  0  0  0  0  0  0
   -0.7704  -13.0595    0.0000 C   0  0  0  0  0  0  0  0  0  0  0  0
   -0.7855  -13.8856    0.0000 C   0  0  0  0  0  0  0  0  0  0  0  0
   -0.0762  -14.3056    0.0000 C   0  0  0  0  0  0  0  0  0  0  0  0
    0.6426  -13.9033    0.0000 C   0  0  0  0  0  0  0  0  0  0  0  0
    0.6474  -13.0753    0.0000 C   0  0  0  0  0  0  0  0  0  0  0  0
    1.3742  -12.6821    0.0000 C   0  0  0  0  0  0  0  0  0  0  0  0
    1.3836  -11.8503    0.0000 C   0  0  0  0  0  0  0  0  0  0  0  0
    0.6777  -11.4268    0.0000 C   0  0  0  0  0  0  0  0  0  0  0  0
   -0.0503  -11.8267    0.0000 N   0  0  0  0  0  0  0  0  0  0  0  0
   -1.1911  -12.3393    0.0000 C   0  0  0  0  0  0  0  0  0  0  0  0
   -0.7898  -11.6277    0.0000 C   0  0  0  0  0  0  0  0  0  0  0  0
   -0.0558  -12.6425    0.0000 C   0  0  0  0  0  0  0  0  0  0  0  0
    0.6277  -14.7097    0.0000 C   0  0  0  0  0  0  0  0  0  0  0  0
    0.6314  -15.5242    0.0000 O   0  0  0  0  0  0  0  0  0  0  0  0
    1.3814  -11.0257    0.0000 O   0  0  0  0  0  0  0  0  0  0  0  0
    2.1019  -12.2642    0.0000 C   0  0  0  0  0  0  0  0  0  0  0  0
    2.8135  -11.8530    0.0000 C   0  0  0  0  0  0  0  0  0  0  0  0
    1.3365  -14.3023    0.0000 O   0  0  0  0  0  0  0  0  0  0  0  0
    1.3397  -15.9378    0.0000 C   0  0  0  0  0  0  0  0  0  0  0  0
   -1.2487  -20.2481    0.0000 O   0  0  0  0  0  0  0  0  0  0  0  0
   -2.5314  -19.6072    0.0000 O   0  0  0  0  0  0  0  0  0  0  0  0
   -2.9035  -20.3513    0.0000 C   0  0  0  0  0  0  0  0  0  0  0  0
    0.1513  -20.3843    0.0000 C   0  0  0  0  0  0  0  0  0  0  0  0
    0.1568  -21.2159    0.0000 O   0  0  0  0  0  0  0  0  0  0  0  0
    0.9751  -20.3839    0.0000 C   0  0  0  0  0  0  0  0  0  0  0  0
  2 27  1  0
 27 28  1  0
  1  2  2  0
  2  3  1  0
  3  6  2  0
  5  4  2  0
  4  1  1  0
  5  6  1  0
  6  7  1  0
  7  9  1  0
  8  5  1  0
  8  9  1  0
  8 12  1  0
  9 10  1  0
 10 11  1  0
 11 13  1  0
 12 13  1  0
 12 17  1  0
 13 14  1  0
 14 15  2  0
 15 16  1  0
 16 17  1  0
 17 18  1  0
 18 19  1  0
  8 19  1  0
 13 20  1  0
 20 22  1  0
 29 30  2  0
 30 31  1  0
 31 34  2  0
 33 32  2  0
 32 29  1  0
 33 34  1  0
 34 35  1  0
 35 37  1  0
 36 33  1  0
 36 37  2  0
 37 38  1  0
 38 39  1  0
 39 40  1  0
 47 40  1  0
 40 41  1  0
 41 42  1  0
 42 43  1  0
 43 44  1  0
 36 45  1  0
 45 46  1  0
 44 46  1  0
 44 47  1  0
 38 48  1  0
 48 49  1  0
 42 50  1  0
 42 51  1  0
 51 52  1  0
 48 53  2  0
 49 54  1  0
  1 38  1  0
 11 21  1  0
 23 55  2  0
 10 23  1  0
 23 56  1  0
 10 24  1  0
 56 57  1  0
 21 58  1  0
  7 25  1  0
 58 59  2  0
 25 26  2  0
 58 60  1  0
M  END
>  <Classification>  (57) 
0

>  <pchembl>  (57) 
4.96

>  <InChI_steorem>  (57) 
InChI=1S/C46H56N4O10/c1-7-42(55)22-28-23-45(40(53)58-5,36-30(14-18-48(24-28)25-42)29-12-9-10-13-33(29)47-36)32-20-31-34(21-35(32)57-4)50(26-51)38-44(31)16-19-49-17-11-15-43(8-2,37(44)49)39(60-27(3)52)46(38,56)41(54)59-6/h9-13,15,20-21,26,28,37-39,47,55-56H,7-8,14,16-19,22-25H2,1-6H3

>  <source>  (57) 
ChEMBL25

>  <source_id>  (57) 
25

>  <optional_reference>  (57) 
10.1021/jm300212s

>  <optional_origin>  (57) 
None

>  <target>  (57) 
OATP1B3

$$$$

     RDKit          2D

 29 31  0  0  0  0  0  0  0  0999 V2000
    7.5395   -1.3388    0.0000 C   0  0  0  0  0  0  0  0  0  0  0  0
    6.4990   -0.7409    0.0000 O   0  0  0  0  0  0  0  0  0  0  0  0
    5.2003   -1.4932    0.0000 C   0  0  0  0  0  0  0  0  0  0  0  0
    3.8990   -0.7455    0.0000 C   0  0  0  0  0  0  0  0  0  0  0  0
    2.6003   -1.4977    0.0000 O   0  0  0  0  0  0  0  0  0  0  0  0
    1.2990   -0.7500    0.0000 C   0  0  0  0  0  0  0  0  0  0  0  0
    1.2990    0.7500    0.0000 C   0  0  0  0  0  0  0  0  0  0  0  0
    0.0000    1.5000    0.0000 C   0  0  0  0  0  0  0  0  0  0  0  0
    0.0000    3.0000    0.0000 N   0  0  0  0  0  0  0  0  0  0  0  0
   -1.2991    3.7500    0.0000 C   0  0  0  0  0  0  0  0  0  0  0  0
   -2.5981    3.0000    0.0000 N   0  0  0  0  0  0  0  0  0  0  0  0
   -2.5981    1.5000    0.0000 C   0  0  0  0  0  0  0  0  0  0  0  0
   -3.8994    0.7522    0.0000 N   0  0  0  0  0  0  0  0  0  0  0  0
   -5.1981    1.5045    0.0000 C   0  0  0  0  0  0  0  0  0  0  0  0
   -6.4998    0.7590    0.0000 C   0  0  0  0  0  0  0  0  0  0  0  0
   -7.7962    1.5135    0.0000 C   0  0  0  0  0  0  0  0  0  0  0  0
   -7.7910    3.0135    0.0000 C   0  0  0  0  0  0  0  0  0  0  0  0
   -6.4894    3.7590    0.0000 C   0  0  0  0  0  0  0  0  0  0  0  0
   -5.1930    3.0045    0.0000 C   0  0  0  0  0  0  0  0  0  0  0  0
   -6.4842    5.2598    0.0000 C   0  0  0  0  0  0  0  0  0  0  0  0
   -6.4801    6.4598    0.0000 C   0  0  0  0  0  0  0  0  0  0  0  0
   -1.2990    0.7500    0.0000 C   0  0  0  0  0  0  0  0  0  0  0  0
   -1.2990   -0.7500    0.0000 C   0  0  0  0  0  0  0  0  0  0  0  0
    0.0000   -1.5000    0.0000 C   0  0  0  0  0  0  0  0  0  0  0  0
   -0.0031   -3.0008    0.0000 O   0  0  0  0  0  0  0  0  0  0  0  0
   -1.3039   -3.7494    0.0000 C   0  0  0  0  0  0  0  0  0  0  0  0
   -1.3070   -5.2502    0.0000 C   0  0  0  0  0  0  0  0  0  0  0  0
   -2.6078   -5.9988    0.0000 O   0  0  0  0  0  0  0  0  0  0  0  0
   -2.6103   -7.1988    0.0000 C   0  0  0  0  0  0  0  0  0  0  0  0
  1  2  1  0
  2  3  1  0
  3  4  1  0
  4  5  1  0
  5  6  1  0
  6  7  2  0
  7  8  1  0
  8  9  2  0
  9 10  1  0
 10 11  2  0
 11 12  1  0
 12 13  1  0
 13 14  1  0
 14 15  2  0
 15 16  1  0
 16 17  2  0
 17 18  1  0
 18 19  2  0
 19 14  1  0
 18 20  1  0
 20 21  3  0
 12 22  2  0
 22  8  1  0
 22 23  1  0
 23 24  2  0
 24  6  1  0
 24 25  1  0
 25 26  1  0
 26 27  1  0
 27 28  1  0
 28 29  1  0
M  END
>  <Classification>  (58) 
0

>  <pchembl>  (58) 
4.36

>  <InChI_steorem>  (58) 
InChI=1S/C22H23N3O4/c1-4-16-6-5-7-17(12-16)25-22-18-13-20(28-10-8-26-2)21(29-11-9-27-3)14-19(18)23-15-24-22/h1,5-7,12-15H,8-11H2,2-3H3,(H,23,24,25)

>  <source>  (58) 
ChEMBL25

>  <source_id>  (58) 
25

>  <optional_reference>  (58) 
10.1021/jm300212s

>  <optional_origin>  (58) 
None

>  <target>  (58) 
OATP1B3

$$$$

     RDKit          2D

 85 85  0  0  0  0  0  0  0  0999 V2000
    2.7490    9.6727    0.0000 C   0  0  0  0  0  0  0  0  0  0  0  0
    3.4920    8.7304    0.0000 C   0  0  0  0  0  0  0  0  0  0  0  0
    2.9324    7.3249    0.0000 C   0  0  0  0  0  0  0  0  0  0  0  0
    1.4932    7.7475    0.0000 N   0  0  0  0  0  0  0  0  0  0  0  0
    0.0000    7.8901    0.0000 C   0  0  0  0  0  0  0  0  0  0  0  0
    0.0000    9.0901    0.0000 O   0  0  0  0  0  0  0  0  0  0  0  0
   -1.4932    7.7475    0.0000 C   0  0  0  0  0  0  0  0  0  0  0  0
   -1.7775    9.2333    0.0000 C   0  0  0  0  0  0  0  0  0  0  0  0
   -0.8692   10.0176    0.0000 O   0  0  0  0  0  0  0  0  0  0  0  0
   -3.1947    9.7271    0.0000 C   0  0  0  0  0  0  0  0  0  0  0  0
   -4.1030    8.9428    0.0000 C   0  0  0  0  0  0  0  0  0  0  0  0
   -3.4767   11.2012    0.0000 C   0  0  0  0  0  0  0  0  0  0  0  0
   -4.8940   11.6949    0.0000 C   0  0  0  0  0  0  0  0  0  0  0  0
   -5.1760   13.1690    0.0000 C   0  0  0  0  0  0  0  0  0  0  0  0
   -6.3092   13.5638    0.0000 C   0  0  0  0  0  0  0  0  0  0  0  0
   -2.9325    7.3249    0.0000 N   0  0  0  0  0  0  0  0  0  0  0  0
   -3.3785    8.4389    0.0000 C   0  0  0  0  0  0  0  0  0  0  0  0
   -4.2657    6.6375    0.0000 C   0  0  0  0  0  0  0  0  0  0  0  0
   -4.9145    7.6470    0.0000 O   0  0  0  0  0  0  0  0  0  0  0  0
   -5.4448    5.7103    0.0000 C   0  0  0  0  0  0  0  0  0  0  0  0
   -6.4866    6.8071    0.0000 C   0  0  0  0  0  0  0  0  0  0  0  0
   -6.1470    7.9581    0.0000 C   0  0  0  0  0  0  0  0  0  0  0  0
   -7.6532    6.5261    0.0000 C   0  0  0  0  0  0  0  0  0  0  0  0
   -6.4271    4.5767    0.0000 N   0  0  0  0  0  0  0  0  0  0  0  0
   -7.4046    5.2727    0.0000 C   0  0  0  0  0  0  0  0  0  0  0  0
   -7.1771    3.2776    0.0000 C   0  0  0  0  0  0  0  0  0  0  0  0
   -8.2687    3.7761    0.0000 O   0  0  0  0  0  0  0  0  0  0  0  0
   -7.6677    1.8601    0.0000 C   0  0  0  0  0  0  0  0  0  0  0  0
   -9.1371    2.2196    0.0000 C   0  0  0  0  0  0  0  0  0  0  0  0
   -9.5580    3.6602    0.0000 C   0  0  0  0  0  0  0  0  0  0  0  0
  -10.7237    3.9454    0.0000 C   0  0  0  0  0  0  0  0  0  0  0  0
   -8.7285    4.5273    0.0000 C   0  0  0  0  0  0  0  0  0  0  0  0
   -7.8812    0.3754    0.0000 N   0  0  0  0  0  0  0  0  0  0  0  0
   -9.0798    0.4325    0.0000 C   0  0  0  0  0  0  0  0  0  0  0  0
   -7.8098   -1.1229    0.0000 C   0  0  0  0  0  0  0  0  0  0  0  0
   -8.9976   -1.2937    0.0000 O   0  0  0  0  0  0  0  0  0  0  0  0
   -7.4561   -2.5806    0.0000 C   0  0  0  0  0  0  0  0  0  0  0  0
   -8.8866   -3.0726    0.0000 C   0  0  0  0  0  0  0  0  0  0  0  0
  -10.0196   -2.0883    0.0000 C   0  0  0  0  0  0  0  0  0  0  0  0
  -11.1543   -2.4786    0.0000 C   0  0  0  0  0  0  0  0  0  0  0  0
   -9.7906   -0.9104    0.0000 C   0  0  0  0  0  0  0  0  0  0  0  0
   -6.8330   -3.9451    0.0000 N   0  0  0  0  0  0  0  0  0  0  0  0
   -7.8722   -4.5451    0.0000 C   0  0  0  0  0  0  0  0  0  0  0  0
   -5.9629   -5.1669    0.0000 C   0  0  0  0  0  0  0  0  0  0  0  0
   -6.8698   -5.9528    0.0000 O   0  0  0  0  0  0  0  0  0  0  0  0
   -4.8773   -6.2020    0.0000 C   0  0  0  0  0  0  0  0  0  0  0  0
   -5.6191   -7.1453    0.0000 C   0  0  0  0  0  0  0  0  0  0  0  0
   -3.6154   -7.0130    0.0000 N   0  0  0  0  0  0  0  0  0  0  0  0
   -2.2229   -7.5705    0.0000 C   0  0  0  0  0  0  0  0  0  0  0  0
   -2.5609   -8.7219    0.0000 O   0  0  0  0  0  0  0  0  0  0  0  0
   -0.7500   -7.8544    0.0000 C   0  0  0  0  0  0  0  0  0  0  0  0
   -0.8640   -9.0489    0.0000 C   0  0  0  0  0  0  0  0  0  0  0  0
    0.7500   -7.8544    0.0000 N   0  0  0  0  0  0  0  0  0  0  0  0
    2.2229   -7.5705    0.0000 C   0  0  0  0  0  0  0  0  0  0  0  0
    2.5610   -8.7219    0.0000 O   0  0  0  0  0  0  0  0  0  0  0  0
    3.6155   -7.0130    0.0000 C   0  0  0  0  0  0  0  0  0  0  0  0
    4.3061   -8.3589    0.0000 C   0  0  0  0  0  0  0  0  0  0  0  0
    3.4930   -9.6204    0.0000 C   0  0  0  0  0  0  0  0  0  0  0  0
    4.0408  -10.6881    0.0000 C   0  0  0  0  0  0  0  0  0  0  0  0
    2.2944   -9.5614    0.0000 C   0  0  0  0  0  0  0  0  0  0  0  0
    4.8773   -6.2020    0.0000 N   0  0  0  0  0  0  0  0  0  0  0  0
    5.6191   -7.1453    0.0000 C   0  0  0  0  0  0  0  0  0  0  0  0
    5.9629   -5.1669    0.0000 C   0  0  0  0  0  0  0  0  0  0  0  0
    6.8698   -5.9527    0.0000 O   0  0  0  0  0  0  0  0  0  0  0  0
    6.8330   -3.9450    0.0000 C   0  0  0  0  0  0  0  0  0  0  0  0
    7.4561   -2.5806    0.0000 N   0  0  0  0  0  0  0  0  0  0  0  0
    7.8098   -1.1229    0.0000 C   0  0  0  0  0  0  0  0  0  0  0  0
    8.9976   -1.2936    0.0000 O   0  0  0  0  0  0  0  0  0  0  0  0
    7.8812    0.3754    0.0000 C   0  0  0  0  0  0  0  0  0  0  0  0
    9.3923    0.4445    0.0000 C   0  0  0  0  0  0  0  0  0  0  0  0
   10.2021   -0.8191    0.0000 C   0  0  0  0  0  0  0  0  0  0  0  0
   11.4008   -0.7644    0.0000 C   0  0  0  0  0  0  0  0  0  0  0  0
    9.6505   -1.8848    0.0000 C   0  0  0  0  0  0  0  0  0  0  0  0
    7.6677    1.8602    0.0000 N   0  0  0  0  0  0  0  0  0  0  0  0
    8.8339    2.1431    0.0000 C   0  0  0  0  0  0  0  0  0  0  0  0
    7.1771    3.2777    0.0000 C   0  0  0  0  0  0  0  0  0  0  0  0
    8.2686    3.7762    0.0000 O   0  0  0  0  0  0  0  0  0  0  0  0
    6.4271    4.5767    0.0000 C   0  0  0  0  0  0  0  0  0  0  0  0
    5.4448    5.7103    0.0000 N   0  0  0  0  0  0  0  0  0  0  0  0
    6.2729    6.5788    0.0000 C   0  0  0  0  0  0  0  0  0  0  0  0
    4.2657    6.6376    0.0000 C   0  0  0  0  0  0  0  0  0  0  0  0
    4.9145    7.6471    0.0000 O   0  0  0  0  0  0  0  0  0  0  0  0
    8.1416   -4.7039    0.0000 C   0  0  0  0  0  0  0  0  0  0  0  0
    8.1401   -5.9039    0.0000 C   0  0  0  0  0  0  0  0  0  0  0  0
    9.1818   -4.1056    0.0000 C   0  0  0  0  0  0  0  0  0  0  0  0
  1  2  1  0
  3  2  1  0
  3  4  1  0
  4  5  1  0
  5  6  2  0
  7  5  1  0
  7  8  1  0
  8  9  1  0
  8 10  1  0
 10 11  1  0
 10 12  1  0
 12 13  1  0
 13 14  2  3
 14 15  1  0
  7 16  1  0
 16 17  1  0
 16 18  1  0
 18 19  2  0
 18 20  1  0
 20 21  1  0
 21 22  1  0
 21 23  1  0
 20 24  1  0
 24 25  1  0
 24 26  1  0
 26 27  2  0
 26 28  1  0
 28 29  1  0
 29 30  1  0
 30 31  1  0
 30 32  1  0
 28 33  1  0
 33 34  1  0
 33 35  1  0
 35 36  2  0
 35 37  1  0
 37 38  1  0
 38 39  1  0
 39 40  1  0
 39 41  1  0
 37 42  1  0
 42 43  1  0
 42 44  1  0
 44 45  2  0
 44 46  1  0
 46 47  1  0
 46 48  1  0
 48 49  1  0
 49 50  2  0
 49 51  1  0
 51 52  1  0
 51 53  1  0
 53 54  1  0
 54 55  2  0
 54 56  1  0
 56 57  1  0
 57 58  1  0
 58 59  1  0
 58 60  1  0
 56 61  1  0
 61 62  1  0
 61 63  1  0
 63 64  2  0
 63 65  1  0
 65 66  1  0
 66 67  1  0
 67 68  2  0
 67 69  1  0
 69 70  1  0
 70 71  1  0
 71 72  1  0
 71 73  1  0
 69 74  1  0
 74 75  1  0
 74 76  1  0
 76 77  2  0
 76 78  1  0
 78 79  1  0
 79 80  1  0
 79 81  1  0
 81  3  1  0
 81 82  2  0
 65 83  1  0
 83 84  1  0
 83 85  1  0
M  END
>  <Classification>  (59) 
1

>  <pchembl>  (59) 
5.89

>  <InChI_steorem>  (59) 
InChI=1S/C62H111N11O12/c1-25-27-28-40(15)52(75)51-56(79)65-43(26-2)58(81)67(18)33-48(74)68(19)44(29-34(3)4)55(78)66-49(38(11)12)61(84)69(20)45(30-35(5)6)54(77)63-41(16)53(76)64-42(17)57(80)70(21)46(31-36(7)8)59(82)71(22)47(32-37(9)10)60(83)72(23)50(39(13)14)62(85)73(51)24/h25,27,34-47,49-52,75H,26,28-33H2,1-24H3,(H,63,77)(H,64,76)(H,65,79)(H,66,78)

>  <source>  (59) 
ChEMBL25

>  <source_id>  (59) 
25

>  <optional_reference>  (59) 
10.1021/jm300212s

>  <optional_origin>  (59) 
None

>  <target>  (59) 
OATP1B3

$$$$

     RDKit          2D

 62 65  0  0  0  0  0  0  0  0999 V2000
   -7.2029    3.8264    0.0000 C   0  0  0  0  0  0  0  0  0  0  0  0
   -7.4259    2.6473    0.0000 C   0  0  0  0  0  0  0  0  0  0  0  0
   -8.5586    2.2512    0.0000 C   0  0  0  0  0  0  0  0  0  0  0  0
   -6.2900    1.6800    0.0000 C   0  0  0  0  0  0  0  0  0  0  0  0
   -5.0300    2.4100    0.0000 N   0  0  0  0  0  0  0  0  0  0  0  0
   -3.7600    1.6800    0.0000 C   0  0  0  0  0  0  0  0  0  0  0  0
   -3.7538    0.4800    0.0000 O   0  0  0  0  0  0  0  0  0  0  0  0
   -2.5200    2.4100    0.0000 C   0  0  0  0  0  0  0  0  0  0  0  0
   -2.5281    3.9112    0.0000 C   0  0  0  0  0  0  0  0  0  0  0  0
   -3.8314    4.6554    0.0000 C   0  0  0  0  0  0  0  0  0  0  0  0
   -3.8396    6.1562    0.0000 C   0  0  0  0  0  0  0  0  0  0  0  0
   -4.8817    6.7512    0.0000 O   0  0  0  0  0  0  0  0  0  0  0  0
   -2.8035    6.7615    0.0000 C   0  0  0  0  0  0  0  0  0  0  0  0
   -1.2700    1.6800    0.0000 C   0  0  0  0  0  0  0  0  0  0  0  0
   -1.2849    0.4801    0.0000 O   0  0  0  0  0  0  0  0  0  0  0  0
    0.0000    2.3800    0.0000 C   0  0  0  0  0  0  0  0  0  0  0  0
    0.0168    3.5799    0.0000 C   0  0  0  0  0  0  0  0  0  0  0  0
    1.1900    1.6800    0.0000 C   0  0  0  0  0  0  0  0  0  0  0  0
    1.1945    0.4800    0.0000 O   0  0  0  0  0  0  0  0  0  0  0  0
    2.4100    2.4100    0.0000 C   0  0  0  0  0  0  0  0  0  0  0  0
    3.8100    1.6400    0.0000 C   0  0  0  0  0  0  0  0  0  0  0  0
    5.0700    2.3700    0.0000 C   0  0  0  0  0  0  0  0  0  0  0  0
    6.3400    1.6400    0.0000 C   0  0  0  0  0  0  0  0  0  0  0  0
    8.8978    3.1298    0.0000 C   0  0  0  0  0  0  0  0  0  0  0  0
    5.0700   -2.0200    0.0000 C   0  0  0  0  0  0  0  0  0  0  0  0
    3.8100   -1.2100    0.0000 O   0  0  0  0  0  0  0  0  0  0  0  0
    2.3400   -1.8900    0.0000 C   0  0  0  0  0  0  0  0  0  0  0  0
    2.3030   -3.0894    0.0000 O   0  0  0  0  0  0  0  0  0  0  0  0
    1.2100   -1.2800    0.0000 C   0  0  0  0  0  0  0  0  0  0  0  0
    1.2100    0.2000    0.0000 C   0  0  0  0  0  0  0  0  0  0  0  0
    0.0000    0.9400    0.0000 C   0  0  0  0  0  0  0  0  0  0  0  0
   -1.3100    0.2000    0.0000 C   0  0  0  0  0  0  0  0  0  0  0  0
   -1.3000   -1.3000    0.0000 N   0  0  0  0  0  0  0  0  0  0  0  0
    0.0000   -2.0200    0.0000 N   0  0  0  0  0  0  0  0  0  0  0  0
   -2.5400   -1.9300    0.0000 C   0  0  0  0  0  0  0  0  0  0  0  0
   -2.5558   -3.1299    0.0000 O   0  0  0  0  0  0  0  0  0  0  0  0
   -3.7400   -1.2800    0.0000 C   0  0  0  0  0  0  0  0  0  0  0  0
   -3.7060    0.2219    0.0000 C   0  0  0  0  0  0  0  0  0  0  0  0
   -2.3898    0.9430    0.0000 C   0  0  0  0  0  0  0  0  0  0  0  0
   -2.3534    2.4426    0.0000 C   0  0  0  0  0  0  0  0  0  0  0  0
   -1.0367    3.1610    0.0000 C   0  0  0  0  0  0  0  0  0  0  0  0
   -1.0077    4.3607    0.0000 O   0  0  0  0  0  0  0  0  0  0  0  0
    0.2439    2.3799    0.0000 C   0  0  0  0  0  0  0  0  0  0  0  0
    0.2077    0.8803    0.0000 C   0  0  0  0  0  0  0  0  0  0  0  0
    1.2321    0.2554    0.0000 F   0  0  0  0  0  0  0  0  0  0  0  0
   -1.1091    0.1619    0.0000 C   0  0  0  0  0  0  0  0  0  0  0  0
   -5.0300   -1.9800    0.0000 N   0  0  0  0  0  0  0  0  0  0  0  0
   -6.2900   -1.2800    0.0000 C   0  0  0  0  0  0  0  0  0  0  0  0
   -7.3242   -1.8886    0.0000 O   0  0  0  0  0  0  0  0  0  0  0  0
    5.0289   -3.5202    0.0000 C   0  0  0  0  0  0  0  0  0  0  0  0
    3.7097   -4.2358    0.0000 C   0  0  0  0  0  0  0  0  0  0  0  0
    3.6689   -5.7361    0.0000 C   0  0  0  0  0  0  0  0  0  0  0  0
    2.3496   -6.4517    0.0000 C   0  0  0  0  0  0  0  0  0  0  0  0
    2.3088   -7.9520    0.0000 C   0  0  0  0  0  0  0  0  0  0  0  0
    3.3316   -8.5797    0.0000 O   0  0  0  0  0  0  0  0  0  0  0  0
    0.9896   -8.6676    0.0000 N   0  0  0  0  0  0  0  0  0  0  0  0
    0.9466  -10.1670    0.0000 C   0  0  0  0  0  0  0  0  0  0  0  0
   -0.3733  -10.8795    0.0000 C   0  0  0  0  0  0  0  0  0  0  0  0
   -1.6504  -10.0927    0.0000 C   0  0  0  0  0  0  0  0  0  0  0  0
   -1.6075   -8.5933    0.0000 C   0  0  0  0  0  0  0  0  0  0  0  0
   -0.2876   -7.8808    0.0000 O   0  0  0  0  0  0  0  0  0  0  0  0
    6.0516   -4.1479    0.0000 C   0  0  0  0  0  0  0  0  0  0  0  0
  1  2  1  0
  2  3  1  0
  4  2  1  0
  4  5  1  0
  5  6  1  0
  6  7  2  0
  6  8  1  0
  8  9  1  0
  9 10  1  0
 10 11  1  0
 11 12  2  0
 11 13  1  0
  8 14  1  0
 14 15  1  0
 14 16  1  0
 16 17  1  0
 16 18  1  0
 18 19  1  0
 18 20  1  0
 20 21  2  0
 21 22  1  0
 22 23  2  0
 23 24  1  0
 24 25  1  0
 25 26  1  0
 26 27  1  0
 27 28  2  0
 27 29  1  0
 29 30  1  0
 30 31  1  0
 31 32  1  0
 32 33  1  0
 33 34  1  0
 34 29  1  0
 33 35  1  0
 35 36  2  0
 35 37  1  0
 37 38  1  0
 38 39  1  0
 39 40  2  0
 40 41  1  0
 41 42  1  0
 41 43  2  0
 43 44  1  0
 44 45  1  0
 44 46  2  0
 46 39  1  0
 37 47  1  0
 47 48  1  0
 48  4  1  0
 48 49  2  0
 25 50  1  0
 50 51  2  3
 51 52  1  0
 52 53  2  3
 53 54  1  0
 54 55  2  0
 54 56  1  0
 56 57  1  0
 57 58  1  0
 58 59  1  0
 59 60  1  0
 60 61  1  0
 61 56  1  0
 50 62  1  0
M  END
>  <Classification>  (60) 
1

>  <pchembl>  (60) 
5.75

>  <InChI_steorem>  (60) 
InChI=1S/C45H62FN5O11/c1-27(2)40-43(58)47-36(25-31-23-32(46)26-33(53)24-31)44(59)50-20-12-14-35(49-50)45(60)62-38(28(3)13-11-17-39(55)51-21-9-10-22-61-51)16-8-6-7-15-37(54)30(5)41(56)34(42(57)48-40)19-18-29(4)52/h6-8,11,13,15,17,23-24,26-27,30,34-38,40-41,49,53-54,56H,9-10,12,14,16,18-22,25H2,1-5H3,(H,47,58)(H,48,57)

>  <source>  (60) 
ChEMBL25

>  <source_id>  (60) 
25

>  <optional_reference>  (60) 
None

>  <optional_origin>  (60) 
None

>  <target>  (60) 
OATP1B3

$$$$

     RDKit          2D

 20 22  0  0  0  0  0  0  0  0999 V2000
    6.2328   -3.6062    0.0000 O   0  0  0  0  0  0  0  0  0  0  0  0
    5.1945   -3.0045    0.0000 C   0  0  0  0  0  0  0  0  0  0  0  0
    5.1969   -1.5045    0.0000 C   0  0  0  0  0  0  0  0  0  0  0  0
    3.8991   -0.7525    0.0000 C   0  0  0  0  0  0  0  0  0  0  0  0
    2.5987   -1.5004    0.0000 C   0  0  0  0  0  0  0  0  0  0  0  0
    2.5965   -3.0004    0.0000 C   0  0  0  0  0  0  0  0  0  0  0  0
    3.8943   -3.7525    0.0000 C   0  0  0  0  0  0  0  0  0  0  0  0
    1.2990   -0.7500    0.0000 C   0  0  0  0  0  0  0  0  0  0  0  0
    1.2990    0.7500    0.0000 C   0  0  0  0  0  0  0  0  0  0  0  0
    0.0000    1.5000    0.0000 O   0  0  0  0  0  0  0  0  0  0  0  0
   -1.2990    0.7500    0.0000 C   0  0  0  0  0  0  0  0  0  0  0  0
   -2.5981    1.5000    0.0000 C   0  0  0  0  0  0  0  0  0  0  0  0
   -3.8971    0.7500    0.0000 C   0  0  0  0  0  0  0  0  0  0  0  0
   -4.9364    1.3500    0.0000 O   0  0  0  0  0  0  0  0  0  0  0  0
   -3.8971   -0.7500    0.0000 C   0  0  0  0  0  0  0  0  0  0  0  0
   -2.5981   -1.5000    0.0000 C   0  0  0  0  0  0  0  0  0  0  0  0
   -2.5981   -2.7000    0.0000 O   0  0  0  0  0  0  0  0  0  0  0  0
   -1.2990   -0.7500    0.0000 C   0  0  0  0  0  0  0  0  0  0  0  0
    0.0000   -1.5000    0.0000 C   0  0  0  0  0  0  0  0  0  0  0  0
    0.0000   -2.7000    0.0000 O   0  0  0  0  0  0  0  0  0  0  0  0
  1  2  1  0
  2  3  2  0
  3  4  1  0
  4  5  2  0
  5  6  1  0
  6  7  2  0
  7  2  1  0
  5  8  1  0
  8  9  2  0
  9 10  1  0
 10 11  1  0
 11 12  2  0
 12 13  1  0
 13 14  1  0
 13 15  2  0
 15 16  1  0
 16 17  1  0
 16 18  2  0
 18 11  1  0
 18 19  1  0
 19  8  1  0
 19 20  2  0
M  END
>  <Classification>  (61) 
1

>  <pchembl>  (61) 
5.41

>  <InChI_steorem>  (61) 
InChI=1S/C15H10O5/c16-9-3-1-8(2-4-9)11-7-20-13-6-10(17)5-12(18)14(13)15(11)19/h1-7,16-18H

>  <source>  (61) 
ChEMBL25

>  <source_id>  (61) 
25

>  <optional_reference>  (61) 
10.1124/mol.112.084152

>  <optional_origin>  (61) 
None

>  <target>  (61) 
OATP1B3

$$$$

     RDKit          2D

 86 86  0  0  0  0  0  0  0  0999 V2000
    2.7490    9.6727    0.0000 C   0  0  0  0  0  0  0  0  0  0  0  0
    3.4920    8.7304    0.0000 C   0  0  0  0  0  0  0  0  0  0  0  0
    2.9324    7.3249    0.0000 C   0  0  0  0  0  0  0  0  0  0  0  0
    1.4932    7.7475    0.0000 N   0  0  0  0  0  0  0  0  0  0  0  0
    0.0000    7.8901    0.0000 C   0  0  0  0  0  0  0  0  0  0  0  0
    0.0000    9.0901    0.0000 O   0  0  0  0  0  0  0  0  0  0  0  0
   -1.4932    7.7475    0.0000 C   0  0  0  0  0  0  0  0  0  0  0  0
   -1.7824    9.2323    0.0000 C   0  0  0  0  0  0  0  0  0  0  0  0
   -0.8768   10.0197    0.0000 O   0  0  0  0  0  0  0  0  0  0  0  0
   -3.2013    9.7213    0.0000 C   0  0  0  0  0  0  0  0  0  0  0  0
   -4.1070    8.9340    0.0000 C   0  0  0  0  0  0  0  0  0  0  0  0
   -3.4882   11.1945    0.0000 C   0  0  0  0  0  0  0  0  0  0  0  0
   -4.9072   11.6835    0.0000 C   0  0  0  0  0  0  0  0  0  0  0  0
   -5.1941   13.1566    0.0000 C   0  0  0  0  0  0  0  0  0  0  0  0
   -6.3286   13.5476    0.0000 C   0  0  0  0  0  0  0  0  0  0  0  0
   -2.9325    7.3249    0.0000 N   0  0  0  0  0  0  0  0  0  0  0  0
   -3.3785    8.4389    0.0000 C   0  0  0  0  0  0  0  0  0  0  0  0
   -4.2657    6.6375    0.0000 C   0  0  0  0  0  0  0  0  0  0  0  0
   -4.9145    7.6470    0.0000 O   0  0  0  0  0  0  0  0  0  0  0  0
   -5.4448    5.7103    0.0000 C   0  0  0  0  0  0  0  0  0  0  0  0
   -6.4908    6.8031    0.0000 C   0  0  0  0  0  0  0  0  0  0  0  0
   -7.6566    6.5187    0.0000 C   0  0  0  0  0  0  0  0  0  0  0  0
   -6.1546    7.9550    0.0000 C   0  0  0  0  0  0  0  0  0  0  0  0
   -6.4271    4.5767    0.0000 N   0  0  0  0  0  0  0  0  0  0  0  0
   -7.4046    5.2727    0.0000 C   0  0  0  0  0  0  0  0  0  0  0  0
   -7.1771    3.2776    0.0000 C   0  0  0  0  0  0  0  0  0  0  0  0
   -8.2687    3.7761    0.0000 O   0  0  0  0  0  0  0  0  0  0  0  0
   -7.6677    1.8601    0.0000 C   0  0  0  0  0  0  0  0  0  0  0  0
   -9.1385    2.2139    0.0000 C   0  0  0  0  0  0  0  0  0  0  0  0
  -10.1727    1.1264    0.0000 C   0  0  0  0  0  0  0  0  0  0  0  0
  -11.3395    1.4070    0.0000 C   0  0  0  0  0  0  0  0  0  0  0  0
   -9.8328   -0.0245    0.0000 C   0  0  0  0  0  0  0  0  0  0  0  0
   -7.8812    0.3754    0.0000 N   0  0  0  0  0  0  0  0  0  0  0  0
   -9.0798    0.4325    0.0000 C   0  0  0  0  0  0  0  0  0  0  0  0
   -7.8098   -1.1229    0.0000 C   0  0  0  0  0  0  0  0  0  0  0  0
   -8.9976   -1.2937    0.0000 O   0  0  0  0  0  0  0  0  0  0  0  0
   -7.4561   -2.5806    0.0000 C   0  0  0  0  0  0  0  0  0  0  0  0
   -8.8847   -3.0782    0.0000 C   0  0  0  0  0  0  0  0  0  0  0  0
   -9.1668   -4.5522    0.0000 C   0  0  0  0  0  0  0  0  0  0  0  0
  -10.3000   -4.9469    0.0000 C   0  0  0  0  0  0  0  0  0  0  0  0
   -8.2586   -5.3366    0.0000 C   0  0  0  0  0  0  0  0  0  0  0  0
   -6.8330   -3.9451    0.0000 N   0  0  0  0  0  0  0  0  0  0  0  0
   -7.8722   -4.5451    0.0000 C   0  0  0  0  0  0  0  0  0  0  0  0
   -5.9629   -5.1669    0.0000 C   0  0  0  0  0  0  0  0  0  0  0  0
   -6.8698   -5.9528    0.0000 O   0  0  0  0  0  0  0  0  0  0  0  0
   -4.8773   -6.2020    0.0000 C   0  0  0  0  0  0  0  0  0  0  0  0
   -5.6191   -7.1453    0.0000 C   0  0  0  0  0  0  0  0  0  0  0  0
   -3.6154   -7.0130    0.0000 N   0  0  0  0  0  0  0  0  0  0  0  0
   -2.2229   -7.5705    0.0000 C   0  0  0  0  0  0  0  0  0  0  0  0
   -2.5609   -8.7219    0.0000 O   0  0  0  0  0  0  0  0  0  0  0  0
   -0.7500   -7.8544    0.0000 C   0  0  0  0  0  0  0  0  0  0  0  0
   -0.8640   -9.0489    0.0000 C   0  0  0  0  0  0  0  0  0  0  0  0
    0.7500   -7.8544    0.0000 N   0  0  0  0  0  0  0  0  0  0  0  0
    2.2229   -7.5705    0.0000 C   0  0  0  0  0  0  0  0  0  0  0  0
    2.5610   -8.7219    0.0000 O   0  0  0  0  0  0  0  0  0  0  0  0
    3.6155   -7.0130    0.0000 C   0  0  0  0  0  0  0  0  0  0  0  0
    4.3112   -8.3562    0.0000 C   0  0  0  0  0  0  0  0  0  0  0  0
    5.8105   -8.4257    0.0000 C   0  0  0  0  0  0  0  0  0  0  0  0
    6.3624   -9.4912    0.0000 C   0  0  0  0  0  0  0  0  0  0  0  0
    6.4576   -7.4151    0.0000 C   0  0  0  0  0  0  0  0  0  0  0  0
    4.8773   -6.2020    0.0000 N   0  0  0  0  0  0  0  0  0  0  0  0
    5.6191   -7.1453    0.0000 C   0  0  0  0  0  0  0  0  0  0  0  0
    5.9629   -5.1669    0.0000 C   0  0  0  0  0  0  0  0  0  0  0  0
    6.8698   -5.9527    0.0000 O   0  0  0  0  0  0  0  0  0  0  0  0
    6.8330   -3.9450    0.0000 C   0  0  0  0  0  0  0  0  0  0  0  0
    7.4561   -2.5806    0.0000 N   0  0  0  0  0  0  0  0  0  0  0  0
    7.8098   -1.1229    0.0000 C   0  0  0  0  0  0  0  0  0  0  0  0
    8.9976   -1.2936    0.0000 O   0  0  0  0  0  0  0  0  0  0  0  0
    7.8812    0.3754    0.0000 C   0  0  0  0  0  0  0  0  0  0  0  0
    9.3920    0.4503    0.0000 C   0  0  0  0  0  0  0  0  0  0  0  0
    9.9405    1.5177    0.0000 C   0  0  0  0  0  0  0  0  0  0  0  0
   10.0425   -0.5581    0.0000 C   0  0  0  0  0  0  0  0  0  0  0  0
    7.6677    1.8602    0.0000 N   0  0  0  0  0  0  0  0  0  0  0  0
    9.1371    2.2196    0.0000 C   0  0  0  0  0  0  0  0  0  0  0  0
    9.4737    3.3715    0.0000 C   0  0  0  0  0  0  0  0  0  0  0  0
    7.1771    3.2777    0.0000 C   0  0  0  0  0  0  0  0  0  0  0  0
    8.2686    3.7762    0.0000 O   0  0  0  0  0  0  0  0  0  0  0  0
    6.4271    4.5767    0.0000 C   0  0  0  0  0  0  0  0  0  0  0  0
    7.4046    5.2728    0.0000 C   0  0  0  0  0  0  0  0  0  0  0  0
    5.4448    5.7103    0.0000 N   0  0  0  0  0  0  0  0  0  0  0  0
    6.2729    6.5788    0.0000 C   0  0  0  0  0  0  0  0  0  0  0  0
    4.2657    6.6376    0.0000 C   0  0  0  0  0  0  0  0  0  0  0  0
    4.9145    7.6471    0.0000 O   0  0  0  0  0  0  0  0  0  0  0  0
    8.1446   -4.6989    0.0000 C   0  0  0  0  0  0  0  0  0  0  0  0
    9.1830   -4.0975    0.0000 C   0  0  0  0  0  0  0  0  0  0  0  0
    8.1465   -5.8989    0.0000 C   0  0  0  0  0  0  0  0  0  0  0  0
  1  2  1  0
  2  3  1  0
  3  4  1  0
  4  5  1  0
  5  6  2  0
  5  7  1  0
  7  8  1  0
  8  9  1  0
  8 10  1  0
 10 11  1  0
 10 12  1  0
 12 13  1  0
 13 14  2  3
 14 15  1  0
  7 16  1  0
 16 17  1  0
 16 18  1  0
 18 19  2  0
 18 20  1  0
 20 21  1  0
 21 22  1  0
 21 23  1  0
 20 24  1  0
 24 25  1  0
 24 26  1  0
 26 27  2  0
 26 28  1  0
 28 29  1  0
 29 30  1  0
 30 31  1  0
 30 32  1  0
 28 33  1  0
 33 34  1  0
 33 35  1  0
 35 36  2  0
 35 37  1  0
 37 38  1  0
 38 39  1  0
 39 40  1  0
 39 41  1  0
 37 42  1  0
 42 43  1  0
 42 44  1  0
 44 45  2  0
 44 46  1  0
 46 47  1  0
 46 48  1  0
 48 49  1  0
 49 50  2  0
 49 51  1  0
 51 52  1  0
 51 53  1  0
 53 54  1  0
 54 55  2  0
 54 56  1  0
 56 57  1  0
 57 58  1  0
 58 59  1  0
 58 60  1  0
 56 61  1  0
 61 62  1  0
 61 63  1  0
 63 64  2  0
 63 65  1  0
 65 66  1  0
 66 67  1  0
 67 68  2  0
 67 69  1  0
 69 70  1  0
 70 71  1  0
 70 72  1  0
 69 73  1  0
 73 74  1  0
 74 75  1  0
 73 76  1  0
 76 77  2  0
 76 78  1  0
 78 79  1  0
 78 80  1  0
 80 81  1  0
 80 82  1  0
 82  3  1  0
 82 83  2  0
 65 84  1  0
 84 85  1  0
 84 86  1  0
M  END
>  <Classification>  (62) 
1

>  <pchembl>  (62) 
6.72

>  <InChI_steorem>  (62) 
InChI=1S/C63H113N11O12/c1-26-29-30-40(16)52(75)51-56(79)66-44(27-2)59(82)68(20)43(19)58(81)74(28-3)49(38(12)13)55(78)67-48(37(10)11)62(85)69(21)45(31-34(4)5)54(77)64-41(17)53(76)65-42(18)57(80)70(22)46(32-35(6)7)60(83)71(23)47(33-36(8)9)61(84)72(24)50(39(14)15)63(86)73(51)25/h26,29,34-52,75H,27-28,30-33H2,1-25H3,(H,64,77)(H,65,76)(H,66,79)(H,67,78)

>  <source>  (62) 
ChEMBL25

>  <source_id>  (62) 
25

>  <optional_reference>  (62) 
None

>  <optional_origin>  (62) 
None

>  <target>  (62) 
OATP1B3

$$$$

     RDKit          2D

 25 27  0  0  0  0  0  0  0  0999 V2000
    2.5956   -2.7031    0.0000 C   0  0  0  0  0  0  0  0  0  0  0  0
    2.5973   -1.5031    0.0000 O   0  0  0  0  0  0  0  0  0  0  0  0
    1.2990   -0.7500    0.0000 C   0  0  0  0  0  0  0  0  0  0  0  0
    1.2990    0.7500    0.0000 C   0  0  0  0  0  0  0  0  0  0  0  0
    0.0000    1.5000    0.0000 C   0  0  0  0  0  0  0  0  0  0  0  0
   -1.2990    0.7500    0.0000 C   0  0  0  0  0  0  0  0  0  0  0  0
   -1.2990   -0.7500    0.0000 C   0  0  0  0  0  0  0  0  0  0  0  0
    0.0000   -1.5000    0.0000 C   0  0  0  0  0  0  0  0  0  0  0  0
   -2.7248   -1.2135    0.0000 C   0  0  0  0  0  0  0  0  0  0  0  0
   -3.1904   -2.6376    0.0000 C   0  0  0  0  0  0  0  0  0  0  0  0
   -4.6588   -2.9478    0.0000 C   0  0  0  0  0  0  0  0  0  0  0  0
   -5.0318   -4.0884    0.0000 O   0  0  0  0  0  0  0  0  0  0  0  0
   -5.4604   -2.0548    0.0000 O   0  0  0  0  0  0  0  0  0  0  0  0
   -3.6065    0.0000    0.0000 C   0  0  0  0  0  0  0  0  0  0  0  0
   -4.8065    0.0000    0.0000 C   0  0  0  0  0  0  0  0  0  0  0  0
   -2.7248    1.2135    0.0000 N   0  0  0  0  0  0  0  0  0  0  0  0
   -3.1905    2.6376    0.0000 C   0  0  0  0  0  0  0  0  0  0  0  0
   -2.3889    3.5306    0.0000 O   0  0  0  0  0  0  0  0  0  0  0  0
   -4.6589    2.9478    0.0000 C   0  0  0  0  0  0  0  0  0  0  0  0
   -5.1272    4.3728    0.0000 C   0  0  0  0  0  0  0  0  0  0  0  0
   -6.5954    4.6799    0.0000 C   0  0  0  0  0  0  0  0  0  0  0  0
   -7.5954    3.5619    0.0000 C   0  0  0  0  0  0  0  0  0  0  0  0
   -8.7700    3.8075    0.0000 Cl  0  0  0  0  0  0  0  0  0  0  0  0
   -7.1272    2.1368    0.0000 C   0  0  0  0  0  0  0  0  0  0  0  0
   -5.6590    1.8298    0.0000 C   0  0  0  0  0  0  0  0  0  0  0  0
  1  2  1  0
  2  3  1  0
  3  4  2  0
  4  5  1  0
  5  6  2  0
  6  7  1  0
  7  8  2  0
  8  3  1  0
  7  9  1  0
  9 10  1  0
 10 11  1  0
 11 12  2  0
 11 13  1  0
  9 14  2  0
 14 15  1  0
 14 16  1  0
 16  6  1  0
 16 17  1  0
 17 18  2  0
 17 19  1  0
 19 20  2  0
 20 21  1  0
 21 22  2  0
 22 23  1  0
 22 24  1  0
 24 25  2  0
 25 19  1  0
M  END
>  <Classification>  (63) 
0

>  <pchembl>  (63) 
4.39

>  <InChI_steorem>  (63) 
InChI=1S/C19H16ClNO4/c1-11-15(10-18(22)23)16-9-14(25-2)7-8-17(16)21(11)19(24)12-3-5-13(20)6-4-12/h3-9H,10H2,1-2H3,(H,22,23)

>  <source>  (63) 
ChEMBL25

>  <source_id>  (63) 
25

>  <optional_reference>  (63) 
10.1021/jm300212s

>  <optional_origin>  (63) 
None

>  <target>  (63) 
OATP1B3

$$$$

     RDKit          2D

 34 38  0  0  0  0  0  0  0  0999 V2000
    2.2040   -0.8584    0.0000 C   0  0  0  0  0  0  0  0  0  0  0  0
    3.0290   -0.8584    0.0000 C   0  0  0  0  0  0  0  0  0  0  0  0
    3.4415   -0.1440    0.0000 C   0  0  0  0  0  0  0  0  0  0  0  0
    3.0290    0.5705    0.0000 C   0  0  0  0  0  0  0  0  0  0  0  0
    2.2040    0.5705    0.0000 C   0  0  0  0  0  0  0  0  0  0  0  0
    1.7915    1.2850    0.0000 C   0  0  0  0  0  0  0  0  0  0  0  0
    0.9665    1.2850    0.0000 C   0  0  0  0  0  0  0  0  0  0  0  0
    0.5540    0.5705    0.0000 C   0  0  0  0  0  0  0  0  0  0  0  0
    0.9665   -0.1440    0.0000 C   0  0  0  0  0  0  0  0  0  0  0  0
    1.7915   -0.1440    0.0000 C   0  0  0  0  0  0  0  0  0  0  0  0
    0.5540   -0.8584    0.0000 C   0  0  0  0  0  0  0  0  0  0  0  0
   -0.2710   -0.8584    0.0000 C   0  0  0  0  0  0  0  0  0  0  0  0
   -0.6835   -0.1440    0.0000 C   0  0  0  0  0  0  0  0  0  0  0  0
   -0.2710    0.5705    0.0000 C   0  0  0  0  0  0  0  0  0  0  0  0
   -0.6835    1.2850    0.0000 C   0  0  0  0  0  0  0  0  0  0  0  0
   -1.5085    1.2850    0.0000 C   0  0  0  0  0  0  0  0  0  0  0  0
   -1.9210    0.5705    0.0000 C   0  0  0  0  0  0  0  0  0  0  0  0
   -1.5085   -0.1440    0.0000 C   0  0  0  0  0  0  0  0  0  0  0  0
    1.3790   -0.8584    0.0000 C   0  0  0  0  0  0  0  0  0  0  0  0
   -1.9210   -0.8584    0.0000 C   0  0  0  0  0  0  0  0  0  0  0  0
   -2.7460   -0.8584    0.0000 C   0  0  0  0  0  0  0  0  0  0  0  0
   -3.1585   -0.1440    0.0000 C   0  0  0  0  0  0  0  0  0  0  0  0
   -2.7460    0.5705    0.0000 C   0  0  0  0  0  0  0  0  0  0  0  0
    3.7286    1.0077    0.0000 C   0  0  0  0  0  0  0  0  0  0  0  0
    3.0578    1.3950    0.0000 C   0  0  0  0  0  0  0  0  0  0  0  0
    0.1415    1.2850    0.0000 C   0  0  0  0  0  0  0  0  0  0  0  0
   -0.3573    1.3910    0.0000 C   0  0  0  0  0  0  0  0  0  0  0  0
   -2.3335    1.2850    0.0000 C   0  0  0  0  0  0  0  0  0  0  0  0
   -3.4457   -1.2956    0.0000 C   0  0  0  0  0  0  0  0  0  0  0  0
   -2.7748   -1.6829    0.0000 C   0  0  0  0  0  0  0  0  0  0  0  0
    4.2665   -0.1440    0.0000 O   0  0  0  0  0  0  0  0  0  0  0  0
    0.9665   -1.5729    0.0000 O   0  0  0  0  0  0  0  0  0  0  0  0
   -4.1741   -0.9083    0.0000 O   0  0  0  0  0  0  0  0  0  0  0  0
   -3.4169   -2.1201    0.0000 O   0  0  0  0  0  0  0  0  0  0  0  0
  1  2  1  0
  1 10  1  0
  2  3  1  0
  3  4  1  0
  3 31  1  0
  4  5  1  0
 24  4  1  0
 25  4  1  0
  5  6  1  0
 10  5  1  0
  6  7  1  0
  7  8  1  0
  8  9  1  0
 14  8  1  0
  8 26  1  0
 10  9  1  0
  9 11  1  0
 10 19  1  0
 11 12  1  0
 11 32  2  0
 12 13  2  0
 13 14  1  0
 18 13  1  0
 14 15  1  0
 14 27  1  0
 15 16  1  0
 16 17  1  0
 17 18  1  0
 17 23  1  0
 17 28  1  0
 18 20  1  0
 20 21  1  0
 21 22  1  0
 21 29  1  0
 21 30  1  0
 22 23  1  0
 29 33  2  0
 29 34  1  0
M  END
>  <Classification>  (64) 
1

>  <pchembl>  (64) 
6.26

>  <InChI_steorem>  (64) 
InChI=1S/C30H46O4/c1-25(2)21-8-11-30(7)23(28(21,5)10-9-22(25)32)20(31)16-18-19-17-27(4,24(33)34)13-12-26(19,3)14-15-29(18,30)6/h16,19,21-23,32H,8-15,17H2,1-7H3,(H,33,34)

>  <source>  (64) 
ChEMBL25

>  <source_id>  (64) 
25

>  <optional_reference>  (64) 
10.1124/mol.112.084152

>  <optional_origin>  (64) 
None

>  <target>  (64) 
OATP1B3

$$$$

     RDKit          2D

 48 53  0  0  0  0  0  0  0  0999 V2000
    3.8427   -4.1422    0.0000 O   0  0  0  0  0  0  0  0  0  0  0  0
    5.9030   -3.5182    0.0000 O   0  0  0  0  0  0  0  0  0  0  0  0
    3.8720   -1.4400    0.0000 O   0  0  0  0  0  0  0  0  0  0  0  0
    6.2515   -1.1703    0.0000 O   0  0  0  0  0  0  0  0  0  0  0  0
    8.7782   -3.9932    0.0000 O   0  0  0  0  0  0  0  0  0  0  0  0
    7.7269   -1.3357    0.0000 O   0  0  0  0  0  0  0  0  0  0  0  0
    0.6203   -3.2776    0.0000 O   0  0  0  0  0  0  0  0  0  0  0  0
    1.8587   -3.9906    0.0000 O   0  0  0  0  0  0  0  0  0  0  0  0
    5.0460   -3.1084    0.0000 C   0  0  0  0  0  0  0  0  0  0  0  0
    3.9203   -3.2737    0.0000 C   0  0  0  0  0  0  0  0  0  0  0  0
    5.0847   -3.8408    0.0000 C   0  0  0  0  0  0  0  0  0  0  0  0
    5.2727   -2.2832    0.0000 C   0  0  0  0  0  0  0  0  0  0  0  0
    4.6112   -4.5004    0.0000 C   0  0  0  0  0  0  0  0  0  0  0  0
    3.8276   -2.2638    0.0000 C   0  0  0  0  0  0  0  0  0  0  0  0
    3.7125   -2.8340    0.0000 C   0  0  0  0  0  0  0  0  0  0  0  0
    4.2616   -3.7420    0.0000 C   0  0  0  0  0  0  0  0  0  0  0  0
    6.1428   -1.9881    0.0000 C   0  0  0  0  0  0  0  0  0  0  0  0
    4.4338   -1.9987    0.0000 C   0  0  0  0  0  0  0  0  0  0  0  0
    6.7183   -3.2715    0.0000 C   0  0  0  0  0  0  0  0  0  0  0  0
    6.8390   -2.4553    0.0000 C   0  0  0  0  0  0  0  0  0  0  0  0
    3.0953   -3.2747    0.0000 C   0  0  0  0  0  0  0  0  0  0  0  0
    7.3647   -3.7841    0.0000 C   0  0  0  0  0  0  0  0  0  0  0  0
    7.6062   -2.1519    0.0000 C   0  0  0  0  0  0  0  0  0  0  0  0
    4.3895   -5.2950    0.0000 C   0  0  0  0  0  0  0  0  0  0  0  0
    5.1937   -5.0846    0.0000 C   0  0  0  0  0  0  0  0  0  0  0  0
    8.1318   -3.4806    0.0000 C   0  0  0  0  0  0  0  0  0  0  0  0
    8.2526   -2.6645    0.0000 C   0  0  0  0  0  0  0  0  0  0  0  0
    2.6820   -2.5607    0.0000 C   0  0  0  0  0  0  0  0  0  0  0  0
    7.2439   -4.6002    0.0000 C   0  0  0  0  0  0  0  0  0  0  0  0
    9.0197   -2.3610    0.0000 C   0  0  0  0  0  0  0  0  0  0  0  0
    9.5454   -3.6897    0.0000 C   0  0  0  0  0  0  0  0  0  0  0  0
    1.8570   -2.5617    0.0000 C   0  0  0  0  0  0  0  0  0  0  0  0
    9.6661   -2.8736    0.0000 C   0  0  0  0  0  0  0  0  0  0  0  0
    7.8904   -5.1128    0.0000 C   0  0  0  0  0  0  0  0  0  0  0  0
    1.4453   -3.2766    0.0000 C   0  0  0  0  0  0  0  0  0  0  0  0
    8.4940   -1.0322    0.0000 C   0  0  0  0  0  0  0  0  0  0  0  0
    9.8755   -4.4458    0.0000 C   0  0  0  0  0  0  0  0  0  0  0  0
   10.3568   -3.8389    0.0000 C   0  0  0  0  0  0  0  0  0  0  0  0
    1.4436   -1.8477    0.0000 C   0  0  0  0  0  0  0  0  0  0  0  0
    7.7696   -5.9289    0.0000 C   0  0  0  0  0  0  0  0  0  0  0  0
   10.6953   -4.5380    0.0000 C   0  0  0  0  0  0  0  0  0  0  0  0
    8.4160   -6.4416    0.0000 C   0  0  0  0  0  0  0  0  0  0  0  0
    7.0025   -6.2324    0.0000 C   0  0  0  0  0  0  0  0  0  0  0  0
   11.0254   -5.2941    0.0000 C   0  0  0  0  0  0  0  0  0  0  0  0
    0.2087   -3.9926    0.0000 C   0  0  0  0  0  0  0  0  0  0  0  0
   11.8452   -5.3863    0.0000 C   0  0  0  0  0  0  0  0  0  0  0  0
   12.3350   -4.7223    0.0000 C   0  0  0  0  0  0  0  0  0  0  0  0
   12.1753   -6.1423    0.0000 C   0  0  0  0  0  0  0  0  0  0  0  0
  1 10  1  0
  1 13  1  0
  2  9  1  0
  2 19  1  0
  3 14  2  0
  4 17  2  0
  5 26  1  0
  5 31  1  0
  6 23  1  0
  6 36  1  0
  7 35  1  0
  7 45  1  0
  8 35  2  0
  9 10  1  0
  9 11  1  0
  9 12  1  0
 10 14  1  0
 10 21  1  0
 11 13  1  0
 11 16  1  0
 12 17  1  0
 12 18  2  0
 13 24  1  0
 13 25  1  0
 14 15  1  0
 15 16  1  0
 15 18  1  0
 17 20  1  0
 19 20  2  0
 19 22  1  0
 20 23  1  0
 21 28  1  0
 22 26  2  0
 22 29  1  0
 23 27  2  0
 26 27  1  0
 27 30  1  0
 28 32  2  3
 29 34  1  0
 30 33  2  0
 31 33  1  0
 31 37  1  0
 31 38  1  0
 32 35  1  0
 32 39  1  0
 34 40  2  3
 37 41  1  0
 40 42  1  0
 40 43  1  0
 41 44  1  0
 44 46  2  3
 46 47  1  0
 46 48  1  0
M  END
>  <Classification>  (65) 
1

>  <pchembl>  (65) 
5.29

>  <InChI_steorem>  (65) 
InChI=1S/C40H48O8/c1-22(2)12-11-17-38(8)18-16-27-32(46-38)26(14-13-23(3)4)34-30(33(27)44-9)31(41)28-20-25-21-29-37(6,7)48-39(35(25)42,40(28,29)47-34)19-15-24(5)36(43)45-10/h12-13,15-16,18,20,25,29H,11,14,17,19,21H2,1-10H3

>  <source>  (65) 
ChEMBL25

>  <source_id>  (65) 
25

>  <optional_reference>  (65) 
10.1124/mol.112.084152

>  <optional_origin>  (65) 
None

>  <target>  (65) 
OATP1B3

$$$$

     RDKit          2D

 46 51  0  0  0  0  0  0  0  0999 V2000
   -1.4938   -0.5734    0.0000 O   0  0  0  0  0  0  0  0  0  0  0  0
    0.5665    0.0506    0.0000 O   0  0  0  0  0  0  0  0  0  0  0  0
   -1.4645    2.1288    0.0000 O   0  0  0  0  0  0  0  0  0  0  0  0
    0.9150    2.3985    0.0000 O   0  0  0  0  0  0  0  0  0  0  0  0
    3.4418   -0.4245    0.0000 O   0  0  0  0  0  0  0  0  0  0  0  0
    2.3904    2.2330    0.0000 O   0  0  0  0  0  0  0  0  0  0  0  0
   -4.7144   -1.1378    0.0000 O   0  0  0  0  0  0  0  0  0  0  0  0
   -3.4761   -1.8508    0.0000 O   0  0  0  0  0  0  0  0  0  0  0  0
   -0.2905    0.4604    0.0000 C   0  0  0  0  0  0  0  0  0  0  0  0
   -1.4161    0.2951    0.0000 C   0  0  0  0  0  0  0  0  0  0  0  0
   -0.2518   -0.2721    0.0000 C   0  0  0  0  0  0  0  0  0  0  0  0
   -0.0638    1.2855    0.0000 C   0  0  0  0  0  0  0  0  0  0  0  0
   -0.7253   -0.9316    0.0000 C   0  0  0  0  0  0  0  0  0  0  0  0
   -1.5089    1.3050    0.0000 C   0  0  0  0  0  0  0  0  0  0  0  0
   -1.6240    0.7348    0.0000 C   0  0  0  0  0  0  0  0  0  0  0  0
   -1.0749   -0.1732    0.0000 C   0  0  0  0  0  0  0  0  0  0  0  0
    0.8063    1.5806    0.0000 C   0  0  0  0  0  0  0  0  0  0  0  0
   -0.9027    1.5701    0.0000 C   0  0  0  0  0  0  0  0  0  0  0  0
    1.3818    0.2973    0.0000 C   0  0  0  0  0  0  0  0  0  0  0  0
    1.5025    1.1134    0.0000 C   0  0  0  0  0  0  0  0  0  0  0  0
   -2.2411    0.2941    0.0000 C   0  0  0  0  0  0  0  0  0  0  0  0
    2.0282   -0.2153    0.0000 C   0  0  0  0  0  0  0  0  0  0  0  0
    2.2697    1.4169    0.0000 C   0  0  0  0  0  0  0  0  0  0  0  0
   -0.9470   -1.7263    0.0000 C   0  0  0  0  0  0  0  0  0  0  0  0
   -0.1427   -1.5158    0.0000 C   0  0  0  0  0  0  0  0  0  0  0  0
    2.7954    0.0882    0.0000 C   0  0  0  0  0  0  0  0  0  0  0  0
    2.9161    0.9043    0.0000 C   0  0  0  0  0  0  0  0  0  0  0  0
   -2.6528   -0.4209    0.0000 C   0  0  0  0  0  0  0  0  0  0  0  0
    1.9075   -1.0314    0.0000 C   0  0  0  0  0  0  0  0  0  0  0  0
    3.6832    1.2078    0.0000 C   0  0  0  0  0  0  0  0  0  0  0  0
    4.2089   -0.1210    0.0000 C   0  0  0  0  0  0  0  0  0  0  0  0
   -3.4778   -0.4219    0.0000 C   0  0  0  0  0  0  0  0  0  0  0  0
    4.3296    0.6952    0.0000 C   0  0  0  0  0  0  0  0  0  0  0  0
    2.5539   -1.5441    0.0000 C   0  0  0  0  0  0  0  0  0  0  0  0
   -3.8894   -1.1368    0.0000 C   0  0  0  0  0  0  0  0  0  0  0  0
    4.5390   -0.8770    0.0000 C   0  0  0  0  0  0  0  0  0  0  0  0
    5.0203   -0.2701    0.0000 C   0  0  0  0  0  0  0  0  0  0  0  0
   -3.8911    0.2921    0.0000 C   0  0  0  0  0  0  0  0  0  0  0  0
    2.4331   -2.3602    0.0000 C   0  0  0  0  0  0  0  0  0  0  0  0
    4.0492   -1.5410    0.0000 C   0  0  0  0  0  0  0  0  0  0  0  0
    3.0795   -2.8728    0.0000 C   0  0  0  0  0  0  0  0  0  0  0  0
    1.6660   -2.6637    0.0000 C   0  0  0  0  0  0  0  0  0  0  0  0
    4.3793   -2.2970    0.0000 C   0  0  0  0  0  0  0  0  0  0  0  0
    5.1992   -2.3892    0.0000 C   0  0  0  0  0  0  0  0  0  0  0  0
    5.6889   -1.7253    0.0000 C   0  0  0  0  0  0  0  0  0  0  0  0
    5.5292   -3.1453    0.0000 C   0  0  0  0  0  0  0  0  0  0  0  0
  1 10  1  0
  1 13  1  0
  2  9  1  0
  2 19  1  0
  3 14  1  0
  4 17  2  0
  5 26  1  0
  5 31  1  0
  6 23  1  0
  7 35  2  0
  8 35  1  0
  9 10  1  0
  9 11  1  0
  9 12  1  0
 10 14  1  0
 10 21  1  0
 11 13  1  0
 11 16  1  0
 12 17  1  0
 12 18  1  0
 13 24  1  0
 13 25  1  0
 14 15  1  0
 15 16  1  0
 15 18  1  0
 17 20  1  0
 19 20  2  0
 19 22  1  0
 20 23  1  0
 21 28  1  0
 22 26  2  0
 22 29  1  0
 23 27  2  0
 26 27  1  0
 27 30  1  0
 28 32  1  0
 29 34  1  0
 30 33  2  0
 31 33  1  0
 31 36  1  0
 31 37  1  0
 32 35  1  0
 32 38  1  0
 34 39  1  0
 36 40  1  0
 39 41  1  0
 39 42  1  0
 40 43  1  0
 43 44  1  0
 44 45  1  0
 44 46  1  0
M  END
>  <Classification>  (66) 
1

>  <pchembl>  (66) 
5.64

>  <InChI_steorem>  (66) 
InChI=1S/C38H54O8/c1-20(2)10-9-15-36(8)16-14-24-29(39)28-30(40)26-18-23-19-27-35(6,7)46-37(33(23)41,17-13-22(5)34(42)43)38(26,27)45-32(28)25(31(24)44-36)12-11-21(3)4/h14,16,20-23,26-27,33,39,41H,9-13,15,17-19H2,1-8H3,(H,42,43)

>  <source>  (66) 
ChEMBL25

>  <source_id>  (66) 
25

>  <optional_reference>  (66) 
10.1124/mol.112.084152

>  <optional_origin>  (66) 
None

>  <target>  (66) 
OATP1B3

$$$$

     RDKit          2D

 59 67  0  0  0  0  0  0  0  0999 V2000
    4.3473   -3.3521    0.0000 C   0  0  0  0  0  0  0  0  0  0  0  0
    7.2580   -3.4021    0.0000 C   0  0  0  0  0  0  0  0  0  0  0  0
    8.5821   -3.9183    0.0000 C   0  0  0  0  0  0  0  0  0  0  0  0
    3.6435   -2.9315    0.0000 C   0  0  0  0  0  0  0  0  0  0  0  0
    7.7701   -4.0433    0.0000 C   0  0  0  0  0  0  0  0  0  0  0  0
    8.3698   -2.5192    0.0000 C   0  0  0  0  0  0  0  0  0  0  0  0
    7.3204   -4.7387    0.0000 N   0  0  0  0  0  0  0  0  0  0  0  0
    7.5578   -2.6317    0.0000 C   0  0  0  0  0  0  0  0  0  0  0  0
    6.5292   -4.5180    0.0000 C   0  0  0  0  0  0  0  0  0  0  0  0
    8.8902   -3.1563    0.0000 C   0  0  0  0  0  0  0  0  0  0  0  0
    6.4834   -3.6935    0.0000 C   0  0  0  0  0  0  0  0  0  0  0  0
    5.0593   -3.7559    0.0000 C   0  0  0  0  0  0  0  0  0  0  0  0
    3.6477   -2.1154    0.0000 C   0  0  0  0  0  0  0  0  0  0  0  0
    2.8565   -3.1938    0.0000 N   0  0  0  0  0  0  0  0  0  0  0  0
    5.8214   -4.9677    0.0000 C   0  0  0  0  0  0  0  0  0  0  0  0
    5.7547   -3.3187    0.0000 C   0  0  0  0  0  0  0  0  0  0  0  0
    7.0414   -1.9946    0.0000 N   0  0  0  0  0  0  0  0  0  0  0  0
    3.7559   -3.9183    0.0000 C   0  0  0  0  0  0  0  0  0  0  0  0
    2.8607   -1.8530    0.0000 C   0  0  0  0  0  0  0  0  0  0  0  0
    8.7195   -4.7387    0.0000 C   0  0  0  0  0  0  0  0  0  0  0  0
    5.0926   -4.5804    0.0000 C   0  0  0  0  0  0  0  0  0  0  0  0
    2.3735   -2.5276    0.0000 C   0  0  0  0  0  0  0  0  0  0  0  0
    4.3473   -0.8703    0.0000 N   0  0  0  0  0  0  0  0  0  0  0  0
    6.4293   -3.1563    0.0000 C   0  0  0  0  0  0  0  0  0  0  0  0
    5.0593   -2.9399    0.0000 C   0  0  0  0  0  0  0  0  0  0  0  0
    9.7022   -3.0314    0.0000 O   0  0  0  0  0  0  0  0  0  0  0  0
    8.6696   -1.7531    0.0000 C   0  0  0  0  0  0  0  0  0  0  0  0
    2.9232   -0.8786    0.0000 C   0  0  0  0  0  0  0  0  0  0  0  0
    5.7714   -0.8703    0.0000 C   0  0  0  0  0  0  0  0  0  0  0  0
    5.0593   -2.1070    0.0000 C   0  0  0  0  0  0  0  0  0  0  0  0
   10.2186   -3.6685    0.0000 C   0  0  0  0  0  0  0  0  0  0  0  0
    6.2836   -2.3443    0.0000 C   0  0  0  0  0  0  0  0  0  0  0  0
    9.3941   -3.7809    0.0000 O   0  0  0  0  0  0  0  0  0  0  0  0
    8.1574   -1.1035    0.0000 C   0  0  0  0  0  0  0  0  0  0  0  0
    5.0593   -0.4580    0.0000 C   0  0  0  0  0  0  0  0  0  0  0  0
    4.3473   -1.7031    0.0000 C   0  0  0  0  0  0  0  0  0  0  0  0
    8.0907   -5.2634    0.0000 O   0  0  0  0  0  0  0  0  0  0  0  0
    3.9558   -4.7178    0.0000 O   0  0  0  0  0  0  0  0  0  0  0  0
    3.6352   -0.4664    0.0000 C   0  0  0  0  0  0  0  0  0  0  0  0
    9.9188   -4.4389    0.0000 O   0  0  0  0  0  0  0  0  0  0  0  0
    5.7714   -1.7031    0.0000 C   0  0  0  0  0  0  0  0  0  0  0  0
    9.1651   -2.2944    0.0000 C   0  0  0  0  0  0  0  0  0  0  0  0
    7.6160   -5.5132    0.0000 C   0  0  0  0  0  0  0  0  0  0  0  0
    7.3454   -1.2200    0.0000 C   0  0  0  0  0  0  0  0  0  0  0  0
    2.9606   -3.6935    0.0000 O   0  0  0  0  0  0  0  0  0  0  0  0
    9.4941   -5.0261    0.0000 O   0  0  0  0  0  0  0  0  0  0  0  0
    4.3930   -5.0177    0.0000 O   0  0  0  0  0  0  0  0  0  0  0  0
    5.7672   -0.0458    0.0000 O   0  0  0  0  0  0  0  0  0  0  0  0
    2.5234   -1.0951    0.0000 C   0  0  0  0  0  0  0  0  0  0  0  0
    1.5490   -2.4402    0.0000 C   0  0  0  0  0  0  0  0  0  0  0  0
    6.4917   -1.2909    0.0000 C   0  0  0  0  0  0  0  0  0  0  0  0
   11.0306   -3.5436    0.0000 C   0  0  0  0  0  0  0  0  0  0  0  0
    9.6315   -5.8421    0.0000 C   0  0  0  0  0  0  0  0  0  0  0  0
    2.3693   -4.2681    0.0000 C   0  0  0  0  0  0  0  0  0  0  0  0
    4.4222   -5.8421    0.0000 C   0  0  0  0  0  0  0  0  0  0  0  0
    9.3691   -1.4949    0.0000 C   0  0  0  0  0  0  0  0  0  0  0  0
    7.2080   -0.8786    0.0000 C   0  0  0  0  0  0  0  0  0  0  0  0
    1.7072   -1.0077    0.0000 C   0  0  0  0  0  0  0  0  0  0  0  0
    1.2117   -1.6822    0.0000 C   0  0  0  0  0  0  0  0  0  0  0  0
  2 11  1  0
  3  5  1  0
  4  1  1  0
  5  2  1  0
  6  8  1  0
  7  9  1  0
  8  2  1  0
  9 15  2  0
 10  6  1  0
 11 16  2  0
 12  1  1  0
 13  4  2  0
 14  4  1  0
 15 21  1  0
 16 12  1  0
 17  8  1  0
  1 18  1  0
 19 13  1  0
 20  3  1  0
 21 12  2  0
 22 14  1  0
 23 36  1  0
  2 24  1  0
 25  1  1  0
 10 26  1  0
 27  6  1  0
 28 13  1  0
 29 41  1  0
 30 25  1  0
 31 26  1  0
 32 24  1  0
  3 33  1  0
 34 44  1  0
 35 29  1  0
 36 30  1  0
 37 20  2  0
 38 18  2  0
 39 28  1  0
 40 31  2  0
 41 30  1  0
  6 42  1  0
 43  7  1  0
 44 17  1  0
 45 18  1  0
 46 20  1  0
 47 21  1  0
 48 29  1  0
 49 19  2  0
 50 22  2  0
 29 51  1  0
 52 31  1  0
 53 46  1  0
 54 45  1  0
 55 47  1  0
 56 42  1  0
 57 51  1  0
 58 49  1  0
 59 50  1  0
 11  9  1  0
 19 22  1  0
 23 39  1  0
 23 35  1  0
  7  5  1  0
 58 59  2  0
 17 32  1  0
  3 10  1  0
 27 34  2  0
M  END
>  <Classification>  (67) 
0

>  <pchembl>  (67) 
4.36

>  <InChI_steorem>  (67) 
InChI=1S/C46H58N4O9/c1-8-42(54)23-28-24-45(40(52)57-6,36-30(15-19-49(25-28)26-42)29-13-10-11-14-33(29)47-36)32-21-31-34(22-35(32)56-5)48(4)38-44(31)17-20-50-18-12-16-43(9-2,37(44)50)39(59-27(3)51)46(38,55)41(53)58-7/h10-14,16,21-22,28,37-39,47,54-55H,8-9,15,17-20,23-26H2,1-7H3

>  <source>  (67) 
ChEMBL25

>  <source_id>  (67) 
25

>  <optional_reference>  (67) 
10.1016/j.ejmech.2015.01.011

>  <optional_origin>  (67) 
None

>  <target>  (67) 
OATP1B3

$$$$

     RDKit          2D

 30 33  0  0  0  0  0  0  0  0999 V2000
    3.2917   -4.0667    0.0000 N   0  0  0  0  0  0  0  0  0  0  0  0
    2.7000   -3.6875    0.0000 C   0  0  0  0  0  0  0  0  0  0  0  0
    3.6417   -3.0000    0.0000 N   0  0  0  0  0  0  0  0  0  0  0  0
    2.9375   -3.0000    0.0000 C   0  0  0  0  0  0  0  0  0  0  0  0
    3.8792   -3.6875    0.0000 C   0  0  0  0  0  0  0  0  0  0  0  0
    6.3667   -5.1542    0.0000 C   0  0  0  0  0  0  0  0  0  0  0  0
    6.7292   -4.1042    0.0000 N   0  0  0  0  0  0  0  0  0  0  0  0
    6.9375   -4.7792    0.0000 N   0  0  0  0  0  0  0  0  0  0  0  0
    6.0125   -4.1042    0.0000 N   0  0  0  0  0  0  0  0  0  0  0  0
    5.8042   -4.7792    0.0000 N   0  0  0  0  0  0  0  0  0  0  0  0
    6.3667   -5.8417    0.0000 C   0  0  0  0  0  0  0  0  0  0  0  0
    5.7625   -6.2167    0.0000 C   0  0  0  0  0  0  0  0  0  0  0  0
    3.3042   -4.7917    0.0000 C   0  0  0  0  0  0  0  0  0  0  0  0
    5.1417   -5.8792    0.0000 C   0  0  0  0  0  0  0  0  0  0  0  0
    2.5167   -2.4042    0.0000 Cl  0  0  0  0  0  0  0  0  0  0  0  0
    2.0875   -4.0167    0.0000 C   0  0  0  0  0  0  0  0  0  0  0  0
    4.5292   -6.2375    0.0000 C   0  0  0  0  0  0  0  0  0  0  0  0
    5.1417   -5.1542    0.0000 C   0  0  0  0  0  0  0  0  0  0  0  0
    3.9125   -5.1542    0.0000 C   0  0  0  0  0  0  0  0  0  0  0  0
    4.4792   -4.0667    0.0000 C   0  0  0  0  0  0  0  0  0  0  0  0
    3.9125   -5.8792    0.0000 C   0  0  0  0  0  0  0  0  0  0  0  0
    4.5292   -4.7792    0.0000 C   0  0  0  0  0  0  0  0  0  0  0  0
    6.9875   -6.2167    0.0000 C   0  0  0  0  0  0  0  0  0  0  0  0
    1.4542   -3.6875    0.0000 O   0  0  0  0  0  0  0  0  0  0  0  0
    5.7625   -6.9250    0.0000 C   0  0  0  0  0  0  0  0  0  0  0  0
    5.0917   -3.7292    0.0000 C   0  0  0  0  0  0  0  0  0  0  0  0
    5.0875   -3.0292    0.0000 C   0  0  0  0  0  0  0  0  0  0  0  0
    6.9875   -6.9250    0.0000 C   0  0  0  0  0  0  0  0  0  0  0  0
    6.3667   -7.2792    0.0000 C   0  0  0  0  0  0  0  0  0  0  0  0
    5.7375   -2.6375    0.0000 C   0  0  0  0  0  0  0  0  0  0  0  0
  2  1  1  0
  3  5  2  0
  4  2  2  0
  5  1  1  0
  6 11  1  0
  7  8  1  0
  8  6  1  0
  9 10  1  0
 10  6  2  0
 11 12  1  0
 12 14  1  0
 13  1  1  0
 14 18  2  0
 15  4  1  0
 16  2  1  0
 17 21  2  0
 18 22  1  0
 19 13  1  0
 20  5  1  0
 21 19  1  0
 22 19  2  0
 23 11  2  0
 24 16  1  0
 25 12  2  0
 26 20  1  0
 27 26  1  0
 28 29  2  0
 29 25  1  0
 30 27  1  0
  4  3  1  0
 14 17  1  0
 28 23  1  0
  7  9  2  0
M  END
>  <Classification>  (68) 
1

>  <pchembl>  (68) 
5.94

>  <InChI_steorem>  (68) 
InChI=1S/C22H23ClN6O/c1-2-3-8-20-24-21(23)19(14-30)29(20)13-15-9-11-16(12-10-15)17-6-4-5-7-18(17)22-25-27-28-26-22/h4-7,9-12,30H,2-3,8,13-14H2,1H3,(H,25,26,27,28)

>  <source>  (68) 
ChEMBL25

>  <source_id>  (68) 
25

>  <optional_reference>  (68) 
10.1124/mol.112.084152

>  <optional_origin>  (68) 
None

>  <target>  (68) 
OATP1B3

$$$$

     RDKit          2D

 51 53  0  0  0  0  0  0  0  0999 V2000
    3.7625   -9.4417    0.0000 C   0  0  0  0  0  0  0  0  0  0  0  0
   -0.5250   -9.8042    0.0000 C   0  0  0  0  0  0  0  0  0  0  0  0
    0.0875   -9.4542    0.0000 N   0  0  0  0  0  0  0  0  0  0  0  0
    4.3750   -9.7917    0.0000 C   0  0  0  0  0  0  0  0  0  0  0  0
   -1.1375   -9.4542    0.0000 C   0  0  0  0  0  0  0  0  0  0  0  0
    3.1500   -9.7917    0.0000 N   0  0  0  0  0  0  0  0  0  0  0  0
    2.5375   -9.4417    0.0000 N   0  0  0  0  0  0  0  0  0  0  0  0
    5.6000   -9.7875    0.0000 C   0  0  0  0  0  0  0  0  0  0  0  0
   -2.3625   -9.4625    0.0000 C   0  0  0  0  0  0  0  0  0  0  0  0
    4.9875   -9.4375    0.0000 N   0  0  0  0  0  0  0  0  0  0  0  0
   -1.7500   -9.8125    0.0000 N   0  0  0  0  0  0  0  0  0  0  0  0
    0.7000   -9.8042    0.0000 C   0  0  0  0  0  0  0  0  0  0  0  0
    1.9250   -9.8000    0.0000 C   0  0  0  0  0  0  0  0  0  0  0  0
    1.3125   -9.4500    0.0000 C   0  0  0  0  0  0  0  0  0  0  0  0
    4.3750  -10.5000    0.0000 C   0  0  0  0  0  0  0  0  0  0  0  0
   -1.1417   -8.7500    0.0000 C   0  0  0  0  0  0  0  0  0  0  0  0
    3.7583   -8.7292    0.0000 O   0  0  0  0  0  0  0  0  0  0  0  0
   -0.5250  -10.5167    0.0000 O   0  0  0  0  0  0  0  0  0  0  0  0
    4.6333   -6.2667    0.0000 N   0  0  0  0  0  0  0  0  0  0  0  0
    3.5792   -6.8875    0.0000 C   0  0  0  0  0  0  0  0  0  0  0  0
    3.9250   -6.2708    0.0000 C   0  0  0  0  0  0  0  0  0  0  0  0
    0.7000  -10.5125    0.0000 C   0  0  0  0  0  0  0  0  0  0  0  0
    5.6000  -10.4917    0.0000 O   0  0  0  0  0  0  0  0  0  0  0  0
   -2.3667   -8.7542    0.0000 O   0  0  0  0  0  0  0  0  0  0  0  0
    2.5333   -8.7375    0.0000 C   0  0  0  0  0  0  0  0  0  0  0  0
    3.9375   -7.5000    0.0000 C   0  0  0  0  0  0  0  0  0  0  0  0
    2.8667   -6.8958    0.0000 C   0  0  0  0  0  0  0  0  0  0  0  0
   -2.9750   -9.8167    0.0000 O   0  0  0  0  0  0  0  0  0  0  0  0
    6.2125   -9.4292    0.0000 O   0  0  0  0  0  0  0  0  0  0  0  0
    2.8792   -8.1167    0.0000 C   0  0  0  0  0  0  0  0  0  0  0  0
    1.3083   -8.7417    0.0000 O   0  0  0  0  0  0  0  0  0  0  0  0
    1.3125  -10.8625    0.0000 C   0  0  0  0  0  0  0  0  0  0  0  0
    3.5917   -8.1125    0.0000 C   0  0  0  0  0  0  0  0  0  0  0  0
    2.5208   -7.5125    0.0000 C   0  0  0  0  0  0  0  0  0  0  0  0
    5.0792  -10.4917    0.0000 C   0  0  0  0  0  0  0  0  0  0  0  0
   -1.5000   -8.1292    0.0000 C   0  0  0  0  0  0  0  0  0  0  0  0
   -1.8500   -8.7500    0.0000 C   0  0  0  0  0  0  0  0  0  0  0  0
   -0.5292   -8.3917    0.0000 C   0  0  0  0  0  0  0  0  0  0  0  0
    3.7625  -10.8542    0.0000 C   0  0  0  0  0  0  0  0  0  0  0  0
    4.7250  -11.1042    0.0000 C   0  0  0  0  0  0  0  0  0  0  0  0
    4.9792   -5.6500    0.0000 C   0  0  0  0  0  0  0  0  0  0  0  0
    3.5625   -5.6667    0.0000 C   0  0  0  0  0  0  0  0  0  0  0  0
    6.8250   -9.7792    0.0000 C   0  0  0  0  0  0  0  0  0  0  0  0
   -3.5875   -9.4667    0.0000 C   0  0  0  0  0  0  0  0  0  0  0  0
    1.9208  -10.5042    0.0000 C   0  0  0  0  0  0  0  0  0  0  0  0
    1.3125  -11.5708    0.0000 C   0  0  0  0  0  0  0  0  0  0  0  0
    4.6167   -5.0375    0.0000 C   0  0  0  0  0  0  0  0  0  0  0  0
    3.9042   -5.0500    0.0000 C   0  0  0  0  0  0  0  0  0  0  0  0
    1.9292  -11.9208    0.0000 C   0  0  0  0  0  0  0  0  0  0  0  0
    2.5375  -10.8542    0.0000 C   0  0  0  0  0  0  0  0  0  0  0  0
    2.5417  -11.5667    0.0000 C   0  0  0  0  0  0  0  0  0  0  0  0
  2  3  1  0
  3 12  1  0
  4  1  1  0
  5  2  1  0
  6  1  1  0
  7  6  1  0
  8 10  1  0
  9 11  1  0
 10  4  1  0
 11  5  1  0
 12 14  1  0
 13  7  1  0
 14 13  1  0
  4 15  1  0
  5 16  1  0
 17  1  2  0
 18  2  2  0
 19 21  2  0
 20 27  2  0
 21 20  1  0
 12 22  1  0
 23  8  2  0
 24  9  2  0
 25  7  1  0
 26 33  2  0
 27 34  1  0
 28  9  1  0
 29  8  1  0
 30 25  1  0
 14 31  1  0
 32 22  1  0
 33 30  1  0
 34 30  2  0
 35 15  1  0
 36 16  1  0
 37 16  1  0
 38 16  1  0
 39 15  1  0
 40 15  1  0
 41 19  1  0
 42 21  1  0
 43 29  1  0
 44 28  1  0
 45 32  2  0
 46 32  1  0
 47 48  1  0
 48 42  2  0
 49 46  2  0
 50 45  1  0
 51 50  2  0
 20 26  1  0
 51 49  1  0
 47 41  2  0
M  END
>  <Classification>  (69) 
1

>  <pchembl>  (69) 
6.4

>  <InChI_steorem>  (69) 
InChI=1S/C38H52N6O7/c1-37(2,3)31(41-35(48)50-7)33(46)40-29(22-25-14-10-9-11-15-25)30(45)24-44(43-34(47)32(38(4,5)6)42-36(49)51-8)23-26-17-19-27(20-18-26)28-16-12-13-21-39-28/h9-21,29-32,45H,22-24H2,1-8H3,(H,40,46)(H,41,48)(H,42,49)(H,43,47)

>  <source>  (69) 
ChEMBL25

>  <source_id>  (69) 
25

>  <optional_reference>  (69) 
10.1021/jm300212s

>  <optional_origin>  (69) 
None

>  <target>  (69) 
OATP1B3

$$$$

     RDKit          2D

 30 31  0  0  0  0  0  0  0  0999 V2000
    4.5917   -8.8375    0.0000 C   0  0  0  0  0  0  0  0  0  0  0  0
    4.5917   -8.1125    0.0000 C   0  0  0  0  0  0  0  0  0  0  0  0
    3.9667   -7.7542    0.0000 C   0  0  0  0  0  0  0  0  0  0  0  0
    3.3625   -6.7000    0.0000 C   0  0  0  0  0  0  0  0  0  0  0  0
    5.2125   -9.1917    0.0000 C   0  0  0  0  0  0  0  0  0  0  0  0
    3.9667   -9.1917    0.0000 C   0  0  0  0  0  0  0  0  0  0  0  0
    3.9667   -7.0542    0.0000 O   0  0  0  0  0  0  0  0  0  0  0  0
    5.2125   -7.7542    0.0000 C   0  0  0  0  0  0  0  0  0  0  0  0
    5.8250   -8.8375    0.0000 C   0  0  0  0  0  0  0  0  0  0  0  0
    3.3542   -8.1125    0.0000 C   0  0  0  0  0  0  0  0  0  0  0  0
    3.9917   -4.8667    0.0000 C   0  0  0  0  0  0  0  0  0  0  0  0
    4.6042   -4.5167    0.0000 C   0  0  0  0  0  0  0  0  0  0  0  0
    5.2167   -7.0417    0.0000 C   0  0  0  0  0  0  0  0  0  0  0  0
    3.3542   -8.8375    0.0000 C   0  0  0  0  0  0  0  0  0  0  0  0
    5.8250   -8.1125    0.0000 C   0  0  0  0  0  0  0  0  0  0  0  0
    3.3625   -5.9917    0.0000 O   0  0  0  0  0  0  0  0  0  0  0  0
    3.3792   -4.5042    0.0000 O   0  0  0  0  0  0  0  0  0  0  0  0
    3.9917   -5.5750    0.0000 O   0  0  0  0  0  0  0  0  0  0  0  0
    5.2042   -4.8667    0.0000 C   0  0  0  0  0  0  0  0  0  0  0  0
    5.2042   -5.5750    0.0000 C   0  0  0  0  0  0  0  0  0  0  0  0
    2.7542   -7.0542    0.0000 C   0  0  0  0  0  0  0  0  0  0  0  0
    5.8167   -6.6667    0.0000 C   0  0  0  0  0  0  0  0  0  0  0  0
    2.7292   -9.1917    0.0000 O   0  0  0  0  0  0  0  0  0  0  0  0
    5.8167   -5.9250    0.0000 C   0  0  0  0  0  0  0  0  0  0  0  0
    5.8000   -4.5167    0.0000 O   0  0  0  0  0  0  0  0  0  0  0  0
    6.3625   -5.6417    0.0000 O   0  0  0  0  0  0  0  0  0  0  0  0
    6.4417   -7.7542    0.0000 C   0  0  0  0  0  0  0  0  0  0  0  0
    2.1417   -6.7000    0.0000 C   0  0  0  0  0  0  0  0  0  0  0  0
    2.7542   -7.7542    0.0000 C   0  0  0  0  0  0  0  0  0  0  0  0
    1.5417   -7.0542    0.0000 C   0  0  0  0  0  0  0  0  0  0  0  0
  2  1  1  0
  3  2  1  0
  4  7  1  0
  5  1  1  0
  6  1  2  0
  3  7  1  0
  8  2  1  0
  9  5  2  0
 10 14  1  0
 11 12  1  0
 12 19  1  0
  8 13  1  0
 14  6  1  0
 15  9  1  0
 16  4  2  0
 17 11  1  0
 18 11  2  0
 19 20  1  0
 20 24  1  0
 21  4  1  0
 22 13  1  0
 14 23  1  0
 24 22  1  0
 19 25  1  0
 26 24  1  0
 15 27  1  0
 28 21  1  0
 21 29  1  0
 30 28  1  0
 10  3  1  0
 15  8  1  0
M  END
>  <Classification>  (70) 
0

>  <pchembl>  (70) 
4.21

>  <InChI_steorem>  (70) 
InChI=1S/C23H36O7/c1-4-13(2)23(29)30-20-11-17(25)9-15-6-5-14(3)19(22(15)20)8-7-16(24)10-18(26)12-21(27)28/h5-6,9,13-14,16-20,22,24-26H,4,7-8,10-12H2,1-3H3,(H,27,28)

>  <source>  (70) 
ChEMBL25

>  <source_id>  (70) 
25

>  <optional_reference>  (70) 
10.1021/jm300212s

>  <optional_origin>  (70) 
None

>  <target>  (70) 
OATP1B3

$$$$

     RDKit          2D

 32 34  0  0  0  0  0  0  0  0999 V2000
    3.7667   -0.4542    0.0000 C   0  0  0  0  0  0  0  0  0  0  0  0
    3.7667   -1.1667    0.0000 C   0  0  0  0  0  0  0  0  0  0  0  0
    2.5292   -0.4542    0.0000 C   0  0  0  0  0  0  0  0  0  0  0  0
    2.5292   -1.1667    0.0000 C   0  0  0  0  0  0  0  0  0  0  0  0
    3.1500   -0.0958    0.0000 C   0  0  0  0  0  0  0  0  0  0  0  0
    3.1500   -1.5292    0.0000 C   0  0  0  0  0  0  0  0  0  0  0  0
    4.3792   -1.5292    0.0000 C   0  0  0  0  0  0  0  0  0  0  0  0
    4.3792   -0.0958    0.0000 C   0  0  0  0  0  0  0  0  0  0  0  0
    1.9167   -0.0958    0.0000 C   0  0  0  0  0  0  0  0  0  0  0  0
    1.9167   -1.5292    0.0000 C   0  0  0  0  0  0  0  0  0  0  0  0
    3.1500    0.6083    0.0000 O   0  0  0  0  0  0  0  0  0  0  0  0
    3.1500   -2.2375    0.0000 O   0  0  0  0  0  0  0  0  0  0  0  0
    4.9917   -0.4542    0.0000 C   0  0  0  0  0  0  0  0  0  0  0  0
    4.9917   -1.1667    0.0000 C   0  0  0  0  0  0  0  0  0  0  0  0
    1.3042   -0.4542    0.0000 C   0  0  0  0  0  0  0  0  0  0  0  0
    1.3042   -1.1667    0.0000 C   0  0  0  0  0  0  0  0  0  0  0  0
    4.3792    0.6083    0.0000 N   0  0  0  0  0  0  0  0  0  0  0  0
    4.3792   -2.2375    0.0000 N   0  0  0  0  0  0  0  0  0  0  0  0
    1.9167    0.6083    0.0000 O   0  0  0  0  0  0  0  0  0  0  0  0
    1.9167   -2.2375    0.0000 O   0  0  0  0  0  0  0  0  0  0  0  0
    6.2292    0.9625    0.0000 N   0  0  0  0  0  0  0  0  0  0  0  0
    6.2292   -2.5917    0.0000 N   0  0  0  0  0  0  0  0  0  0  0  0
    8.0750   -2.2375    0.0000 O   0  0  0  0  0  0  0  0  0  0  0  0
    8.0750    0.6083    0.0000 O   0  0  0  0  0  0  0  0  0  0  0  0
    4.9917    0.9625    0.0000 C   0  0  0  0  0  0  0  0  0  0  0  0
    4.9917   -2.5917    0.0000 C   0  0  0  0  0  0  0  0  0  0  0  0
    5.6125   -2.2375    0.0000 C   0  0  0  0  0  0  0  0  0  0  0  0
    5.6125    0.6083    0.0000 C   0  0  0  0  0  0  0  0  0  0  0  0
    6.8417   -2.2375    0.0000 C   0  0  0  0  0  0  0  0  0  0  0  0
    6.8417    0.6083    0.0000 C   0  0  0  0  0  0  0  0  0  0  0  0
    7.4625   -2.5917    0.0000 C   0  0  0  0  0  0  0  0  0  0  0  0
    7.4625    0.9625    0.0000 C   0  0  0  0  0  0  0  0  0  0  0  0
  2  1  2  0
  3  5  1  0
  4  3  2  0
  5  1  1  0
  6  2  1  0
  7  2  1  0
  8  1  1  0
  9  3  1  0
 10  4  1  0
 11  5  2  0
 12  6  2  0
 13  8  2  0
 14 13  1  0
 15  9  2  0
 16 15  1  0
 17  8  1  0
 18  7  1  0
 19  9  1  0
 20 10  1  0
 21 28  1  0
 22 27  1  0
 23 31  1  0
 24 32  1  0
 25 17  1  0
 26 18  1  0
 27 26  1  0
 28 25  1  0
 29 22  1  0
 30 21  1  0
 31 29  1  0
 32 30  1  0
  4  6  1  0
 14  7  2  0
 16 10  2  0
M  END
>  <Classification>  (71) 
1

>  <pchembl>  (71) 
5.47

>  <InChI_steorem>  (71) 
InChI=1S/C22H28N4O6/c27-11-9-23-5-7-25-13-1-2-14(26-8-6-24-10-12-28)18-17(13)21(31)19-15(29)3-4-16(30)20(19)22(18)32/h1-4,23-30H,5-12H2

>  <source>  (71) 
ChEMBL25

>  <source_id>  (71) 
25

>  <optional_reference>  (71) 
10.1016/j.ejmech.2015.01.011

>  <optional_origin>  (71) 
None

>  <target>  (71) 
OATP1B3

$$$$

     RDKit          2D

 33 36  0  0  0  0  0  0  0  0999 V2000
   -0.1926  -25.6002    0.0000 C   0  0  0  0  0  0  0  0  0  0  0  0
   -0.1938  -26.4255    0.0000 C   0  0  0  0  0  0  0  0  0  0  0  0
    0.5193  -26.8373    0.0000 C   0  0  0  0  0  0  0  0  0  0  0  0
    1.2340  -26.4251    0.0000 C   0  0  0  0  0  0  0  0  0  0  0  0
    1.2311  -25.5965    0.0000 C   0  0  0  0  0  0  0  0  0  0  0  0
    0.5175  -25.1884    0.0000 C   0  0  0  0  0  0  0  0  0  0  0  0
   -0.9075  -25.1848    0.0000 C   0  0  0  0  0  0  0  0  0  0  0  0
   -0.9064  -24.3607    0.0000 C   0  0  0  0  0  0  0  0  0  0  0  0
   -1.6183  -23.9495    0.0000 C   0  0  0  0  0  0  0  0  0  0  0  0
   -2.3361  -24.3612    0.0000 C   0  0  0  0  0  0  0  0  0  0  0  0
   -2.3375  -25.1885    0.0000 C   0  0  0  0  0  0  0  0  0  0  0  0
   -1.6248  -25.6001    0.0000 C   0  0  0  0  0  0  0  0  0  0  0  0
   -3.0569  -25.6067    0.0000 C   0  0  0  0  0  0  0  0  0  0  0  0
   -3.7765  -25.1965    0.0000 O   0  0  0  0  0  0  0  0  0  0  0  0
   -3.0549  -26.4283    0.0000 O   0  0  0  0  0  0  0  0  0  0  0  0
    0.5192  -24.3654    0.0000 O   0  0  0  0  0  0  0  0  0  0  0  0
    1.9506  -25.1782    0.0000 N   0  0  0  0  0  0  0  0  0  0  0  0
    1.9458  -24.3525    0.0000 N   0  0  0  0  0  0  0  0  0  0  0  0
    2.6570  -23.9383    0.0000 C   0  0  0  0  0  0  0  0  0  0  0  0
    3.4386  -24.1942    0.0000 C   0  0  0  0  0  0  0  0  0  0  0  0
    3.9204  -23.5224    0.0000 N   0  0  0  0  0  0  0  0  0  0  0  0
    3.4398  -22.8609    0.0000 N   0  0  0  0  0  0  0  0  0  0  0  0
    2.6561  -23.1142    0.0000 C   0  0  0  0  0  0  0  0  0  0  0  0
    1.9881  -22.6202    0.0000 C   0  0  0  0  0  0  0  0  0  0  0  0
    3.6920  -24.9777    0.0000 O   0  0  0  0  0  0  0  0  0  0  0  0
    4.7434  -23.5596    0.0000 C   0  0  0  0  0  0  0  0  0  0  0  0
    5.1321  -24.2915    0.0000 C   0  0  0  0  0  0  0  0  0  0  0  0
    5.9543  -24.3249    0.0000 C   0  0  0  0  0  0  0  0  0  0  0  0
    6.3990  -23.6235    0.0000 C   0  0  0  0  0  0  0  0  0  0  0  0
    6.0115  -22.8992    0.0000 C   0  0  0  0  0  0  0  0  0  0  0  0
    5.1862  -22.8654    0.0000 C   0  0  0  0  0  0  0  0  0  0  0  0
    7.2220  -23.6348    0.0000 C   0  0  0  0  0  0  0  0  0  0  0  0
    6.3372  -25.0632    0.0000 C   0  0  0  0  0  0  0  0  0  0  0  0
  6 16  1  0
  5 17  1  0
  8  9  2  0
 17 18  1  0
  4  5  2  0
 18 19  2  3
 19 20  1  0
  9 10  1  0
  2  3  2  0
 10 11  2  0
  5  6  1  0
 20 21  1  0
 21 22  1  0
 22 23  2  0
 23 19  1  0
 11 12  1  0
 23 24  1  0
 12  7  2  0
 20 25  2  0
  1  7  1  0
 21 26  1  0
  6  1  2  0
 26 27  2  0
 11 13  1  0
 27 28  1  0
  1  2  1  0
 28 29  2  0
  3  4  1  0
 29 30  1  0
 13 14  1  0
 30 31  2  0
 31 26  1  0
 13 15  2  0
 29 32  1  0
  7  8  1  0
 28 33  1  0
M  END
>  <Classification>  (72) 
0

>  <pchembl>  (72) 
4.59

>  <InChI_steorem>  (72) 
InChI=1S/C25H22N4O4/c1-14-10-11-19(12-15(14)2)29-24(31)22(16(3)28-29)27-26-21-9-5-8-20(23(21)30)17-6-4-7-18(13-17)25(32)33/h4-13,26,30H,1-3H3,(H,32,33)

>  <source>  (72) 
ChEMBL25

>  <source_id>  (72) 
25

>  <optional_reference>  (72) 
10.1124/dmd.110.037960

>  <optional_origin>  (72) 
None

>  <target>  (72) 
OATP1B3

$$$$

     RDKit          2D

 34 36  0  0  0  0  0  0  0  0999 V2000
   19.8440  -19.9772    0.0000 C   0  0  0  0  0  0  0  0  0  0  0  0
   19.1281  -20.3897    0.0000 N   0  0  0  0  0  0  0  0  0  0  0  0
   18.4164  -19.9772    0.0000 C   0  0  0  0  0  0  0  0  0  0  0  0
   19.1281  -21.2147    0.0000 C   0  0  0  0  0  0  0  0  0  0  0  0
   18.4164  -21.6272    0.0000 O   0  0  0  0  0  0  0  0  0  0  0  0
   19.8440  -21.6272    0.0000 C   0  0  0  0  0  0  0  0  0  0  0  0
   19.8440  -22.4564    0.0000 C   0  0  0  0  0  0  0  0  0  0  0  0
   19.1281  -22.8689    0.0000 S   0  0  0  0  0  0  0  0  0  0  0  0
   19.1281  -23.6939    0.0000 C   0  0  0  0  0  0  0  0  0  0  0  0
   18.4164  -24.1064    0.0000 C   0  0  0  0  0  0  0  0  0  0  0  0
   18.4164  -24.9314    0.0000 C   0  0  0  0  0  0  0  0  0  0  0  0
   17.7006  -25.3439    0.0000 C   0  0  0  0  0  0  0  0  0  0  0  0
   16.9847  -24.9314    0.0000 C   0  0  0  0  0  0  0  0  0  0  0  0
   16.9847  -24.1064    0.0000 C   0  0  0  0  0  0  0  0  0  0  0  0
   17.7006  -23.6939    0.0000 C   0  0  0  0  0  0  0  0  0  0  0  0
   16.2730  -23.6939    0.0000 C   0  0  0  0  0  0  0  0  0  0  0  0
   15.5571  -24.1064    0.0000 C   0  0  0  0  0  0  0  0  0  0  0  0
   14.8413  -23.6939    0.0000 C   0  0  0  0  0  0  0  0  0  0  0  0
   14.1254  -24.1064    0.0000 N   0  0  0  0  0  0  0  0  0  0  0  0
   13.4137  -23.6939    0.0000 C   0  0  0  0  0  0  0  0  0  0  0  0
   13.4137  -22.8689    0.0000 C   0  0  0  0  0  0  0  0  0  0  0  0
   12.6978  -22.4564    0.0000 C   0  0  0  0  0  0  0  0  0  0  0  0
   11.9861  -22.8689    0.0000 C   0  0  0  0  0  0  0  0  0  0  0  0
   11.9861  -23.6939    0.0000 C   0  0  0  0  0  0  0  0  0  0  0  0
   12.6978  -24.1064    0.0000 C   0  0  0  0  0  0  0  0  0  0  0  0
   11.2703  -24.1064    0.0000 Cl  0  0  0  0  0  0  0  0  0  0  0  0
   14.1254  -22.4564    0.0000 C   0  0  0  0  0  0  0  0  0  0  0  0
   14.8413  -22.8689    0.0000 C   0  0  0  0  0  0  0  0  0  0  0  0
   19.8440  -24.1064    0.0000 S   0  0  0  0  0  0  0  0  0  0  0  0
   20.5598  -23.6939    0.0000 C   0  0  0  0  0  0  0  0  0  0  0  0
   20.5598  -22.8689    0.0000 C   0  0  0  0  0  0  0  0  0  0  0  0
   21.2715  -22.4564    0.0000 C   0  0  0  0  0  0  0  0  0  0  0  0
   21.2715  -21.6272    0.0000 O   0  0  0  0  0  0  0  0  0  0  0  0
   21.9874  -22.8689    0.0000 O   0  0  0  0  0  0  0  0  0  0  0  0
  1  2  1  0
  2  3  1  0
  2  4  1  0
  4  5  2  0
  4  6  1  0
  6  7  1  0
  7  8  1  0
  8  9  1  0
  9 10  1  0
 10 11  2  0
 11 12  1  0
 12 13  2  0
 13 14  1  0
 14 15  2  0
 10 15  1  0
 14 16  1  0
 16 17  2  3
 17 18  1  0
 18 19  2  0
 19 20  1  0
 20 21  2  0
 21 22  1  0
 22 23  2  0
 23 24  1  0
 24 25  2  0
 20 25  1  0
 24 26  1  0
 21 27  1  0
 27 28  2  0
 18 28  1  0
  9 29  1  0
 29 30  1  0
 30 31  1  0
 31 32  1  0
 32 33  2  0
 32 34  1  0
M  END
>  <Classification>  (73) 
1

>  <pchembl>  (73) 
5.19

>  <InChI_steorem>  (73) 
InChI=1S/C26H27ClN2O3S2/c1-29(2)24(30)12-14-33-26(34-15-13-25(31)32)20-5-3-4-18(16-20)6-10-22-11-8-19-7-9-21(27)17-23(19)28-22/h3-11,16-17,26H,12-15H2,1-2H3,(H,31,32)

>  <source>  (73) 
ChEMBL25

>  <source_id>  (73) 
25

>  <optional_reference>  (73) 
10.1021/jm300212s

>  <optional_origin>  (73) 
None

>  <target>  (73) 
OATP1B3

$$$$

     RDKit          2D

 34 39  0  0  0  0  0  0  0  0999 V2000
   19.9737   -6.5635    0.0000 C   0  0  0  0  0  0  0  0  0  0  0  0
   18.9737   -6.5591    0.0000 C   0  0  0  0  0  0  0  0  0  0  0  0
   18.4700   -7.4230    0.0000 O   0  0  0  0  0  0  0  0  0  0  0  0
   17.4700   -7.4186    0.0000 C   0  0  0  0  0  0  0  0  0  0  0  0
   16.9662   -8.2884    0.0000 C   0  0  0  0  0  0  0  0  0  0  0  0
   15.9662   -8.2841    0.0000 C   0  0  0  0  0  0  0  0  0  0  0  0
   15.4648   -7.4188    0.0000 C   0  0  0  0  0  0  0  0  0  0  0  0
   15.9686   -6.5490    0.0000 C   0  0  0  0  0  0  0  0  0  0  0  0
   16.9738   -6.5445    0.0000 C   0  0  0  0  0  0  0  0  0  0  0  0
   14.4648   -7.4189    0.0000 C   0  0  0  0  0  0  0  0  0  0  0  0
   13.8728   -6.6043    0.0000 N   0  0  0  0  0  0  0  0  0  0  0  0
   12.9150   -6.9153    0.0000 C   0  0  0  0  0  0  0  0  0  0  0  0
   12.0470   -6.4074    0.0000 C   0  0  0  0  0  0  0  0  0  0  0  0
   11.1790   -6.9153    0.0000 C   0  0  0  0  0  0  0  0  0  0  0  0
   11.1790   -7.9211    0.0000 C   0  0  0  0  0  0  0  0  0  0  0  0
   12.0470   -8.4190    0.0000 C   0  0  0  0  0  0  0  0  0  0  0  0
   12.9150   -7.9224    0.0000 C   0  0  0  0  0  0  0  0  0  0  0  0
   13.8728   -8.2337    0.0000 N   0  0  0  0  0  0  0  0  0  0  0  0
   10.3116   -6.4178    0.0000 C   0  0  0  0  0  0  0  0  0  0  0  0
   10.2033   -5.4167    0.0000 N   0  0  0  0  0  0  0  0  0  0  0  0
    9.2177   -5.2099    0.0000 C   0  0  0  0  0  0  0  0  0  0  0  0
    8.7175   -4.3375    0.0000 C   0  0  0  0  0  0  0  0  0  0  0  0
    7.7118   -4.3462    0.0000 C   0  0  0  0  0  0  0  0  0  0  0  0
    7.2114   -5.2187    0.0000 C   0  0  0  0  0  0  0  0  0  0  0  0
    7.7167   -6.0824    0.0000 C   0  0  0  0  0  0  0  0  0  0  0  0
    8.7167   -6.0835    0.0000 C   0  0  0  0  0  0  0  0  0  0  0  0
    9.3926   -6.8301    0.0000 N   0  0  0  0  0  0  0  0  0  0  0  0
    7.2069   -3.4831    0.0000 N   0  0  0  0  0  0  0  0  0  0  0  0
    7.6993   -2.6070    0.0000 C   0  0  0  0  0  0  0  0  0  0  0  0
    7.1917   -1.7395    0.0000 C   0  0  0  0  0  0  0  0  0  0  0  0
    6.1918   -1.7480    0.0000 N   0  0  0  0  0  0  0  0  0  0  0  0
    5.6868   -0.8849    0.0000 C   0  0  0  0  0  0  0  0  0  0  0  0
    5.6944   -2.6155    0.0000 C   0  0  0  0  0  0  0  0  0  0  0  0
    6.2019   -3.4831    0.0000 C   0  0  0  0  0  0  0  0  0  0  0  0
  1  2  1  0
  2  3  1  0
  3  4  1  0
  4  9  2  0
  4  5  1  0
  5  6  2  0
  6  7  1  0
  7  8  2  0
  8  9  1  0
  7 10  1  0
 10 18  1  0
 10 11  2  0
 11 12  1  0
 12 17  2  0
 12 13  1  0
 13 14  2  0
 14 15  1  0
 15 16  2  0
 16 17  1  0
 17 18  1  0
 14 19  1  0
 19 27  1  0
 19 20  2  0
 20 21  1  0
 21 26  2  0
 21 22  1  0
 22 23  2  0
 23 24  1  0
 24 25  2  0
 25 26  1  0
 26 27  1  0
 23 28  1  0
 28 34  1  0
 28 29  1  0
 29 30  1  0
 30 31  1  0
 31 32  1  0
 31 33  1  0
 33 34  1  0
M  END
>  <Classification>  (74) 
0

>  <pchembl>  (74) 
4.75

>  <InChI_steorem>  (74) 
InChI=1S/C27H28N6O/c1-3-34-21-8-4-18(5-9-21)26-28-22-10-6-19(16-24(22)30-26)27-29-23-11-7-20(17-25(23)31-27)33-14-12-32(2)13-15-33/h4-11,16-17H,3,12-15H2,1-2H3,(H,28,30)(H,29,31)

>  <source>  (74) 
ChEMBL25

>  <source_id>  (74) 
25

>  <optional_reference>  (74) 
10.1021/jm300212s

>  <optional_origin>  (74) 
None

>  <target>  (74) 
OATP1B3

$$$$

     RDKit          2D

 33 37  0  0  0  0  0  0  0  0999 V2000
    7.7569  -10.8177    0.0000 C   0  0  0  0  0  0  0  0  0  0  0  0
    7.7569  -11.6444    0.0000 C   0  0  0  0  0  0  0  0  0  0  0  0
    8.4690  -12.0556    0.0000 C   0  0  0  0  0  0  0  0  0  0  0  0
    8.4690  -10.4019    0.0000 C   0  0  0  0  0  0  0  0  0  0  0  0
    9.1857  -10.8177    0.0000 C   0  0  0  0  0  0  0  0  0  0  0  0
    9.1822  -11.6444    0.0000 C   0  0  0  0  0  0  0  0  0  0  0  0
    9.8925  -12.0586    0.0000 C   0  0  0  0  0  0  0  0  0  0  0  0
   10.6110  -11.6506    0.0000 C   0  0  0  0  0  0  0  0  0  0  0  0
    9.8995  -10.4050    0.0000 C   0  0  0  0  0  0  0  0  0  0  0  0
   10.6120  -10.8250    0.0000 C   0  0  0  0  0  0  0  0  0  0  0  0
   10.6255   -9.1740    0.0000 C   0  0  0  0  0  0  0  0  0  0  0  0
    9.9032   -9.5802    0.0000 C   0  0  0  0  0  0  0  0  0  0  0  0
   11.3379   -9.5940    0.0000 C   0  0  0  0  0  0  0  0  0  0  0  0
   11.3247  -10.4201    0.0000 C   0  0  0  0  0  0  0  0  0  0  0  0
   12.0296  -10.8422    0.0000 C   0  0  0  0  0  0  0  0  0  0  0  0
   12.7522  -10.4428    0.0000 C   0  0  0  0  0  0  0  0  0  0  0  0
   12.0559   -9.1900    0.0000 C   0  0  0  0  0  0  0  0  0  0  0  0
   12.7640   -9.6179    0.0000 C   0  0  0  0  0  0  0  0  0  0  0  0
   13.4846   -9.2208    0.0000 C   0  0  0  0  0  0  0  0  0  0  0  0
   13.5033   -8.3943    0.0000 C   0  0  0  0  0  0  0  0  0  0  0  0
   12.7953   -7.9665    0.0000 C   0  0  0  0  0  0  0  0  0  0  0  0
   12.0684   -8.3651    0.0000 C   0  0  0  0  0  0  0  0  0  0  0  0
    7.0448  -12.0556    0.0000 O   0  0  0  0  0  0  0  0  0  0  0  0
    7.8802  -12.6358    0.0000 C   0  0  0  0  0  0  0  0  0  0  0  0
    8.6751  -12.8460    0.0000 C   0  0  0  0  0  0  0  0  0  0  0  0
    9.1776   -9.9954    0.0000 C   0  0  0  0  0  0  0  0  0  0  0  0
   10.6029   -9.9999    0.0000 C   0  0  0  0  0  0  0  0  0  0  0  0
   11.3201  -11.2379    0.0000 C   0  0  0  0  0  0  0  0  0  0  0  0
   11.3641   -7.9409    0.0000 C   0  0  0  0  0  0  0  0  0  0  0  0
   12.8125   -7.1443    0.0000 C   0  0  0  0  0  0  0  0  0  0  0  0
   13.4718  -10.0273    0.0000 C   0  0  0  0  0  0  0  0  0  0  0  0
   13.4711  -10.8496    0.0000 O   0  0  0  0  0  0  0  0  0  0  0  0
   14.1842   -9.6168    0.0000 O   0  0  0  0  0  0  0  0  0  0  0  0
 16 18  1  0
 17 18  1  0
  5  9  1  0
  6  7  1  0
  7  8  1  0
  8 10  1  0
  9 10  1  0
  2  3  1  0
 17 22  1  0
 18 19  1  0
 19 20  1  0
 20 21  1  0
 21 22  1  0
  3  6  1  0
  2 23  1  0
  5  4  1  0
  3 24  1  0
  5  6  1  0
  3 25  1  0
  9 12  1  0
  5 26  1  0
 10 14  1  0
 13 11  2  0
 11 12  1  0
 10 27  1  0
 13 14  1  0
 14 28  1  0
  1  2  1  0
 22 29  1  0
 21 30  1  0
  1  4  1  0
 18 31  1  0
 13 17  1  0
 31 32  2  0
 14 15  1  0
 31 33  1  0
 15 16  1  0
M  END
>  <Classification>  (75) 
0

>  <pchembl>  (75) 
4.94

>  <InChI_steorem>  (75) 
InChI=1S/C30H48O3/c1-18-10-15-30(25(32)33)17-16-28(6)20(24(30)19(18)2)8-9-22-27(5)13-12-23(31)26(3,4)21(27)11-14-29(22,28)7/h8,18-19,21-24,31H,9-17H2,1-7H3,(H,32,33)

>  <source>  (75) 
ChEMBL25

>  <source_id>  (75) 
25

>  <optional_reference>  (75) 
10.1124/mol.112.084152

>  <optional_origin>  (75) 
None

>  <target>  (75) 
OATP1B3

$$$$

     RDKit          2D

 35 39  0  0  0  0  0  0  0  0999 V2000
    2.6542   -1.2042    0.0000 C   0  0  0  0  0  0  0  0  0  0  0  0
    3.3250   -0.9917    0.0000 C   0  0  0  0  0  0  0  0  0  0  0  0
    1.4417   -1.9125    0.0000 C   0  0  0  0  0  0  0  0  0  0  0  0
    0.8125   -2.2292    0.0000 C   0  0  0  0  0  0  0  0  0  0  0  0
    2.6542   -1.8917    0.0000 C   0  0  0  0  0  0  0  0  0  0  0  0
    2.0417   -2.2667    0.0000 C   0  0  0  0  0  0  0  0  0  0  0  0
    0.8125   -2.9667    0.0000 C   0  0  0  0  0  0  0  0  0  0  0  0
    3.9417   -0.6292    0.0000 O   0  0  0  0  0  0  0  0  0  0  0  0
    1.4417   -1.1917    0.0000 C   0  0  0  0  0  0  0  0  0  0  0  0
    2.0417   -0.8417    0.0000 C   0  0  0  0  0  0  0  0  0  0  0  0
    3.7042   -1.5625    0.0000 C   0  0  0  0  0  0  0  0  0  0  0  0
    4.6542   -0.6292    0.0000 C   0  0  0  0  0  0  0  0  0  0  0  0
    0.1792   -1.8750    0.0000 C   0  0  0  0  0  0  0  0  0  0  0  0
    3.3250   -2.1000    0.0000 C   0  0  0  0  0  0  0  0  0  0  0  0
    5.0125   -0.0125    0.0000 C   0  0  0  0  0  0  0  0  0  0  0  0
    0.1792   -3.3042    0.0000 C   0  0  0  0  0  0  0  0  0  0  0  0
    3.3250   -0.2792    0.0000 C   0  0  0  0  0  0  0  0  0  0  0  0
    2.0417   -2.9667    0.0000 C   0  0  0  0  0  0  0  0  0  0  0  0
   -0.4375   -2.2250    0.0000 C   0  0  0  0  0  0  0  0  0  0  0  0
   -0.4333   -2.9292    0.0000 C   0  0  0  0  0  0  0  0  0  0  0  0
    5.6917    0.2042    0.0000 O   0  0  0  0  0  0  0  0  0  0  0  0
    1.4292   -3.3292    0.0000 C   0  0  0  0  0  0  0  0  0  0  0  0
    5.0125   -1.2500    0.0000 O   0  0  0  0  0  0  0  0  0  0  0  0
    4.5958    0.5708    0.0000 C   0  0  0  0  0  0  0  0  0  0  0  0
    1.4417   -2.6292    0.0000 Cl  0  0  0  0  0  0  0  0  0  0  0  0
    5.6958    0.9125    0.0000 C   0  0  0  0  0  0  0  0  0  0  0  0
    2.7042    0.0750    0.0000 O   0  0  0  0  0  0  0  0  0  0  0  0
    5.0208    1.1417    0.0000 C   0  0  0  0  0  0  0  0  0  0  0  0
   -1.0625   -3.2917    0.0000 O   0  0  0  0  0  0  0  0  0  0  0  0
    2.6542   -0.4917    0.0000 C   0  0  0  0  0  0  0  0  0  0  0  0
    0.8250   -0.8542    0.0000 O   0  0  0  0  0  0  0  0  0  0  0  0
    0.8125   -1.5167    0.0000 C   0  0  0  0  0  0  0  0  0  0  0  0
    3.9375    0.0833    0.0000 C   0  0  0  0  0  0  0  0  0  0  0  0
    3.9292    0.7958    0.0000 Cl  0  0  0  0  0  0  0  0  0  0  0  0
    4.4167   -1.5667    0.0000 C   0  0  0  0  0  0  0  0  0  0  0  0
  2  1  1  0
  3  9  1  0
  4  3  1  0
  5  1  1  0
  6  5  1  0
  7  4  1  0
  2  8  1  0
  9 10  1  0
 10  1  1  0
 11  2  1  0
 12  8  1  0
 13  4  1  0
 14  5  1  0
 15 12  1  0
 16  7  2  0
 17  2  1  0
 18  6  1  0
 19 13  2  0
 20 19  1  0
 21 15  1  0
 22 18  1  0
 23 12  2  0
 24 15  2  0
  3 25  1  0
 26 21  1  0
 27 17  2  0
 28 24  1  0
 29 20  2  0
  1 30  1  0
  9 31  1  0
  4 32  1  0
 33 17  1  0
 34 33  1  0
 11 35  1  0
 14 11  1  0
  3  6  1  0
  7 22  1  0
 28 26  2  0
 20 16  1  0
M  END
>  <Classification>  (76) 
1

>  <pchembl>  (76) 
5.94

>  <InChI_steorem>  (76) 
InChI=1S/C27H30Cl2O6/c1-15-11-19-18-7-6-16-12-17(30)8-9-24(16,2)26(18,29)21(31)13-25(19,3)27(15,22(32)14-28)35-23(33)20-5-4-10-34-20/h4-5,8-10,12,15,18-19,21,31H,6-7,11,13-14H2,1-3H3

>  <source>  (76) 
ChEMBL25

>  <source_id>  (76) 
25

>  <optional_reference>  (76) 
10.1124/mol.112.084152

>  <optional_origin>  (76) 
None

>  <target>  (76) 
OATP1B3

$$$$

     RDKit          2D

 50 53  0  0  0  0  0  0  0  0999 V2000
  -16.7652   -0.1473    0.0000 C   0  0  0  0  0  0  0  0  0  0  0  0
  -16.3527   -0.8618    0.0000 C   0  0  0  0  0  0  0  0  0  0  0  0
  -15.5277   -0.8618    0.0000 O   0  0  0  0  0  0  0  0  0  0  0  0
  -14.8132   -1.2743    0.0000 C   0  0  0  0  0  0  0  0  0  0  0  0
  -14.0987   -0.8618    0.0000 C   0  0  0  0  0  0  0  0  0  0  0  0
  -14.0987   -0.0368    0.0000 C   0  0  0  0  0  0  0  0  0  0  0  0
  -13.6862   -1.5763    0.0000 C   0  0  0  0  0  0  0  0  0  0  0  0
  -14.8132    0.3757    0.0000 O   0  0  0  0  0  0  0  0  0  0  0  0
  -13.3843    0.3757    0.0000 C   0  0  0  0  0  0  0  0  0  0  0  0
  -13.3843    1.2007    0.0000 C   0  0  0  0  0  0  0  0  0  0  0  0
  -12.5874    0.1622    0.0000 C   0  0  0  0  0  0  0  0  0  0  0  0
  -12.3739   -0.6347    0.0000 O   0  0  0  0  0  0  0  0  0  0  0  0
  -11.7905    0.3757    0.0000 C   0  0  0  0  0  0  0  0  0  0  0  0
  -11.8447    1.2080    0.0000 C   0  0  0  0  0  0  0  0  0  0  0  0
  -10.9655    0.3757    0.0000 C   0  0  0  0  0  0  0  0  0  0  0  0
  -10.2510    0.7882    0.0000 C   0  0  0  0  0  0  0  0  0  0  0  0
   -9.5365    0.3757    0.0000 C   0  0  0  0  0  0  0  0  0  0  0  0
   -9.5365   -0.4493    0.0000 C   0  0  0  0  0  0  0  0  0  0  0  0
   -8.8221   -0.8618    0.0000 C   0  0  0  0  0  0  0  0  0  0  0  0
  -10.2510   -0.8618    0.0000 C   0  0  0  0  0  0  0  0  0  0  0  0
  -10.8344   -0.2784    0.0000 O   0  0  0  0  0  0  0  0  0  0  0  0
  -10.2510   -1.6868    0.0000 N   0  0  0  0  0  0  0  0  0  0  0  0
  -10.6635   -2.4013    0.0000 C   0  0  0  0  0  0  0  0  0  0  0  0
  -12.0925   -2.4013    0.0000 C   0  0  0  0  0  0  0  0  0  0  0  0
  -12.8069   -1.9888    0.0000 C   0  0  0  0  0  0  0  0  0  0  0  0
  -13.5215   -2.4013    0.0000 C   0  0  0  0  0  0  0  0  0  0  0  0
  -13.5215   -3.2263    0.0000 C   0  0  0  0  0  0  0  0  0  0  0  0
  -12.8069   -3.6388    0.0000 C   0  0  0  0  0  0  0  0  0  0  0  0
  -11.3780   -3.6388    0.0000 C   0  0  0  0  0  0  0  0  0  0  0  0
  -10.6635   -3.2263    0.0000 C   0  0  0  0  0  0  0  0  0  0  0  0
  -11.3780   -1.9888    0.0000 C   0  0  0  0  0  0  0  0  0  0  0  0
  -11.3780   -1.1638    0.0000 O   0  0  0  0  0  0  0  0  0  0  0  0
  -12.5934   -1.1919    0.0000 O   0  0  0  0  0  0  0  0  0  0  0  0
  -11.3780   -4.4638    0.0000 O   0  0  0  0  0  0  0  0  0  0  0  0
  -14.1345   -3.7783    0.0000 O   0  0  0  0  0  0  0  0  0  0  0  0
  -13.7989   -4.5320    0.0000 C   0  0  0  0  0  0  0  0  0  0  0  0
  -12.9785   -4.4457    0.0000 C   0  0  0  0  0  0  0  0  0  0  0  0
  -12.4264   -5.0588    0.0000 O   0  0  0  0  0  0  0  0  0  0  0  0
  -13.5854   -5.3288    0.0000 C   0  0  0  0  0  0  0  0  0  0  0  0
  -14.6239   -4.5320    0.0000 O   0  0  0  0  0  0  0  0  0  0  0  0
  -14.8375   -3.7351    0.0000 C   0  0  0  0  0  0  0  0  0  0  0  0
  -15.6344   -3.5215    0.0000 C   0  0  0  0  0  0  0  0  0  0  0  0
  -16.0469   -2.8071    0.0000 C   0  0  0  0  0  0  0  0  0  0  0  0
  -16.8438   -2.5935    0.0000 O   0  0  0  0  0  0  0  0  0  0  0  0
  -15.3324   -2.3946    0.0000 C   0  0  0  0  0  0  0  0  0  0  0  0
  -14.6179   -2.8071    0.0000 C   0  0  0  0  0  0  0  0  0  0  0  0
  -14.1048   -1.8179    0.0000 C   0  0  0  0  0  0  0  0  0  0  0  0
  -16.9360   -1.4452    0.0000 O   0  0  0  0  0  0  0  0  0  0  0  0
  -12.0925   -3.2263    0.0000 C   0  0  0  0  0  0  0  0  0  0  0  0
  -17.6407   -2.8070    0.0000 C   0  0  0  0  0  0  0  0  0  0  0  0
  1  2  1  0
  2  3  1  0
  4  3  1  0
  4  5  1  0
  5  6  1  0
  5  7  1  0
  6  8  1  0
  6  9  1  0
  9 10  1  0
  9 11  1  0
 11 12  1  0
 11 13  1  0
 13 14  1  0
 13 15  1  0
 15 16  2  0
 16 17  1  0
 17 18  2  0
 18 19  1  0
 18 20  1  0
 20 21  2  0
 20 22  1  0
 22 23  1  0
 30 23  1  0
 23 31  2  0
 24 25  2  0
 24 31  1  0
 25 26  1  0
 26 27  2  0
 29 30  2  0
 31 32  1  0
 25 33  1  0
 29 34  1  0
 27 35  1  0
 27 28  1  0
 37 28  1  0
 35 36  1  0
 36 37  1  0
 37 38  2  0
 36 39  1  0
 36 40  1  0
 40 41  1  0
 41 42  2  0
 42 43  1  0
 43 44  1  0
 43 45  1  0
  4 45  1  0
 45 46  1  0
 26 47  1  0
  2 48  2  0
 24 49  1  0
 28 49  2  0
 49 29  1  0
 44 50  1  0
M  END
>  <Classification>  (77) 
1

>  <pchembl>  (77) 
5.52

>  <InChI_steorem>  (77) 
InChI=1S/C37H47NO12/c1-16-11-10-12-17(2)36(46)38-23-15-24(40)26-27(32(23)44)31(43)21(6)34-28(26)35(45)37(8,50-34)48-14-13-25(47-9)18(3)33(49-22(7)39)20(5)30(42)19(4)29(16)41/h10-16,18-20,25,29-30,33,40-44H,1-9H3,(H,38,46)

>  <source>  (77) 
ChEMBL25

>  <source_id>  (77) 
25

>  <optional_reference>  (77) 
10.1053/jhep.2002.34133

>  <optional_origin>  (77) 
None

>  <target>  (77) 
OATP1B3

$$$$

     RDKit          2D

 27 29  0  0  0  0  0  0  0  0999 V2000
    1.7864   -9.5123    0.0000 C   0  0  0  0  0  0  0  0  0  0  0  0
    1.7847  -10.3289    0.0000 C   0  0  0  0  0  0  0  0  0  0  0  0
    2.4901  -10.7380    0.0000 C   0  0  0  0  0  0  0  0  0  0  0  0
    2.4916   -9.1033    0.0000 C   0  0  0  0  0  0  0  0  0  0  0  0
    3.1979   -9.5068    0.0000 C   0  0  0  0  0  0  0  0  0  0  0  0
    3.1989  -10.3292    0.0000 C   0  0  0  0  0  0  0  0  0  0  0  0
    3.9091  -10.7326    0.0000 O   0  0  0  0  0  0  0  0  0  0  0  0
    4.6211  -10.3204    0.0000 C   0  0  0  0  0  0  0  0  0  0  0  0
    4.6160   -9.5021    0.0000 C   0  0  0  0  0  0  0  0  0  0  0  0
    3.9030   -9.0919    0.0000 O   0  0  0  0  0  0  0  0  0  0  0  0
    5.3277  -10.7302    0.0000 C   0  0  0  0  0  0  0  0  0  0  0  0
    6.0351  -10.3187    0.0000 O   0  0  0  0  0  0  0  0  0  0  0  0
    6.7418  -10.7244    0.0000 C   0  0  0  0  0  0  0  0  0  0  0  0
    6.7433  -11.5423    0.0000 C   0  0  0  0  0  0  0  0  0  0  0  0
    7.4487  -11.9479    0.0000 C   0  0  0  0  0  0  0  0  0  0  0  0
    8.1576  -11.5363    0.0000 C   0  0  0  0  0  0  0  0  0  0  0  0
    8.1543  -10.7168    0.0000 C   0  0  0  0  0  0  0  0  0  0  0  0
    7.4440  -10.3127    0.0000 C   0  0  0  0  0  0  0  0  0  0  0  0
    8.8691  -11.9446    0.0000 C   0  0  0  0  0  0  0  0  0  0  0  0
    8.8700  -12.7618    0.0000 C   0  0  0  0  0  0  0  0  0  0  0  0
    9.5816  -13.1661    0.0000 C   0  0  0  0  0  0  0  0  0  0  0  0
    9.5825  -13.9833    0.0000 O   0  0  0  0  0  0  0  0  0  0  0  0
   10.2841  -12.7531    0.0000 O   0  0  0  0  0  0  0  0  0  0  0  0
    9.5716  -11.5317    0.0000 C   0  0  0  0  0  0  0  0  0  0  0  0
   10.2727  -11.1153    0.0000 C   0  0  0  0  0  0  0  0  0  0  0  0
   10.9787  -10.6985    0.0000 C   0  0  0  0  0  0  0  0  0  0  0  0
    1.0751  -10.7366    0.0000 Cl  0  0  0  0  0  0  0  0  0  0  0  0
  1  2  2  0
  2  3  1  0
  3  6  2  0
  5  4  2  0
  4  1  1  0
  5  6  1  0
  5 10  1  0
  6  7  1  0
  7  8  1  0
  8  9  1  0
  9 10  1  0
  8 11  1  0
 11 12  1  0
 12 13  1  0
 13 14  2  0
 14 15  1  0
 15 16  2  0
 16 17  1  0
 17 18  2  0
 18 13  1  0
 16 19  1  0
 19 20  1  0
 20 21  1  0
 21 22  1  0
 21 23  2  0
 19 24  1  0
 24 25  3  0
 25 26  1  0
  2 27  1  0
M  END
>  <Classification>  (78) 
0

>  <pchembl>  (78) 
4.4

>  <InChI_steorem>  (78) 
InChI=1S/C21H19ClO5/c1-2-3-15(10-21(23)24)14-4-7-17(8-5-14)25-12-18-13-26-19-9-6-16(22)11-20(19)27-18/h4-9,11,15,18H,10,12-13H2,1H3,(H,23,24)

>  <source>  (78) 
ChEMBL26

>  <source_id>  (78) 
26

>  <optional_reference>  (78) 
10.1016/j.bmc.2018.10.019

>  <optional_origin>  (78) 
None

>  <target>  (78) 
OATP1B3

$$$$

     RDKit          2D

 37 40  0  0  0  0  0  0  0  0999 V2000
   10.0417  -18.6625    0.0000 O   0  0  0  0  0  0  0  0  0  0  0  0
    9.6333  -17.9500    0.0000 S   0  0  0  0  0  0  0  0  0  0  0  0
    9.2205  -18.6599    0.0000 O   0  0  0  0  0  0  0  0  0  0  0  0
   13.2111  -16.7166    0.0000 C   0  0  0  0  0  0  0  0  0  0  0  0
   13.2099  -17.5440    0.0000 C   0  0  0  0  0  0  0  0  0  0  0  0
   13.9247  -17.9569    0.0000 C   0  0  0  0  0  0  0  0  0  0  0  0
   14.6412  -17.5435    0.0000 C   0  0  0  0  0  0  0  0  0  0  0  0
   14.6383  -16.7130    0.0000 C   0  0  0  0  0  0  0  0  0  0  0  0
   13.9229  -16.3039    0.0000 C   0  0  0  0  0  0  0  0  0  0  0  0
   13.9205  -15.4789    0.0000 C   0  0  0  0  0  0  0  0  0  0  0  0
   15.3563  -17.9549    0.0000 C   0  0  0  0  0  0  0  0  0  0  0  0
   15.3482  -16.2991    0.0000 C   0  0  0  0  0  0  0  0  0  0  0  0
   16.0645  -16.7106    0.0000 C   0  0  0  0  0  0  0  0  0  0  0  0
   16.7769  -16.2961    0.0000 C   0  0  0  0  0  0  0  0  0  0  0  0
   16.7742  -15.4703    0.0000 C   0  0  0  0  0  0  0  0  0  0  0  0
   16.0532  -15.0606    0.0000 C   0  0  0  0  0  0  0  0  0  0  0  0
   15.3437  -15.4775    0.0000 C   0  0  0  0  0  0  0  0  0  0  0  0
   12.4951  -17.9559    0.0000 O   0  0  0  0  0  0  0  0  0  0  0  0
   17.4927  -16.7063    0.0000 C   0  0  0  0  0  0  0  0  0  0  0  0
   18.2058  -16.2914    0.0000 O   0  0  0  0  0  0  0  0  0  0  0  0
   18.9217  -16.7016    0.0000 C   0  0  0  0  0  0  0  0  0  0  0  0
   18.9208  -17.5261    0.0000 C   0  0  0  0  0  0  0  0  0  0  0  0
   19.6357  -17.9362    0.0000 C   0  0  0  0  0  0  0  0  0  0  0  0
   19.6289  -16.2857    0.0000 C   0  0  0  0  0  0  0  0  0  0  0  0
   20.3445  -16.6920    0.0000 C   0  0  0  0  0  0  0  0  0  0  0  0
   20.3457  -17.5168    0.0000 C   0  0  0  0  0  0  0  0  0  0  0  0
   21.1312  -17.7703    0.0000 C   0  0  0  0  0  0  0  0  0  0  0  0
   21.6144  -17.1025    0.0000 C   0  0  0  0  0  0  0  0  0  0  0  0
   21.1285  -16.4360    0.0000 O   0  0  0  0  0  0  0  0  0  0  0  0
   21.5313  -18.4918    0.0000 C   0  0  0  0  0  0  0  0  0  0  0  0
   22.3562  -18.5061    0.0000 C   0  0  0  0  0  0  0  0  0  0  0  0
   22.7562  -19.2276    0.0000 O   0  0  0  0  0  0  0  0  0  0  0  0
   22.7810  -17.7989    0.0000 O   0  0  0  0  0  0  0  0  0  0  0  0
   11.7810  -17.5429    0.0000 C   0  0  0  0  0  0  0  0  0  0  0  0
   11.0662  -17.9548    0.0000 C   0  0  0  0  0  0  0  0  0  0  0  0
   10.3520  -17.5417    0.0000 C   0  0  0  0  0  0  0  0  0  0  0  0
    8.9231  -17.5406    0.0000 C   0  0  0  0  0  0  0  0  0  0  0  0
  3  2  2  0
 14 19  1  0
  9 10  1  0
 19 20  1  0
  5  6  1  0
 20 21  1  0
  7 11  1  0
 21 22  2  0
 22 23  1  0
 23 26  2  0
  6  7  2  0
 25 24  2  0
 24 21  1  0
 25 26  1  0
 12 13  2  0
  2  1  2  0
 13 14  1  0
  7  8  1  0
 14 15  2  0
 26 27  1  0
 27 28  1  0
 28 29  1  0
 29 25  1  0
  4  5  2  0
 27 30  1  0
 15 16  1  0
 30 31  1  0
  8  9  2  0
 31 32  1  0
 16 17  2  0
 31 33  2  0
 17 12  1  0
 18 34  1  0
  8 12  1  0
 34 35  1  0
  9  4  1  0
 35 36  1  0
 36  2  1  0
  5 18  1  0
  2 37  1  0
M  END
>  <Classification>  (79) 
0

>  <pchembl>  (79) 
4.95

>  <InChI_steorem>  (79) 
InChI=1S/C29H32O7S/c1-19-12-25(34-10-5-11-37(3,32)33)13-20(2)29(19)22-7-4-6-21(14-22)17-35-24-8-9-26-23(15-28(30)31)18-36-27(26)16-24/h4,6-9,12-14,16,23H,5,10-11,15,17-18H2,1-3H3,(H,30,31)

>  <source>  (79) 
ChEMBL26

>  <source_id>  (79) 
26

>  <optional_reference>  (79) 
10.1016/j.bmc.2018.10.019

>  <optional_origin>  (79) 
None

>  <target>  (79) 
OATP1B3

$$$$

     RDKit          2D

 22 26  0  0  0  0  0  0  0  0999 V2000
    2.1274   -4.1836    0.0000 C   0  0  0  0  0  0  0  0  0  0  0  0
    2.7822   -3.1780    0.0000 C   0  0  0  0  0  0  0  0  0  0  0  0
    3.5834   -4.4391    0.0000 C   0  0  0  0  0  0  0  0  0  0  0  0
    5.0319   -4.0493    0.0000 C   0  0  0  0  0  0  0  0  0  0  0  0
    5.1088   -2.5513    0.0000 C   0  0  0  0  0  0  0  0  0  0  0  0
    3.7175   -2.0053    0.0000 N   0  0  0  0  0  0  0  0  0  0  0  0
    3.1695   -0.6090    0.0000 C   0  0  0  0  0  0  0  0  0  0  0  0
    1.6852   -0.3846    0.0000 C   0  0  0  0  0  0  0  0  0  0  0  0
    1.3514    1.0778    0.0000 N   0  0  0  0  0  0  0  0  0  0  0  0
    0.0000    1.7286    0.0000 N   0  0  0  0  0  0  0  0  0  0  0  0
   -1.3515    1.0777    0.0000 C   0  0  0  0  0  0  0  0  0  0  0  0
   -2.2897    1.8259    0.0000 O   0  0  0  0  0  0  0  0  0  0  0  0
   -1.6852   -0.3847    0.0000 C   0  0  0  0  0  0  0  0  0  0  0  0
   -3.1698   -0.7284    0.0000 C   0  0  0  0  0  0  0  0  0  0  0  0
   -3.6474   -2.1504    0.0000 C   0  0  0  0  0  0  0  0  0  0  0  0
   -4.8236   -2.3883    0.0000 F   0  0  0  0  0  0  0  0  0  0  0  0
   -2.6548   -3.2749    0.0000 C   0  0  0  0  0  0  0  0  0  0  0  0
   -1.1558   -3.0222    0.0000 C   0  0  0  0  0  0  0  0  0  0  0  0
    0.0836   -3.8671    0.0000 N   0  0  0  0  0  0  0  0  0  0  0  0
    1.2990   -2.9545    0.0000 C   0  0  0  0  0  0  0  0  0  0  0  0
    0.7500   -1.5574    0.0000 C   0  0  0  0  0  0  0  0  0  0  0  0
   -0.7500   -1.5574    0.0000 C   0  0  0  0  0  0  0  0  0  0  0  0
  2  1  1  0
  2  3  1  0
  3  4  1  0
  4  5  1  0
  5  6  1  0
  6  2  1  0
  6  7  1  0
  7  8  1  0
  8  9  2  0
  9 10  1  0
 10 11  1  0
 11 12  2  0
 11 13  1  0
 13 14  1  0
 14 15  2  0
 15 16  1  0
 15 17  1  0
 17 18  2  0
 18 19  1  0
 19 20  1  0
 20  2  1  0
 20 21  2  0
 21  8  1  0
 21 22  1  0
 22 13  2  0
 22 18  1  0
M  END
>  <Classification>  (80) 
0

>  <pchembl>  (80) 
4.71

>  <InChI_steorem>  (80) 
InChI=1S/C16H15FN4O/c1-16-3-2-4-21(16)7-11-13-12-9(15(22)20-19-11)5-8(17)6-10(12)18-14(13)16/h5-6,18H,2-4,7H2,1H3,(H,20,22)

>  <source>  (80) 
ChEMBL30

>  <source_id>  (80) 
30

>  <optional_reference>  (80) 
10.1021/acs.jmedchem.0c01346

>  <optional_origin>  (80) 
None

>  <target>  (80) 
OATP1B3

$$$$

     RDKit          2D

 32 34  0  0  0  0  0  0  0  0999 V2000
   21.7397   -4.8789    0.0000 C   0  0  0  0  0  0  0  0  0  0  0  0
   21.7385   -5.7064    0.0000 N   0  0  0  0  0  0  0  0  0  0  0  0
   22.4533   -6.1191    0.0000 C   0  0  0  0  0  0  0  0  0  0  0  0
   23.1697   -5.7058    0.0000 C   0  0  0  0  0  0  0  0  0  0  0  0
   23.1668   -4.8753    0.0000 C   0  0  0  0  0  0  0  0  0  0  0  0
   22.4515   -4.4663    0.0000 C   0  0  0  0  0  0  0  0  0  0  0  0
   22.4581   -6.9441    0.0000 C   0  0  0  0  0  0  0  0  0  0  0  0
   21.7905   -7.4289    0.0000 N   0  0  0  0  0  0  0  0  0  0  0  0
   22.0454   -8.2136    0.0000 N   0  0  0  0  0  0  0  0  0  0  0  0
   22.8703   -8.2138    0.0000 N   0  0  0  0  0  0  0  0  0  0  0  0
   23.1253   -7.4292    0.0000 C   0  0  0  0  0  0  0  0  0  0  0  0
   23.9101   -7.1744    0.0000 C   0  0  0  0  0  0  0  0  0  0  0  0
   24.5229   -7.7266    0.0000 O   0  0  0  0  0  0  0  0  0  0  0  0
   25.3076   -7.4718    0.0000 C   0  0  0  0  0  0  0  0  0  0  0  0
   25.4793   -6.6649    0.0000 O   0  0  0  0  0  0  0  0  0  0  0  0
   25.9206   -8.0239    0.0000 N   0  0  0  0  0  0  0  0  0  0  0  0
   26.7052   -7.7691    0.0000 C   0  0  0  0  0  0  0  0  0  0  0  0
   25.7489   -8.8308    0.0000 C   0  0  0  0  0  0  0  0  0  0  0  0
   22.4490   -3.6413    0.0000 O   0  0  0  0  0  0  0  0  0  0  0  0
   23.1622   -3.2267    0.0000 C   0  0  0  0  0  0  0  0  0  0  0  0
   23.8799   -3.6409    0.0000 C   0  0  0  0  0  0  0  0  0  0  0  0
   24.5910   -3.2298    0.0000 C   0  0  0  0  0  0  0  0  0  0  0  0
   24.5927   -2.4044    0.0000 C   0  0  0  0  0  0  0  0  0  0  0  0
   23.8772   -1.9919    0.0000 C   0  0  0  0  0  0  0  0  0  0  0  0
   23.1599   -2.4047    0.0000 C   0  0  0  0  0  0  0  0  0  0  0  0
   25.3050   -3.6428    0.0000 C   0  0  0  0  0  0  0  0  0  0  0  0
   25.3044   -4.4678    0.0000 O   0  0  0  0  0  0  0  0  0  0  0  0
   26.0199   -3.2309    0.0000 O   0  0  0  0  0  0  0  0  0  0  0  0
   21.0251   -4.4667    0.0000 C   0  0  0  0  0  0  0  0  0  0  0  0
   23.3552   -8.8813    0.0000 C   0  0  0  0  0  0  0  0  0  0  0  0
   27.3182   -8.3212    0.0000 C   0  0  0  0  0  0  0  0  0  0  0  0
   28.1029   -8.0665    0.0000 C   0  0  0  0  0  0  0  0  0  0  0  0
  1  2  2  0
  2  3  1  0
  3  4  2  0
  4  5  1  0
  5  6  2  0
  6  1  1  0
  7  8  1  0
  8  9  2  0
  9 10  1  0
 10 11  1  0
 11  7  2  0
  3  7  1  0
 11 12  1  0
 12 13  1  0
 13 14  1  0
 14 15  2  0
 14 16  1  0
 16 17  1  0
 16 18  1  0
  6 19  1  0
 20 19  1  0
 20 21  1  0
 20 25  1  0
 21 22  1  0
 22 23  1  0
 23 24  1  0
 24 25  1  0
 22 26  1  0
 26 27  2  0
 26 28  1  0
  1 29  1  0
 10 30  1  0
 17 31  1  0
 31 32  1  0
M  END
>  <Classification>  (81) 
1

>  <pchembl>  (81) 
5.0

>  <InChI_steorem>  (81) 
InChI=1S/C22H31N5O5/c1-5-11-26(3)22(30)31-13-18-20(24-25-27(18)4)17-9-10-19(14(2)23-17)32-16-8-6-7-15(12-16)21(28)29/h9-10,15-16H,5-8,11-13H2,1-4H3,(H,28,29)

>  <source>  (81) 
ChEMBL32

>  <source_id>  (81) 
32

>  <optional_reference>  (81) 
10.1021/acs.jmedchem.1c01256

>  <optional_origin>  (81) 
None

>  <target>  (81) 
OATP1B3

$$$$

     RDKit          2D

 34 37  0  0  0  0  0  0  0  0999 V2000
   12.3235   -4.9333    0.0000 C   0  0  0  0  0  0  0  0  0  0  0  0
   12.3224   -5.7606    0.0000 N   0  0  0  0  0  0  0  0  0  0  0  0
   13.0372   -6.1735    0.0000 C   0  0  0  0  0  0  0  0  0  0  0  0
   13.7537   -5.7602    0.0000 C   0  0  0  0  0  0  0  0  0  0  0  0
   13.7509   -4.9297    0.0000 C   0  0  0  0  0  0  0  0  0  0  0  0
   13.0354   -4.5205    0.0000 C   0  0  0  0  0  0  0  0  0  0  0  0
   13.0420   -6.9985    0.0000 C   0  0  0  0  0  0  0  0  0  0  0  0
   12.3745   -7.4833    0.0000 N   0  0  0  0  0  0  0  0  0  0  0  0
   12.6292   -8.2680    0.0000 N   0  0  0  0  0  0  0  0  0  0  0  0
   13.4544   -8.2682    0.0000 N   0  0  0  0  0  0  0  0  0  0  0  0
   13.7094   -7.4836    0.0000 C   0  0  0  0  0  0  0  0  0  0  0  0
   14.4940   -7.2288    0.0000 C   0  0  0  0  0  0  0  0  0  0  0  0
   15.1070   -7.7809    0.0000 O   0  0  0  0  0  0  0  0  0  0  0  0
   15.8917   -7.5261    0.0000 C   0  0  0  0  0  0  0  0  0  0  0  0
   16.0633   -6.7192    0.0000 O   0  0  0  0  0  0  0  0  0  0  0  0
   16.5046   -8.0783    0.0000 N   0  0  0  0  0  0  0  0  0  0  0  0
   16.3330   -8.8853    0.0000 C   0  0  0  0  0  0  0  0  0  0  0  0
   13.0330   -3.6956    0.0000 O   0  0  0  0  0  0  0  0  0  0  0  0
   13.7462   -3.2809    0.0000 C   0  0  0  0  0  0  0  0  0  0  0  0
   14.4638   -3.6952    0.0000 C   0  0  0  0  0  0  0  0  0  0  0  0
   15.1749   -3.2840    0.0000 C   0  0  0  0  0  0  0  0  0  0  0  0
   15.1768   -2.4587    0.0000 C   0  0  0  0  0  0  0  0  0  0  0  0
   14.4612   -2.0461    0.0000 C   0  0  0  0  0  0  0  0  0  0  0  0
   13.7439   -2.4589    0.0000 C   0  0  0  0  0  0  0  0  0  0  0  0
   15.8891   -3.6971    0.0000 C   0  0  0  0  0  0  0  0  0  0  0  0
   15.8885   -4.5221    0.0000 O   0  0  0  0  0  0  0  0  0  0  0  0
   16.6039   -3.2852    0.0000 O   0  0  0  0  0  0  0  0  0  0  0  0
   11.6090   -4.5210    0.0000 C   0  0  0  0  0  0  0  0  0  0  0  0
   13.9391   -8.9357    0.0000 C   0  0  0  0  0  0  0  0  0  0  0  0
   17.2894   -7.8236    0.0000 C   0  0  0  0  0  0  0  0  0  0  0  0
   17.9024   -8.3757    0.0000 C   0  0  0  0  0  0  0  0  0  0  0  0
   17.9427   -9.1989    0.0000 C   0  0  0  0  0  0  0  0  0  0  0  0
   18.7666   -9.1559    0.0000 C   0  0  0  0  0  0  0  0  0  0  0  0
   18.7236   -8.3320    0.0000 C   0  0  0  0  0  0  0  0  0  0  0  0
  1  2  2  0
  2  3  1  0
  3  4  2  0
  4  5  1  0
  5  6  2  0
  6  1  1  0
  7  8  1  0
  8  9  2  0
  9 10  1  0
 10 11  1  0
 11  7  2  0
  3  7  1  0
 11 12  1  0
 12 13  1  0
 13 14  1  0
 14 15  2  0
 14 16  1  0
 16 17  1  0
  6 18  1  0
 19 18  1  0
 19 20  1  0
 19 24  1  0
 20 21  1  0
 21 22  1  0
 22 23  1  0
 23 24  1  0
 21 25  1  0
 25 26  2  0
 25 27  1  0
  1 28  1  0
 10 29  1  0
 16 30  1  0
 30 31  1  0
 31 32  1  0
 32 33  1  0
 33 34  1  0
 34 31  1  0
M  END
>  <Classification>  (82) 
1

>  <pchembl>  (82) 
5.58

>  <InChI_steorem>  (82) 
InChI=1S/C24H33N5O5/c1-15-21(34-18-9-5-8-17(12-18)23(30)31)11-10-19(25-15)22-20(29(3)27-26-22)14-33-24(32)28(2)13-16-6-4-7-16/h10-11,16-18H,4-9,12-14H2,1-3H3,(H,30,31)

>  <source>  (82) 
ChEMBL32

>  <source_id>  (82) 
32

>  <optional_reference>  (82) 
10.1021/acs.jmedchem.1c01256

>  <optional_origin>  (82) 
None

>  <target>  (82) 
OATP1B3

$$$$

     RDKit          2D

 36 40  0  0  0  0  0  0  0  0999 V2000
   -3.0958   -5.3155    0.0000 C   0  0  0  0  0  0  0  0  0  0  0  0
   -2.5810   -6.3842    0.0000 C   0  0  0  0  0  0  0  0  0  0  0  0
   -1.4034   -6.4655    0.0000 C   0  0  0  0  0  0  0  0  0  0  0  0
   -0.7433   -5.4932    0.0000 C   0  0  0  0  0  0  0  0  0  0  0  0
   -1.2560   -4.4287    0.0000 C   0  0  0  0  0  0  0  0  0  0  0  0
   -2.4302   -4.3397    0.0000 C   0  0  0  0  0  0  0  0  0  0  0  0
   -2.9427   -3.2756    0.0000 C   0  0  0  0  0  0  0  0  0  0  0  0
   -4.0074   -3.7870    0.0000 C   0  0  0  0  0  0  0  0  0  0  0  0
   -3.9205   -2.6091    0.0000 C   0  0  0  0  0  0  0  0  0  0  0  0
   -2.2015   -2.4574    0.0000 C   0  0  0  0  0  0  0  0  0  0  0  0
   -2.4212   -1.2969    0.0000 O   0  0  0  0  0  0  0  0  0  0  0  0
   -1.0867   -2.8474    0.0000 O   0  0  0  0  0  0  0  0  0  0  0  0
   -0.8909   -7.5296    0.0000 C   0  0  0  0  0  0  0  0  0  0  0  0
    0.2870   -7.6181    0.0000 C   0  0  0  0  0  0  0  0  0  0  0  0
    0.7970   -8.6795    0.0000 C   0  0  0  0  0  0  0  0  0  0  0  0
    0.1315   -9.6557    0.0000 C   0  0  0  0  0  0  0  0  0  0  0  0
   -1.0406   -9.5702    0.0000 C   0  0  0  0  0  0  0  0  0  0  0  0
   -1.5590   -8.5097    0.0000 C   0  0  0  0  0  0  0  0  0  0  0  0
    0.6441  -10.7198    0.0000 C   0  0  0  0  0  0  0  0  0  0  0  0
    0.0847  -11.7594    0.0000 O   0  0  0  0  0  0  0  0  0  0  0  0
    0.9006  -12.6127    0.0000 N   0  0  0  0  0  0  0  0  0  0  0  0
    1.9642  -12.1004    0.0000 C   0  0  0  0  0  0  0  0  0  0  0  0
    1.8056  -10.9305    0.0000 C   0  0  0  0  0  0  0  0  0  0  0  0
    2.7008  -10.1600    0.0000 N   0  0  0  0  0  0  0  0  0  0  0  0
    3.8157  -10.5500    0.0000 C   0  0  0  0  0  0  0  0  0  0  0  0
    4.7108   -9.7795    0.0000 O   0  0  0  0  0  0  0  0  0  0  0  0
    5.8257  -10.1695    0.0000 C   0  0  0  0  0  0  0  0  0  0  0  0
    6.7209   -9.3990    0.0000 C   0  0  0  0  0  0  0  0  0  0  0  0
    6.5015   -8.2384    0.0000 C   0  0  0  0  0  0  0  0  0  0  0  0
    7.3947   -7.4711    0.0000 C   0  0  0  0  0  0  0  0  0  0  0  0
    8.5099   -7.8612    0.0000 C   0  0  0  0  0  0  0  0  0  0  0  0
    8.7307   -9.0155    0.0000 C   0  0  0  0  0  0  0  0  0  0  0  0
    7.8405   -9.7907    0.0000 C   0  0  0  0  0  0  0  0  0  0  0  0
    6.2000  -11.0750    0.0000 C   0  0  0  0  0  0  0  0  0  0  0  0
    4.0353  -11.7105    0.0000 O   0  0  0  0  0  0  0  0  0  0  0  0
    2.9871  -12.6909    0.0000 C   0  0  0  0  0  0  0  0  0  0  0  0
  1  2  2  0
  2  3  1  0
  3  4  2  0
  4  5  1  0
  5  6  2  0
  6  1  1  0
  6  7  1  0
  7  8  1  0
  9  8  1  0
  7  9  1  0
  7 10  1  0
 10 11  2  0
 10 12  1  0
  3 13  1  0
 14 13  2  0
 15 14  1  0
 16 15  2  0
 17 16  1  0
 18 17  2  0
 13 18  1  0
 16 19  1  0
 20 19  1  0
 20 21  1  0
 21 22  2  0
 22 23  1  0
 23 19  2  0
 23 24  1  0
 24 25  1  0
 25 26  1  0
 26 27  1  0
 27 28  1  0
 29 28  2  0
 30 29  1  0
 31 30  2  0
 32 31  1  0
 33 32  2  0
 28 33  1  0
 27 34  1  0
 25 35  2  0
 22 36  1  0
M  END
>  <Classification>  (83) 
1

>  <pchembl>  (83) 
6.24

>  <InChI_steorem>  (83) 
InChI=1S/C29H26N2O5/c1-18-25(30-28(34)35-19(2)20-6-4-3-5-7-20)26(36-31-18)23-10-8-21(9-11-23)22-12-14-24(15-13-22)29(16-17-29)27(32)33/h3-15,19H,16-17H2,1-2H3,(H,30,34)(H,32,33)

>  <source>  (83) 
ChEMBL32

>  <source_id>  (83) 
32

>  <optional_reference>  (83) 
10.1021/acs.jmedchem.1c01256

>  <optional_origin>  (83) 
None

>  <target>  (83) 
OATP1B3

$$$$

     RDKit          2D

 46 51  0  0  0  0  0  0  0  0999 V2000
   -1.8292   -0.4070    0.0000 C   0  0  0  0  0  0  0  0  0  0  0  0
   -1.8292    0.4179    0.0000 C   0  0  0  0  0  0  0  0  0  0  0  0
   -1.1208    0.8285    0.0000 C   0  0  0  0  0  0  0  0  0  0  0  0
   -0.4047    0.4179    0.0000 C   0  0  0  0  0  0  0  0  0  0  0  0
   -0.4047   -0.4030    0.0000 C   0  0  0  0  0  0  0  0  0  0  0  0
   -1.1132   -0.8175    0.0000 C   0  0  0  0  0  0  0  0  0  0  0  0
   -1.1208    1.6494    0.0000 N   0  0  0  0  0  0  0  0  0  0  0  0
   -1.8317    2.0600    0.0000 C   0  0  0  0  0  0  0  0  0  0  0  0
   -1.8317    2.8810    0.0000 O   0  0  0  0  0  0  0  0  0  0  0  0
   -2.5427    1.6494    0.0000 C   0  0  0  0  0  0  0  0  0  0  0  0
   -0.4096    2.0600    0.0000 C   0  0  0  0  0  0  0  0  0  0  0  0
    0.3014    1.6494    0.0000 C   0  0  0  0  0  0  0  0  0  0  0  0
    1.0126    2.0600    0.0000 C   0  0  0  0  0  0  0  0  0  0  0  0
    1.7238    1.6494    0.0000 C   0  0  0  0  0  0  0  0  0  0  0  0
    1.7238    0.8282    0.0000 C   0  0  0  0  0  0  0  0  0  0  0  0
    1.0126    0.4174    0.0000 C   0  0  0  0  0  0  0  0  0  0  0  0
    0.3014    0.8280    0.0000 C   0  0  0  0  0  0  0  0  0  0  0  0
    1.1413    0.7846    0.0000 C   0  0  0  0  0  0  0  0  0  0  0  0
    0.6034    1.0250    0.0000 C   0  0  0  0  0  0  0  0  0  0  0  0
    2.4349    0.4174    0.0000 C   0  0  0  0  0  0  0  0  0  0  0  0
    2.5207   -0.3987    0.0000 N   0  0  0  0  0  0  0  0  0  0  0  0
    3.3236   -0.5693    0.0000 O   0  0  0  0  0  0  0  0  0  0  0  0
    3.7340    0.1412    0.0000 C   0  0  0  0  0  0  0  0  0  0  0  0
    3.1847    0.7511    0.0000 N   0  0  0  0  0  0  0  0  0  0  0  0
    4.5552    0.1411    0.0000 C   0  0  0  0  0  0  0  0  0  0  0  0
   -2.9602    0.9260    0.0000 C   0  0  0  0  0  0  0  0  0  0  0  0
   -3.6715    1.3366    0.0000 C   0  0  0  0  0  0  0  0  0  0  0  0
   -3.2539    2.0599    0.0000 C   0  0  0  0  0  0  0  0  0  0  0  0
   -4.4647    1.1241    0.0000 C   0  0  0  0  0  0  0  0  0  0  0  0
    4.9659    0.8522    0.0000 C   0  0  0  0  0  0  0  0  0  0  0  0
    4.9658   -0.5699    0.0000 C   0  0  0  0  0  0  0  0  0  0  0  0
    5.3764    0.1411    0.0000 F   0  0  0  0  0  0  0  0  0  0  0  0
   -4.2522    1.9173    0.0000 O   0  0  0  0  0  0  0  0  0  0  0  0
   -5.0454    1.7048    0.0000 F   0  0  0  0  0  0  0  0  0  0  0  0
   -5.2859    1.1241    0.0000 F   0  0  0  0  0  0  0  0  0  0  0  0
   -5.3764   -1.6493    0.0000 C   0  0  0  0  0  0  0  0  0  0  0  0
   -4.6652   -2.8810    0.0000 C   0  0  0  0  0  0  0  0  0  0  0  0
   -4.6652   -2.0599    0.0000 C   0  0  0  0  0  0  0  0  0  0  0  0
   -2.5379   -0.8217    0.0000 C   0  0  0  0  0  0  0  0  0  0  0  0
   -2.5333   -1.6429    0.0000 C   0  0  0  0  0  0  0  0  0  0  0  0
   -3.2545   -0.4136    0.0000 C   0  0  0  0  0  0  0  0  0  0  0  0
   -3.9604   -0.8323    0.0000 C   0  0  0  0  0  0  0  0  0  0  0  0
   -3.2403   -2.0558    0.0000 C   0  0  0  0  0  0  0  0  0  0  0  0
   -3.9540   -1.6493    0.0000 C   0  0  0  0  0  0  0  0  0  0  0  0
   -5.3764   -2.4704    0.0000 O   0  0  0  0  0  0  0  0  0  0  0  0
   -4.6772    0.3309    0.0000 F   0  0  0  0  0  0  0  0  0  0  0  0
  1  2  2  0
  2  3  1  0
  3  4  2  0
  4  5  1  0
  5  6  2  0
  1  6  1  0
  3  7  1  0
  7  8  1  0
  8  9  2  0
 10  8  1  0
  7 11  1  0
 11 12  1  0
 12 13  1  0
 13 14  1  0
 14 15  1  0
 15 16  1  0
 16 17  1  0
 12 17  1  0
 15 18  1  0
 18 19  1  0
 12 19  1  0
 15 20  1  0
 21 20  2  0
 21 22  1  0
 22 23  1  0
 23 24  2  0
 24 20  1  0
 23 25  1  0
 26 10  1  0
 27 26  1  0
 27 28  1  0
 28 10  1  0
 27 29  1  0
 25 30  1  0
 25 31  1  0
 25 32  1  0
 27 33  1  0
 29 34  1  0
 29 35  1  0
 38 36  1  0
 38 37  1  0
 39  1  1  0
 39 40  2  0
 39 41  1  0
 41 42  2  0
 43 40  1  0
 38 44  1  0
 42 44  1  0
 44 43  2  0
 38 45  1  0
 29 46  1  0
M  END
>  <Classification>  (84) 
0

>  <pchembl>  (84) 
4.87

>  <InChI_steorem>  (84) 
InChI=1S/C35H41F4N3O4/c1-30(2,36)29-40-28(41-46-29)33-15-12-32(13-16-33,14-17-33)21-42(27(43)24-19-34(45,20-24)35(37,38)39)26-7-5-6-23(18-26)22-8-10-25(11-9-22)31(3,4)44/h5-11,18,24,44-45H,12-17,19-21H2,1-4H3

>  <source>  (84) 
ChEMBL33

>  <source_id>  (84) 
33

>  <optional_reference>  (84) 
10.1021/acs.jmedchem.2c00165

>  <optional_origin>  (84) 
None

>  <target>  (84) 
OATP1B3

$$$$
