
     RDKit          2D

 30 32  0  0  0  0  0  0  0  0999 V2000
    2.5542   -3.2792    0.0000 C   0  0  0  0  0  0  0  0  0  0  0  0
    3.2750   -2.8542    0.0000 C   0  0  0  0  0  0  0  0  0  0  0  0
    6.1417   -2.0125    0.0000 C   0  0  0  0  0  0  0  0  0  0  0  0
    1.8417   -2.8667    0.0000 C   0  0  0  0  0  0  0  0  0  0  0  0
    4.0000   -3.2667    0.0000 N   0  0  0  0  0  0  0  0  0  0  0  0
    4.7042   -2.8500    0.0000 C   0  0  0  0  0  0  0  0  0  0  0  0
    5.4125   -1.6042    0.0000 C   0  0  0  0  0  0  0  0  0  0  0  0
    6.1417   -2.8375    0.0000 C   0  0  0  0  0  0  0  0  0  0  0  0
    4.7000   -2.0167    0.0000 C   0  0  0  0  0  0  0  0  0  0  0  0
    1.1250   -3.2792    0.0000 C   0  0  0  0  0  0  0  0  0  0  0  0
    6.8667   -1.5875    0.0000 C   0  0  0  0  0  0  0  0  0  0  0  0
    6.8542    0.0625    0.0000 N   0  0  0  0  0  0  0  0  0  0  0  0
    5.4292   -3.2542    0.0000 C   0  0  0  0  0  0  0  0  0  0  0  0
    6.8625   -0.7625    0.0000 C   0  0  0  0  0  0  0  0  0  0  0  0
    1.1250   -4.1125    0.0000 C   0  0  0  0  0  0  0  0  0  0  0  0
    2.5542   -4.1125    0.0000 C   0  0  0  0  0  0  0  0  0  0  0  0
    7.5875   -2.0000    0.0000 C   0  0  0  0  0  0  0  0  0  0  0  0
    1.8417   -4.5250    0.0000 C   0  0  0  0  0  0  0  0  0  0  0  0
    3.2625   -2.0292    0.0000 O   0  0  0  0  0  0  0  0  0  0  0  0
    7.5917   -2.8250    0.0000 C   0  0  0  0  0  0  0  0  0  0  0  0
    8.3000   -1.5792    0.0000 C   0  0  0  0  0  0  0  0  0  0  0  0
    5.3917   -0.7792    0.0000 Cl  0  0  0  0  0  0  0  0  0  0  0  0
    0.4042   -2.8625    0.0000 I   0  0  0  0  0  0  0  0  0  0  0  0
    1.8417   -2.0417    0.0000 O   0  0  0  0  0  0  0  0  0  0  0  0
    9.0292   -2.8167    0.0000 C   0  0  0  0  0  0  0  0  0  0  0  0
    1.8417   -5.3500    0.0000 I   0  0  0  0  0  0  0  0  0  0  0  0
    9.0167   -1.9917    0.0000 C   0  0  0  0  0  0  0  0  0  0  0  0
    8.3042   -3.2375    0.0000 C   0  0  0  0  0  0  0  0  0  0  0  0
    9.7625   -3.2292    0.0000 Cl  0  0  0  0  0  0  0  0  0  0  0  0
    5.4375   -4.0792    0.0000 C   0  0  0  0  0  0  0  0  0  0  0  0
  2  1  1  0
  3  8  2  0
  4  1  2  0
  5  2  1  0
  6  5  1  0
  7  9  2  0
  8 13  1  0
  9  6  1  0
 10  4  1  0
 11  3  1  0
 12 14  3  0
 13  6  2  0
 14 11  1  0
 15 18  1  0
 16  1  1  0
 17 11  1  0
 18 16  2  0
 19  2  2  0
 20 17  2  0
 21 17  1  0
 22  7  1  0
 23 10  1  0
 24  4  1  0
 25 27  1  0
 26 18  1  0
 27 21  2  0
 28 20  1  0
 29 25  1  0
 30 13  1  0
 10 15  2  0
  3  7  1  0
 25 28  2  0
M  END
>  <Classification>  (1) 
1

>  <pchembl>  (1) 
5.52

>  <InChI_steorem>  (1) 
InChI=1S/C22H14Cl2I2N2O2/c1-11-6-15(17(10-27)12-2-4-13(23)5-3-12)18(24)9-20(11)28-22(30)16-7-14(25)8-19(26)21(16)29/h2-9,17,29H,1H3,(H,28,30)

>  <source>  (1) 
ChEMBL25

>  <source_id>  (1) 
25

>  <optional_reference>  (1) 
10.1021/acs.jmedchem.6b01317

>  <optional_origin>  (1) 
None

>  <target>  (1) 
OCT1

$$$$

     RDKit          2D

 17 19  0  0  0  0  0  0  0  0999 V2000
    4.8792   -0.8042    0.0000 C   0  0  0  0  0  0  0  0  0  0  0  0
    4.1667   -0.3875    0.0000 C   0  0  0  0  0  0  0  0  0  0  0  0
    5.6000   -0.3917    0.0000 N   0  0  0  0  0  0  0  0  0  0  0  0
    4.8792   -1.6292    0.0000 C   0  0  0  0  0  0  0  0  0  0  0  0
    4.1667    0.4375    0.0000 C   0  0  0  0  0  0  0  0  0  0  0  0
    5.6000    0.4375    0.0000 C   0  0  0  0  0  0  0  0  0  0  0  0
    4.1625   -2.0375    0.0000 C   0  0  0  0  0  0  0  0  0  0  0  0
    3.4542   -0.8042    0.0000 C   0  0  0  0  0  0  0  0  0  0  0  0
    4.8792    0.8583    0.0000 C   0  0  0  0  0  0  0  0  0  0  0  0
    3.4542    0.8500    0.0000 C   0  0  0  0  0  0  0  0  0  0  0  0
    3.4542   -1.6167    0.0000 C   0  0  0  0  0  0  0  0  0  0  0  0
    4.1667   -2.8625    0.0000 C   0  0  0  0  0  0  0  0  0  0  0  0
    2.7417   -0.3917    0.0000 C   0  0  0  0  0  0  0  0  0  0  0  0
    2.7417    0.4375    0.0000 C   0  0  0  0  0  0  0  0  0  0  0  0
    3.4542   -3.2667    0.0000 C   0  0  0  0  0  0  0  0  0  0  0  0
    2.7375   -2.0292    0.0000 C   0  0  0  0  0  0  0  0  0  0  0  0
    2.7292   -2.8542    0.0000 C   0  0  0  0  0  0  0  0  0  0  0  0
  2  1  1  0
  3  1  1  0
  4  1  1  0
  5  2  2  0
  6  3  1  0
  7  4  1  0
  8  2  1  0
  9  6  1  0
 10  5  1  0
 11  7  2  0
 12  7  1  0
 13  8  2  0
 14 13  1  0
 15 12  2  0
 16 11  1  0
 17 15  1  0
  5  9  1  0
 10 14  2  0
 16 17  2  0
M  END
>  <Classification>  (2) 
0

>  <pchembl>  (2) 
4.09

>  <InChI_steorem>  (2) 
InChI=1S/C16H17N/c1-2-6-13(7-3-1)12-16-15-9-5-4-8-14(15)10-11-17-16/h1-9,16-17H,10-12H2

>  <source>  (2) 
ChEMBL25

>  <source_id>  (2) 
25

>  <optional_reference>  (2) 
10.1021/acs.jmedchem.6b01317

>  <optional_origin>  (2) 
None

>  <target>  (2) 
OCT1

$$$$

     RDKit          2D

 36 39  0  0  0  0  0  0  0  0999 V2000
    2.4208  -20.9750    0.0000 C   0  0  0  0  0  0  0  0  0  0  0  0
    1.7049  -20.5625    0.0000 C   0  0  0  0  0  0  0  0  0  0  0  0
    1.7049  -19.7375    0.0000 N   0  0  0  0  0  0  0  0  0  0  0  0
    2.4208  -19.3250    0.0000 C   0  0  0  0  0  0  0  0  0  0  0  0
    3.1325  -19.7375    0.0000 C   0  0  0  0  0  0  0  0  0  0  0  0
    3.8483  -19.3250    0.0000 O   0  0  0  0  0  0  0  0  0  0  0  0
   -1.8703  -18.5000    0.0000 C   0  0  0  0  0  0  0  0  0  0  0  0
   -1.8703  -19.3250    0.0000 N   0  0  0  0  0  0  0  0  0  0  0  0
   -1.1544  -19.7375    0.0000 C   0  0  0  0  0  0  0  0  0  0  0  0
   -0.4385  -19.3250    0.0000 C   0  0  0  0  0  0  0  0  0  0  0  0
   -0.4385  -18.5000    0.0000 C   0  0  0  0  0  0  0  0  0  0  0  0
   -1.1544  -18.0875    0.0000 N   0  0  0  0  0  0  0  0  0  0  0  0
    0.9890  -19.3250    0.0000 C   0  0  0  0  0  0  0  0  0  0  0  0
    0.9890  -18.5000    0.0000 N   0  0  0  0  0  0  0  0  0  0  0  0
    0.2773  -18.0875    0.0000 C   0  0  0  0  0  0  0  0  0  0  0  0
    0.2773  -19.7375    0.0000 N   0  0  0  0  0  0  0  0  0  0  0  0
    0.2773  -17.2625    0.0000 N   0  0  0  0  0  0  0  0  0  0  0  0
   -0.4385  -16.8500    0.0000 C   0  0  0  0  0  0  0  0  0  0  0  0
   -0.4385  -16.0250    0.0000 C   0  0  0  0  0  0  0  0  0  0  0  0
    0.2773  -15.6125    0.0000 C   0  0  0  0  0  0  0  0  0  0  0  0
    0.9890  -16.0250    0.0000 C   0  0  0  0  0  0  0  0  0  0  0  0
    0.9890  -16.8500    0.0000 C   0  0  0  0  0  0  0  0  0  0  0  0
   -1.1544  -20.5625    0.0000 N   0  0  0  0  0  0  0  0  0  0  0  0
   -0.4385  -20.9750    0.0000 C   0  0  0  0  0  0  0  0  0  0  0  0
   -0.4385  -21.8000    0.0000 C   0  0  0  0  0  0  0  0  0  0  0  0
   -1.1544  -22.2125    0.0000 C   0  0  0  0  0  0  0  0  0  0  0  0
   -1.8703  -21.8000    0.0000 C   0  0  0  0  0  0  0  0  0  0  0  0
   -1.8703  -20.9750    0.0000 C   0  0  0  0  0  0  0  0  0  0  0  0
   -2.5820  -18.0875    0.0000 N   0  0  0  0  0  0  0  0  0  0  0  0
   -3.2978  -18.5000    0.0000 C   0  0  0  0  0  0  0  0  0  0  0  0
   -4.0095  -18.0875    0.0000 C   0  0  0  0  0  0  0  0  0  0  0  0
   -4.7254  -18.5000    0.0000 O   0  0  0  0  0  0  0  0  0  0  0  0
   -2.5820  -17.2625    0.0000 C   0  0  0  0  0  0  0  0  0  0  0  0
   -3.2978  -16.8500    0.0000 C   0  0  0  0  0  0  0  0  0  0  0  0
   -4.0095  -17.2625    0.0000 O   0  0  0  0  0  0  0  0  0  0  0  0
    3.1325  -20.5625    0.0000 O   0  0  0  0  0  0  0  0  0  0  0  0
  1  2  1  0
  4  5  1  0
  5  6  1  0
  3  4  1  0
  7  8  2  0
  8  9  1  0
  9 10  2  0
 10 11  1  0
 11 12  2  0
  7 12  1  0
 13 14  1  0
 14 15  2  0
 13 16  2  0
 10 16  1  0
 11 15  1  0
 17 18  1  0
 18 19  1  0
 19 20  1  0
 20 21  1  0
 21 22  1  0
 17 22  1  0
 15 17  1  0
 23 24  1  0
 24 25  1  0
 25 26  1  0
 26 27  1  0
 27 28  1  0
 23 28  1  0
  9 23  1  0
 30 31  1  0
 31 32  1  0
 29 30  1  0
 33 34  1  0
 34 35  1  0
 29 33  1  0
  7 29  1  0
  3 13  1  0
  2  3  1  0
  1 36  1  0
M  END
>  <Classification>  (3) 
0

>  <pchembl>  (3) 
4.09

>  <InChI_steorem>  (3) 
InChI=1S/C24H40N8O4/c33-15-11-31(12-16-34)23-26-20-19(21(27-23)29-7-3-1-4-8-29)25-24(32(13-17-35)14-18-36)28-22(20)30-9-5-2-6-10-30/h33-36H,1-18H2

>  <source>  (3) 
ChEMBL25

>  <source_id>  (3) 
25

>  <optional_reference>  (3) 
10.1021/jm2001629

>  <optional_origin>  (3) 
None

>  <target>  (3) 
OCT1

$$$$

     RDKit          2D

 23 24  0  0  0  0  0  0  0  0999 V2000
   -4.7931  -16.2750    0.0000 C   0  0  0  0  0  0  0  0  0  0  0  0
   -4.7943  -17.1023    0.0000 C   0  0  0  0  0  0  0  0  0  0  0  0
   -4.0794  -17.5152    0.0000 C   0  0  0  0  0  0  0  0  0  0  0  0
   -3.3630  -17.1019    0.0000 C   0  0  0  0  0  0  0  0  0  0  0  0
   -3.3659  -16.2713    0.0000 C   0  0  0  0  0  0  0  0  0  0  0  0
   -4.0812  -15.8622    0.0000 C   0  0  0  0  0  0  0  0  0  0  0  0
   -5.5077  -15.8626    0.0000 O   0  0  0  0  0  0  0  0  0  0  0  0
   -5.5079  -15.0376    0.0000 C   0  0  0  0  0  0  0  0  0  0  0  0
   -5.5091  -17.5143    0.0000 O   0  0  0  0  0  0  0  0  0  0  0  0
   -6.2268  -17.1012    0.0000 C   0  0  0  0  0  0  0  0  0  0  0  0
   -2.6529  -15.8561    0.0000 C   0  0  0  0  0  0  0  0  0  0  0  0
   -1.9369  -16.2659    0.0000 C   0  0  0  0  0  0  0  0  0  0  0  0
   -1.2240  -15.8508    0.0000 N   0  0  0  0  0  0  0  0  0  0  0  0
   -0.5080  -16.2606    0.0000 C   0  0  0  0  0  0  0  0  0  0  0  0
    0.2049  -15.8454    0.0000 C   0  0  0  0  0  0  0  0  0  0  0  0
    0.9209  -16.2552    0.0000 C   0  0  0  0  0  0  0  0  0  0  0  0
    0.9212  -17.0803    0.0000 C   0  0  0  0  0  0  0  0  0  0  0  0
    1.6363  -17.4900    0.0000 C   0  0  0  0  0  0  0  0  0  0  0  0
    2.3502  -17.0747    0.0000 C   0  0  0  0  0  0  0  0  0  0  0  0
    2.3445  -16.2455    0.0000 C   0  0  0  0  0  0  0  0  0  0  0  0
    1.6287  -15.8395    0.0000 C   0  0  0  0  0  0  0  0  0  0  0  0
    0.2018  -15.0204    0.0000 O   0  0  0  0  0  0  0  0  0  0  0  0
    3.0668  -17.4836    0.0000 O   0  0  0  0  0  0  0  0  0  0  0  0
  5  6  1  0
 11 12  1  0
  6  1  2  0
 12 13  1  0
  1  2  1  0
 13 14  1  0
  1  7  1  0
 14 15  1  0
  3  4  1  0
 15 16  1  0
  7  8  1  0
 16 17  2  0
 17 18  1  0
  2  9  1  0
 18 19  2  0
  4  5  2  0
 19 20  1  0
  9 10  1  0
 20 21  2  0
 21 16  1  0
  2  3  2  0
 15 22  1  0
  5 11  1  0
 19 23  1  0
M  END
>  <Classification>  (4) 
0

>  <pchembl>  (4) 
4.33

>  <InChI_steorem>  (4) 
InChI=1S/C18H23NO4/c1-22-17-8-3-13(11-18(17)23-2)9-10-19-12-16(21)14-4-6-15(20)7-5-14/h3-8,11,16,19-21H,9-10,12H2,1-2H3

>  <source>  (4) 
ChEMBL25

>  <source_id>  (4) 
25

>  <optional_reference>  (4) 
10.1021/jm8003152

>  <optional_origin>  (4) 
None

>  <target>  (4) 
OCT1

$$$$

     RDKit          2D

 21 23  0  0  0  0  0  0  0  0999 V2000
    0.0000    1.5002    0.0000 N   0  0  0  0  0  0  0  0  0  0  0  0
   -1.2989    0.7501    0.0000 C   0  0  0  0  0  0  0  0  0  0  0  0
    0.0000   -1.5002    0.0000 S   0  0  0  0  0  0  0  0  0  0  0  0
    1.2806    0.7501    0.0000 C   0  0  0  0  0  0  0  0  0  0  0  0
   -1.2989   -0.7501    0.0000 C   0  0  0  0  0  0  0  0  0  0  0  0
    1.2806   -0.7501    0.0000 C   0  0  0  0  0  0  0  0  0  0  0  0
   -2.5978    1.5002    0.0000 C   0  0  0  0  0  0  0  0  0  0  0  0
   -2.5978   -1.5002    0.0000 C   0  0  0  0  0  0  0  0  0  0  0  0
    0.0120    3.0009    0.0000 C   0  0  0  0  0  0  0  0  0  0  0  0
   -3.8968    0.7501    0.0000 C   0  0  0  0  0  0  0  0  0  0  0  0
    1.3173    3.7417    0.0000 C   0  0  0  0  0  0  0  0  0  0  0  0
    2.6346    5.9832    0.0000 N   0  0  0  0  0  0  0  0  0  0  0  0
   -3.8968   -0.7501    0.0000 C   0  0  0  0  0  0  0  0  0  0  0  0
   -4.9360    1.3500    0.0000 Cl  0  0  0  0  0  0  0  0  0  0  0  0
    2.5978    1.5002    0.0000 C   0  0  0  0  0  0  0  0  0  0  0  0
    2.5978   -1.5002    0.0000 C   0  0  0  0  0  0  0  0  0  0  0  0
    1.3293    5.2425    0.0000 C   0  0  0  0  0  0  0  0  0  0  0  0
    2.6443    7.1832    0.0000 C   0  0  0  0  0  0  0  0  0  0  0  0
    3.6692    5.3752    0.0000 C   0  0  0  0  0  0  0  0  0  0  0  0
    3.8968    0.7501    0.0000 C   0  0  0  0  0  0  0  0  0  0  0  0
    3.8968   -0.7501    0.0000 C   0  0  0  0  0  0  0  0  0  0  0  0
  2  1  1  0
  3  6  1  0
  4  1  1  0
  5  2  2  0
  6  4  2  0
  7  2  1  0
  8  5  1  0
  9  1  1  0
 10  7  2  0
 11  9  1  0
 12 17  1  0
 13 10  1  0
 14 10  1  0
 15  4  1  0
 16  6  1  0
 17 11  1  0
 18 12  1  0
 19 12  1  0
 20 15  2  0
 21 20  1  0
  3  5  1  0
 16 21  2  0
  8 13  2  0
M  END
>  <Classification>  (5) 
0

>  <pchembl>  (5) 
4.57

>  <InChI_steorem>  (5) 
InChI=1S/C17H19ClN2S/c1-19(2)10-5-11-20-14-6-3-4-7-16(14)21-17-9-8-13(18)12-15(17)20/h3-4,6-9,12H,5,10-11H2,1-2H3

>  <source>  (5) 
ChEMBL25

>  <source_id>  (5) 
25

>  <optional_reference>  (5) 
10.1021/jm8003152

>  <optional_origin>  (5) 
None

>  <target>  (5) 
OCT1

$$$$

     RDKit          2D

 24 26  0  0  0  0  0  0  0  0999 V2000
    1.7138   -1.2033    0.0000 C   0  0  0  0  0  0  0  0  0  0  0  0
    0.2917   -0.7475    0.0000 C   0  0  0  0  0  0  0  0  0  0  0  0
    2.5889    0.0182    0.0000 O   0  0  0  0  0  0  0  0  0  0  0  0
    0.2917    0.7475    0.0000 C   0  0  0  0  0  0  0  0  0  0  0  0
   -4.6635    2.0821    0.0000 N   0  0  0  0  0  0  0  0  0  0  0  0
    3.1754   -1.4819    0.0000 C   0  0  0  0  0  0  0  0  0  0  0  0
   -3.6202    1.4892    0.0000 C   0  0  0  0  0  0  0  0  0  0  0  0
   -1.0028   -1.5132    0.0000 C   0  0  0  0  0  0  0  0  0  0  0  0
    1.7138    1.2033    0.0000 C   0  0  0  0  0  0  0  0  0  0  0  0
   -1.0028    1.5132    0.0000 C   0  0  0  0  0  0  0  0  0  0  0  0
   -2.3155    0.7475    0.0000 C   0  0  0  0  0  0  0  0  0  0  0  0
    3.6689   -2.8984    0.0000 C   0  0  0  0  0  0  0  0  0  0  0  0
    4.1554   -0.3463    0.0000 C   0  0  0  0  0  0  0  0  0  0  0  0
   -2.3155   -0.7475    0.0000 C   0  0  0  0  0  0  0  0  0  0  0  0
    6.1224   -2.0437    0.0000 C   0  0  0  0  0  0  0  0  0  0  0  0
    0.7068   -2.2982    0.0000 C   0  0  0  0  0  0  0  0  0  0  0  0
   -3.2314   -2.8114    0.0000 N   0  0  0  0  0  0  0  0  0  0  0  0
    5.6289   -0.6272    0.0000 C   0  0  0  0  0  0  0  0  0  0  0  0
    5.1424   -3.1793    0.0000 C   0  0  0  0  0  0  0  0  0  0  0  0
    7.3011   -2.2684    0.0000 F   0  0  0  0  0  0  0  0  0  0  0  0
   -0.7630   -1.9946    0.0000 C   0  0  0  0  0  0  0  0  0  0  0  0
   -1.7616   -3.1150    0.0000 C   0  0  0  0  0  0  0  0  0  0  0  0
   -4.0298   -3.7073    0.0000 C   0  0  0  0  0  0  0  0  0  0  0  0
   -3.6083   -1.6722    0.0000 C   0  0  0  0  0  0  0  0  0  0  0  0
  2  1  1  0
  3  1  1  0
  4  2  2  0
  5  7  3  0
  6  1  1  0
  7 11  1  0
  8  2  1  0
  9  3  1  0
 10  4  1  0
 11 14  1  0
 12  6  2  0
 13  6  1  0
 14  8  2  0
 15 18  1  0
 16  1  1  0
 17 22  1  0
 18 13  2  0
 19 12  1  0
 20 15  1  0
 21 16  1  0
 22 21  1  0
 23 17  1  0
 24 17  1  0
  4  9  1  0
 19 15  2  0
 10 11  2  0
M  END
>  <Classification>  (6) 
0

>  <pchembl>  (6) 
4.73

>  <InChI_steorem>  (6) 
InChI=1S/C20H21FN2O/c1-23(2)11-3-10-20(17-5-7-18(21)8-6-17)19-9-4-15(13-22)12-16(19)14-24-20/h4-9,12H,3,10-11,14H2,1-2H3

>  <source>  (6) 
ChEMBL25

>  <source_id>  (6) 
25

>  <optional_reference>  (6) 
10.1021/jm8003152

>  <optional_origin>  (6) 
None

>  <target>  (6) 
OCT1

$$$$

     RDKit          2D

 25 26  0  0  0  0  0  0  0  0999 V2000
    2.7771   -1.0106    0.0000 C   0  0  0  0  0  0  0  0  0  0  0  0
    1.7946   -2.1834    0.0000 C   0  0  0  0  0  0  0  0  0  0  0  0
    3.2929   -2.4200    0.0000 C   0  0  0  0  0  0  0  0  0  0  0  0
    5.2871   -4.0883    0.0000 N   0  0  0  0  0  0  0  0  0  0  0  0
    4.7712   -2.6789    0.0000 C   0  0  0  0  0  0  0  0  0  0  0  0
    1.2990   -0.7500    0.0000 C   0  0  0  0  0  0  0  0  0  0  0  0
    3.7424    0.1386    0.0000 C   0  0  0  0  0  0  0  0  0  0  0  0
    1.2990    0.7500    0.0000 N   0  0  0  0  0  0  0  0  0  0  0  0
    2.2052   -3.3109    0.0000 O   0  0  0  0  0  0  0  0  0  0  0  0
    0.6127   -1.9756    0.0000 N   0  0  0  0  0  0  0  0  0  0  0  0
    6.7654   -4.3473    0.0000 C   0  0  0  0  0  0  0  0  0  0  0  0
    4.3216   -5.2375    0.0000 C   0  0  0  0  0  0  0  0  0  0  0  0
    0.0000    1.5000    0.0000 C   0  0  0  0  0  0  0  0  0  0  0  0
    0.0000   -1.5000    0.0000 C   0  0  0  0  0  0  0  0  0  0  0  0
    5.2195   -0.1226    0.0000 C   0  0  0  0  0  0  0  0  0  0  0  0
    3.2302    1.5484    0.0000 C   0  0  0  0  0  0  0  0  0  0  0  0
    7.1778   -5.4742    0.0000 C   0  0  0  0  0  0  0  0  0  0  0  0
    3.1399   -5.0291    0.0000 C   0  0  0  0  0  0  0  0  0  0  0  0
    4.7318   -6.3652    0.0000 C   0  0  0  0  0  0  0  0  0  0  0  0
    7.5354   -3.4269    0.0000 C   0  0  0  0  0  0  0  0  0  0  0  0
   -1.2990    0.7500    0.0000 C   0  0  0  0  0  0  0  0  0  0  0  0
    6.1843    1.0259    0.0000 C   0  0  0  0  0  0  0  0  0  0  0  0
    4.1949    2.6970    0.0000 C   0  0  0  0  0  0  0  0  0  0  0  0
   -1.2990   -0.7500    0.0000 C   0  0  0  0  0  0  0  0  0  0  0  0
    5.6720    2.4357    0.0000 C   0  0  0  0  0  0  0  0  0  0  0  0
  2  1  1  0
  3  1  1  0
  4  5  1  0
  5  3  1  0
  6  1  1  0
  7  1  1  0
  8  6  2  0
  9  2  2  0
 10  2  1  0
 11  4  1  0
 12  4  1  0
 13  8  1  0
 14  6  1  0
 15  7  2  0
 16  7  1  0
 17 11  1  0
 18 12  1  0
 19 12  1  0
 20 11  1  0
 21 13  2  0
 22 15  1  0
 23 16  2  0
 24 14  2  0
 25 22  2  0
 24 21  1  0
 23 25  1  0
M  END
>  <Classification>  (7) 
0

>  <pchembl>  (7) 
4.09

>  <InChI_steorem>  (7) 
InChI=1S/C21H29N3O/c1-16(2)24(17(3)4)15-13-21(20(22)25,18-10-6-5-7-11-18)19-12-8-9-14-23-19/h5-12,14,16-17H,13,15H2,1-4H3,(H2,22,25)

>  <source>  (7) 
ChEMBL25

>  <source_id>  (7) 
25

>  <optional_reference>  (7) 
10.1021/jm8003152

>  <optional_origin>  (7) 
None

>  <target>  (7) 
OCT1

$$$$

     RDKit          2D

 25 28  0  0  0  0  0  0  0  0999 V2000
   -4.9360    1.3500    0.0000 Cl  0  0  0  0  0  0  0  0  0  0  0  0
    0.0000   -1.5002    0.0000 S   0  0  0  0  0  0  0  0  0  0  0  0
    0.0000    1.5002    0.0000 N   0  0  0  0  0  0  0  0  0  0  0  0
    2.6346    5.9832    0.0000 N   0  0  0  0  0  0  0  0  0  0  0  0
    5.2468    7.4587    0.0000 N   0  0  0  0  0  0  0  0  0  0  0  0
   -1.2989    0.7501    0.0000 C   0  0  0  0  0  0  0  0  0  0  0  0
    1.2806    0.7501    0.0000 C   0  0  0  0  0  0  0  0  0  0  0  0
   -1.2989   -0.7501    0.0000 C   0  0  0  0  0  0  0  0  0  0  0  0
    1.2806   -0.7501    0.0000 C   0  0  0  0  0  0  0  0  0  0  0  0
   -2.5978    1.5002    0.0000 C   0  0  0  0  0  0  0  0  0  0  0  0
   -2.5978   -1.5002    0.0000 C   0  0  0  0  0  0  0  0  0  0  0  0
    2.5978    1.5002    0.0000 C   0  0  0  0  0  0  0  0  0  0  0  0
    0.0120    3.0009    0.0000 C   0  0  0  0  0  0  0  0  0  0  0  0
    2.5978   -1.5002    0.0000 C   0  0  0  0  0  0  0  0  0  0  0  0
   -3.8968    0.7501    0.0000 C   0  0  0  0  0  0  0  0  0  0  0  0
   -3.8968   -0.7501    0.0000 C   0  0  0  0  0  0  0  0  0  0  0  0
    3.8968    0.7501    0.0000 C   0  0  0  0  0  0  0  0  0  0  0  0
    3.8968   -0.7501    0.0000 C   0  0  0  0  0  0  0  0  0  0  0  0
    1.3173    3.7417    0.0000 C   0  0  0  0  0  0  0  0  0  0  0  0
    1.3293    5.2425    0.0000 C   0  0  0  0  0  0  0  0  0  0  0  0
    2.6489    7.4832    0.0000 C   0  0  0  0  0  0  0  0  0  0  0  0
    3.9266    5.2210    0.0000 C   0  0  0  0  0  0  0  0  0  0  0  0
    3.9549    8.2209    0.0000 C   0  0  0  0  0  0  0  0  0  0  0  0
    5.2327    5.9587    0.0000 C   0  0  0  0  0  0  0  0  0  0  0  0
    6.2917    8.0488    0.0000 C   0  0  0  0  0  0  0  0  0  0  0  0
  1 15  1  0
  2  8  1  0
  2  9  1  0
  3  6  1  0
  3  7  1  0
  3 13  1  0
  4 20  1  0
  4 21  1  0
  4 22  1  0
  5 23  1  0
  5 24  1  0
  5 25  1  0
  6  8  2  0
  6 10  1  0
  7  9  2  0
  7 12  1  0
  8 11  1  0
  9 14  1  0
 10 15  2  0
 11 16  2  0
 12 17  2  0
 13 19  1  0
 14 18  2  0
 15 16  1  0
 17 18  1  0
 19 20  1  0
 21 23  1  0
 22 24  1  0
M  END
>  <Classification>  (8) 
0

>  <pchembl>  (8) 
4.3

>  <InChI_steorem>  (8) 
InChI=1S/C20H24ClN3S/c1-22-11-13-23(14-12-22)9-4-10-24-17-5-2-3-6-19(17)25-20-8-7-16(21)15-18(20)24/h2-3,5-8,15H,4,9-14H2,1H3

>  <source>  (8) 
ChEMBL25

>  <source_id>  (8) 
25

>  <optional_reference>  (8) 
10.1021/jm8003152

>  <optional_origin>  (8) 
None

>  <target>  (8) 
OCT1

$$$$

     RDKit          2D

 11 11  0  0  0  0  0  0  0  0999 V2000
    6.7792   -8.5667    0.0000 C   0  0  0  0  0  0  0  0  0  0  0  0
    6.7875   -7.7417    0.0000 N   0  0  0  0  0  0  0  0  0  0  0  0
    6.0667   -8.9792    0.0000 N   0  0  0  0  0  0  0  0  0  0  0  0
    5.3542   -8.5667    0.0000 C   0  0  0  0  0  0  0  0  0  0  0  0
    4.6417   -8.9792    0.0000 C   0  0  0  0  0  0  0  0  0  0  0  0
    7.5000   -8.9792    0.0000 N   0  0  0  0  0  0  0  0  0  0  0  0
    3.9292   -8.5667    0.0000 C   0  0  0  0  0  0  0  0  0  0  0  0
    3.2167   -8.9792    0.0000 Cl  0  0  0  0  0  0  0  0  0  0  0  0
    4.6417   -7.3292    0.0000 C   0  0  0  0  0  0  0  0  0  0  0  0
    5.3542   -7.7417    0.0000 C   0  0  0  0  0  0  0  0  0  0  0  0
    3.9292   -7.7417    0.0000 C   0  0  0  0  0  0  0  0  0  0  0  0
  2  1  2  0
  3  1  1  0
  4  3  1  0
  5  4  2  0
  6  1  1  0
  7  5  1  0
  8  7  1  0
  9 10  2  0
 10  4  1  0
 11  9  1  0
  7 11  2  0
M  END
>  <Classification>  (9) 
0

>  <pchembl>  (9) 
4.86

>  <InChI_steorem>  (9) 
InChI=1S/C7H8ClN3/c8-5-2-1-3-6(4-5)11-7(9)10/h1-4H,(H4,9,10,11)

>  <source>  (9) 
ChEMBL25

>  <source_id>  (9) 
25

>  <optional_reference>  (9) 
10.1016/j.bmcl.2017.08.008

>  <optional_origin>  (9) 
None

>  <target>  (9) 
OCT1

$$$$

     RDKit          2D

 11 11  0  0  0  0  0  0  0  0999 V2000
    6.7792   -8.5667    0.0000 C   0  0  0  0  0  0  0  0  0  0  0  0
    6.7875   -7.7417    0.0000 N   0  0  0  0  0  0  0  0  0  0  0  0
    6.0667   -8.9792    0.0000 N   0  0  0  0  0  0  0  0  0  0  0  0
    7.5000   -8.9792    0.0000 N   0  0  0  0  0  0  0  0  0  0  0  0
    5.3542   -8.5667    0.0000 C   0  0  0  0  0  0  0  0  0  0  0  0
    3.9292   -7.7417    0.0000 C   0  0  0  0  0  0  0  0  0  0  0  0
    3.2167   -7.3292    0.0000 Cl  0  0  0  0  0  0  0  0  0  0  0  0
    5.3542   -7.7417    0.0000 C   0  0  0  0  0  0  0  0  0  0  0  0
    4.6417   -8.9792    0.0000 C   0  0  0  0  0  0  0  0  0  0  0  0
    4.6417   -7.3292    0.0000 C   0  0  0  0  0  0  0  0  0  0  0  0
    3.9292   -8.5667    0.0000 C   0  0  0  0  0  0  0  0  0  0  0  0
  2  1  2  0
  3  1  1  0
  4  1  1  0
  5  3  1  0
  6 11  1  0
  7  6  1  0
  8  5  2  0
  9  5  1  0
 10  8  1  0
 11  9  2  0
 10  6  2  0
M  END
>  <Classification>  (10) 
1

>  <pchembl>  (10) 
5.0

>  <InChI_steorem>  (10) 
InChI=1S/C7H8ClN3/c8-5-1-3-6(4-2-5)11-7(9)10/h1-4H,(H4,9,10,11)

>  <source>  (10) 
ChEMBL25

>  <source_id>  (10) 
25

>  <optional_reference>  (10) 
10.1016/j.bmcl.2017.08.008

>  <optional_origin>  (10) 
None

>  <target>  (10) 
OCT1

$$$$

     RDKit          2D

 33 35  0  0  0  0  0  0  0  0999 V2000
    1.9167   -6.4250    0.0000 C   0  0  0  0  0  0  0  0  0  0  0  0
   -3.0750   -7.6792    0.0000 C   0  0  0  0  0  0  0  0  0  0  0  0
   -2.3625   -7.2667    0.0000 C   0  0  0  0  0  0  0  0  0  0  0  0
   -3.0750   -8.5125    0.0000 C   0  0  0  0  0  0  0  0  0  0  0  0
   -2.3583   -8.9250    0.0000 N   0  0  0  0  0  0  0  0  0  0  0  0
    2.6292   -6.0042    0.0000 C   0  0  0  0  0  0  0  0  0  0  0  0
    1.9167   -7.2542    0.0000 C   0  0  0  0  0  0  0  0  0  0  0  0
   -1.6458   -7.6750    0.0000 N   0  0  0  0  0  0  0  0  0  0  0  0
   -0.9333   -7.2625    0.0000 C   0  0  0  0  0  0  0  0  0  0  0  0
    1.1917   -6.0167    0.0000 C   0  0  0  0  0  0  0  0  0  0  0  0
    1.2042   -7.6667    0.0000 C   0  0  0  0  0  0  0  0  0  0  0  0
   -2.3708   -6.4417    0.0000 C   0  0  0  0  0  0  0  0  0  0  0  0
    2.6250   -5.1875    0.0000 O   0  0  0  0  0  0  0  0  0  0  0  0
   -0.9375   -6.4375    0.0000 O   0  0  0  0  0  0  0  0  0  0  0  0
    0.4917   -7.2542    0.0000 C   0  0  0  0  0  0  0  0  0  0  0  0
   -0.2208   -7.6667    0.0000 C   0  0  0  0  0  0  0  0  0  0  0  0
    0.4875   -6.4292    0.0000 C   0  0  0  0  0  0  0  0  0  0  0  0
    3.3417   -6.4167    0.0000 O   0  0  0  0  0  0  0  0  0  0  0  0
    2.6292   -7.6625    0.0000 O   0  0  0  0  0  0  0  0  0  0  0  0
   -3.7958   -7.2667    0.0000 C   0  0  0  0  0  0  0  0  0  0  0  0
   -1.6458   -8.5000    0.0000 C   0  0  0  0  0  0  0  0  0  0  0  0
   -2.3625   -9.7500    0.0000 C   0  0  0  0  0  0  0  0  0  0  0  0
   -3.7958   -8.9250    0.0000 C   0  0  0  0  0  0  0  0  0  0  0  0
   -3.0833   -6.0292    0.0000 C   0  0  0  0  0  0  0  0  0  0  0  0
    2.6375   -8.4875    0.0000 C   0  0  0  0  0  0  0  0  0  0  0  0
   -3.7958   -6.4417    0.0000 C   0  0  0  0  0  0  0  0  0  0  0  0
   -3.0875   -5.2042    0.0000 C   0  0  0  0  0  0  0  0  0  0  0  0
   -4.5083   -7.6875    0.0000 C   0  0  0  0  0  0  0  0  0  0  0  0
   -0.9333   -8.9250    0.0000 C   0  0  0  0  0  0  0  0  0  0  0  0
   -1.6500  -10.1542    0.0000 C   0  0  0  0  0  0  0  0  0  0  0  0
   -4.5083   -8.5125    0.0000 C   0  0  0  0  0  0  0  0  0  0  0  0
    3.3542   -8.9000    0.0000 C   0  0  0  0  0  0  0  0  0  0  0  0
   -0.9333   -9.7500    0.0000 C   0  0  0  0  0  0  0  0  0  0  0  0
  2  3  1  0
  3  8  1  0
  4  2  1  0
  5  4  1  0
  6  1  1  0
  7  1  2  0
  8  9  1  0
  9 16  1  0
 10  1  1  0
 11  7  1  0
  3 12  1  0
 13  6  2  0
 14  9  2  0
 15 17  1  0
 16 15  1  0
 17 10  2  0
 18  6  1  0
 19  7  1  0
 20  2  2  0
 21  5  1  0
 22  5  1  0
 23  4  2  0
 24 12  1  0
 25 19  1  0
 26 24  1  0
 27 24  1  0
 28 20  1  0
 29 21  1  0
 30 22  1  0
 31 28  2  0
 32 25  1  0
 33 30  1  0
 11 15  2  0
 23 31  1  0
 33 29  1  0
M  END
>  <Classification>  (11) 
1

>  <pchembl>  (11) 
5.04

>  <InChI_steorem>  (11) 
InChI=1S/C27H36N2O4/c1-4-33-25-17-20(12-13-22(25)27(31)32)18-26(30)28-23(16-19(2)3)21-10-6-7-11-24(21)29-14-8-5-9-15-29/h6-7,10-13,17,19,23H,4-5,8-9,14-16,18H2,1-3H3,(H,28,30)(H,31,32)

>  <source>  (11) 
ChEMBL25

>  <source_id>  (11) 
25

>  <optional_reference>  (11) 
10.1021/jm8003152

>  <optional_origin>  (11) 
None

>  <target>  (11) 
OCT1

$$$$

     RDKit          2D

 11 11  0  0  0  0  0  0  0  0999 V2000
    6.7792   -8.5667    0.0000 C   0  0  0  0  0  0  0  0  0  0  0  0
    6.7875   -7.7417    0.0000 N   0  0  0  0  0  0  0  0  0  0  0  0
    6.0667   -8.9792    0.0000 N   0  0  0  0  0  0  0  0  0  0  0  0
    7.5000   -8.9792    0.0000 N   0  0  0  0  0  0  0  0  0  0  0  0
    5.3542   -8.5667    0.0000 C   0  0  0  0  0  0  0  0  0  0  0  0
    3.9292   -7.7417    0.0000 C   0  0  0  0  0  0  0  0  0  0  0  0
    3.2167   -7.3292    0.0000 Br  0  0  0  0  0  0  0  0  0  0  0  0
    5.3542   -7.7417    0.0000 C   0  0  0  0  0  0  0  0  0  0  0  0
    4.6417   -8.9792    0.0000 C   0  0  0  0  0  0  0  0  0  0  0  0
    4.6417   -7.3292    0.0000 C   0  0  0  0  0  0  0  0  0  0  0  0
    3.9292   -8.5667    0.0000 C   0  0  0  0  0  0  0  0  0  0  0  0
  2  1  2  0
  3  1  1  0
  4  1  1  0
  5  3  1  0
  6 11  1  0
  7  6  1  0
  8  5  2  0
  9  5  1  0
 10  8  1  0
 11  9  2  0
  6 10  2  0
M  END
>  <Classification>  (12) 
1

>  <pchembl>  (12) 
5.2

>  <InChI_steorem>  (12) 
InChI=1S/C7H8BrN3/c8-5-1-3-6(4-2-5)11-7(9)10/h1-4H,(H4,9,10,11)

>  <source>  (12) 
ChEMBL25

>  <source_id>  (12) 
25

>  <optional_reference>  (12) 
10.1016/j.bmcl.2017.08.008

>  <optional_origin>  (12) 
None

>  <target>  (12) 
OCT1

$$$$

     RDKit          2D

 11 11  0  0  0  0  0  0  0  0999 V2000
    6.7792   -8.5667    0.0000 C   0  0  0  0  0  0  0  0  0  0  0  0
    6.7875   -7.7417    0.0000 N   0  0  0  0  0  0  0  0  0  0  0  0
    6.0667   -8.9792    0.0000 N   0  0  0  0  0  0  0  0  0  0  0  0
    7.5000   -8.9792    0.0000 N   0  0  0  0  0  0  0  0  0  0  0  0
    5.3542   -8.5667    0.0000 C   0  0  0  0  0  0  0  0  0  0  0  0
    3.9292   -7.7417    0.0000 C   0  0  0  0  0  0  0  0  0  0  0  0
    3.2167   -7.3292    0.0000 F   0  0  0  0  0  0  0  0  0  0  0  0
    5.3542   -7.7417    0.0000 C   0  0  0  0  0  0  0  0  0  0  0  0
    4.6417   -8.9792    0.0000 C   0  0  0  0  0  0  0  0  0  0  0  0
    4.6417   -7.3292    0.0000 C   0  0  0  0  0  0  0  0  0  0  0  0
    3.9292   -8.5667    0.0000 C   0  0  0  0  0  0  0  0  0  0  0  0
  2  1  2  0
  3  1  1  0
  4  1  1  0
  5  3  1  0
  6 11  1  0
  7  6  1  0
  8  5  2  0
  9  5  1  0
 10  8  1  0
 11  9  2  0
  6 10  2  0
M  END
>  <Classification>  (13) 
0

>  <pchembl>  (13) 
4.65

>  <InChI_steorem>  (13) 
InChI=1S/C7H8FN3/c8-5-1-3-6(4-2-5)11-7(9)10/h1-4H,(H4,9,10,11)

>  <source>  (13) 
ChEMBL25

>  <source_id>  (13) 
25

>  <optional_reference>  (13) 
10.1016/j.bmcl.2017.08.008

>  <optional_origin>  (13) 
None

>  <target>  (13) 
OCT1

$$$$

     RDKit          2D

 25 27  0  0  0  0  0  0  0  0999 V2000
    4.2750   -5.1583    0.0000 C   0  0  0  0  0  0  0  0  0  0  0  0
    3.8667   -5.8750    0.0000 C   0  0  0  0  0  0  0  0  0  0  0  0
    6.7417   -3.7125    0.0000 N   0  0  0  0  0  0  0  0  0  0  0  0
    5.1000   -5.1500    0.0000 O   0  0  0  0  0  0  0  0  0  0  0  0
    3.8542   -4.4458    0.0000 O   0  0  0  0  0  0  0  0  0  0  0  0
    3.1500   -5.4625    0.0000 C   0  0  0  0  0  0  0  0  0  0  0  0
    4.4500   -6.4583    0.0000 C   0  0  0  0  0  0  0  0  0  0  0  0
    6.3333   -4.4250    0.0000 C   0  0  0  0  0  0  0  0  0  0  0  0
    5.5042   -4.4333    0.0000 C   0  0  0  0  0  0  0  0  0  0  0  0
    3.6500   -6.6708    0.0000 O   0  0  0  0  0  0  0  0  0  0  0  0
    6.3250   -2.9958    0.0000 C   0  0  0  0  0  0  0  0  0  0  0  0
    7.5667   -3.7083    0.0000 C   0  0  0  0  0  0  0  0  0  0  0  0
    7.1500   -4.4208    0.0000 C   0  0  0  0  0  0  0  0  0  0  0  0
    5.5000   -3.0042    0.0000 C   0  0  0  0  0  0  0  0  0  0  0  0
    5.0875   -3.7208    0.0000 C   0  0  0  0  0  0  0  0  0  0  0  0
    2.4333   -5.8750    0.0000 C   0  0  0  0  0  0  0  0  0  0  0  0
    3.1500   -4.6333    0.0000 C   0  0  0  0  0  0  0  0  0  0  0  0
    4.2292   -7.2500    0.0000 C   0  0  0  0  0  0  0  0  0  0  0  0
    5.2375   -6.2417    0.0000 C   0  0  0  0  0  0  0  0  0  0  0  0
    1.7208   -5.4625    0.0000 C   0  0  0  0  0  0  0  0  0  0  0  0
    4.8125   -7.8333    0.0000 C   0  0  0  0  0  0  0  0  0  0  0  0
    5.8208   -6.8208    0.0000 C   0  0  0  0  0  0  0  0  0  0  0  0
    2.4333   -4.2208    0.0000 C   0  0  0  0  0  0  0  0  0  0  0  0
    1.7208   -4.6333    0.0000 C   0  0  0  0  0  0  0  0  0  0  0  0
    5.6083   -7.6208    0.0000 C   0  0  0  0  0  0  0  0  0  0  0  0
  2  1  1  0
  3  8  1  0
  4  1  1  0
  5  1  2  0
  6  2  1  0
  7  2  1  0
  8  9  1  0
  9  4  1  0
 10  2  1  0
 11 14  1  0
 12  3  1  0
 13  3  1  0
 14 15  1  0
 15  9  1  0
 16  6  2  0
 17  6  1  0
 18  7  2  0
 19  7  1  0
 20 16  1  0
 21 18  1  0
 22 19  2  0
 23 17  2  0
 24 23  1  0
 25 22  1  0
 11  3  1  0
 25 21  2  0
 20 24  2  0
M  CHG  1   3   1
M  END
>  <Classification>  (14) 
0

>  <pchembl>  (14) 
4.19

>  <InChI_steorem>  (14) 
InChI=1S/C21H26NO3/c1-22(2)15-9-14-19(16-22)25-20(23)21(24,17-10-5-3-6-11-17)18-12-7-4-8-13-18/h3-8,10-13,19,24H,9,14-16H2,1-2H3

>  <source>  (14) 
ChEMBL25

>  <source_id>  (14) 
25

>  <optional_reference>  (14) 
10.1021/jm8003152

>  <optional_origin>  (14) 
None

>  <target>  (14) 
OCT1

$$$$

     RDKit          2D

 19 20  0  0  0  0  0  0  0  0999 V2000
    2.3174   -7.4867    0.0000 C   0  0  0  0  0  0  0  0  0  0  0  0
    2.3125   -6.6608    0.0000 C   0  0  0  0  0  0  0  0  0  0  0  0
    1.6082   -7.9046    0.0000 C   0  0  0  0  0  0  0  0  0  0  0  0
    1.5984   -6.2527    0.0000 C   0  0  0  0  0  0  0  0  0  0  0  0
    0.8940   -7.4916    0.0000 C   0  0  0  0  0  0  0  0  0  0  0  0
    1.5936   -5.4268    0.0000 N   0  0  0  0  0  0  0  0  0  0  0  0
    2.3078   -8.3127    0.0000 O   0  0  0  0  0  0  0  0  0  0  0  0
    0.1798   -7.9046    0.0000 C   0  0  0  0  0  0  0  0  0  0  0  0
    3.0365   -7.8997    0.0000 C   0  0  0  0  0  0  0  0  0  0  0  0
    1.6082   -8.7354    0.0000 C   0  0  0  0  0  0  0  0  0  0  0  0
    3.0316   -6.2478    0.0000 C   0  0  0  0  0  0  0  0  0  0  0  0
   -0.5344   -7.4916    0.0000 O   0  0  0  0  0  0  0  0  0  0  0  0
    0.8940   -9.1483    0.0000 C   0  0  0  0  0  0  0  0  0  0  0  0
    0.1798   -8.7354    0.0000 C   0  0  0  0  0  0  0  0  0  0  0  0
    0.8794   -5.0138    0.0000 C   0  0  0  0  0  0  0  0  0  0  0  0
    2.3078   -5.0089    0.0000 C   0  0  0  0  0  0  0  0  0  0  0  0
   -1.2486   -7.9046    0.0000 C   0  0  0  0  0  0  0  0  0  0  0  0
    3.7458   -7.4867    0.0000 C   0  0  0  0  0  0  0  0  0  0  0  0
    3.7458   -6.6608    0.0000 C   0  0  0  0  0  0  0  0  0  0  0  0
  2  1  1  0
  3  1  1  0
  2  4  1  0
  5  3  2  0
  6  4  1  0
  1  7  1  0
  8  5  1  0
  9  1  1  0
 10  3  1  0
 11  2  1  0
 12  8  1  0
 13 10  2  0
 14  8  2  0
 15  6  1  0
 16  6  1  0
 17 12  1  0
 18  9  1  0
 19 18  1  0
 11 19  1  0
 13 14  1  0
M  END
>  <Classification>  (15) 
0

>  <pchembl>  (15) 
4.28

>  <InChI_steorem>  (15) 
InChI=1S/C16H25NO2/c1-17(2)12-14-7-4-5-10-16(14,18)13-8-6-9-15(11-13)19-3/h6,8-9,11,14,18H,4-5,7,10,12H2,1-3H3

>  <source>  (15) 
ChEMBL25

>  <source_id>  (15) 
25

>  <optional_reference>  (15) 
10.1021/jm8003152

>  <optional_origin>  (15) 
None

>  <target>  (15) 
OCT1

$$$$

     RDKit          2D

 24 27  0  0  0  0  0  0  0  0999 V2000
   -4.1755    3.1377    0.0000 N   0  0  0  0  0  0  0  0  0  0  0  0
   -4.8900    2.7252    0.0000 C   0  0  0  0  0  0  0  0  0  0  0  0
   -4.3066    2.1419    0.0000 C   0  0  0  0  0  0  0  0  0  0  0  0
   -3.5922    2.5544    0.0000 C   0  0  0  0  0  0  0  0  0  0  0  0
   -2.7953    2.3408    0.0000 C   0  0  0  0  0  0  0  0  0  0  0  0
   -3.2078    3.0553    0.0000 C   0  0  0  0  0  0  0  0  0  0  0  0
   -4.1755    3.9627    0.0000 C   0  0  0  0  0  0  0  0  0  0  0  0
   -3.3505    3.9627    0.0000 C   0  0  0  0  0  0  0  0  0  0  0  0
   -5.6045    2.3127    0.0000 C   0  0  0  0  0  0  0  0  0  0  0  0
   -5.6045    1.4877    0.0000 C   0  0  0  0  0  0  0  0  0  0  0  0
   -6.3189    1.0752    0.0000 C   0  0  0  0  0  0  0  0  0  0  0  0
   -6.3189    0.2502    0.0000 C   0  0  0  0  0  0  0  0  0  0  0  0
   -5.6045   -0.1623    0.0000 N   0  0  0  0  0  0  0  0  0  0  0  0
   -4.8900    0.2502    0.0000 C   0  0  0  0  0  0  0  0  0  0  0  0
   -4.8900    1.0752    0.0000 C   0  0  0  0  0  0  0  0  0  0  0  0
   -7.0334    1.4877    0.0000 C   0  0  0  0  0  0  0  0  0  0  0  0
   -7.7479    1.0753    0.0000 C   0  0  0  0  0  0  0  0  0  0  0  0
   -7.7479    0.2503    0.0000 C   0  0  0  0  0  0  0  0  0  0  0  0
   -7.0334   -0.1623    0.0000 C   0  0  0  0  0  0  0  0  0  0  0  0
   -6.4014    2.0992    0.0000 O   0  0  0  0  0  0  0  0  0  0  0  0
   -8.4624    1.4878    0.0000 O   0  0  0  0  0  0  0  0  0  0  0  0
   -9.1768    1.0753    0.0000 C   0  0  0  0  0  0  0  0  0  0  0  0
   -2.7953    1.5158    0.0000 C   0  0  0  0  0  0  0  0  0  0  0  0
   -2.0808    1.1033    0.0000 C   0  0  0  0  0  0  0  0  0  0  0  0
  1  2  1  0
  2  3  1  0
  3  4  1  0
  4  5  1  0
  5  6  1  0
  6  1  1  0
  1  7  1  0
  7  8  1  0
  4  8  1  0
  2  9  1  0
  9 10  1  0
 10 11  2  0
 15 10  1  0
 12 13  2  0
 13 14  1  0
 14 15  2  0
 11 16  1  0
 12 11  1  0
 19 12  1  0
 16 17  2  0
 17 18  1  0
 18 19  2  0
  9 20  1  0
 17 21  1  0
 21 22  1  0
  5 23  1  0
 23 24  2  0
M  END
>  <Classification>  (16) 
0

>  <pchembl>  (16) 
4.29

>  <InChI_steorem>  (16) 
InChI=1S/C20H24N2O2/c1-3-13-12-22-9-7-14(13)10-19(22)20(23)16-6-8-21-18-5-4-15(24-2)11-17(16)18/h3-6,8,11,13-14,19-20,23H,1,7,9-10,12H2,2H3

>  <source>  (16) 
ChEMBL25

>  <source_id>  (16) 
25

>  <optional_reference>  (16) 
10.1021/jm8003152

>  <optional_origin>  (16) 
None

>  <target>  (16) 
OCT1

$$$$

     RDKit          2D

 13 12  0  0  0  0  0  0  0  0999 V2000
    2.9684    1.8414    0.0000 C   0  0  0  0  0  0  0  0  0  0  0  0
    2.2539    1.4289    0.0000 C   0  0  0  0  0  0  0  0  0  0  0  0
    1.5395    1.8414    0.0000 C   0  0  0  0  0  0  0  0  0  0  0  0
    0.8250    1.4289    0.0000 N   0  0  0  0  0  0  0  0  0  0  0  0
    0.1105    1.0164    0.0000 C   0  0  0  0  0  0  0  0  0  0  0  0
   -0.6039    1.4289    0.0000 C   0  0  0  0  0  0  0  0  0  0  0  0
   -1.3184    1.0164    0.0000 C   0  0  0  0  0  0  0  0  0  0  0  0
    0.4125    2.1434    0.0000 C   0  0  0  0  0  0  0  0  0  0  0  0
   -0.4125    2.1434    0.0000 C   0  0  0  0  0  0  0  0  0  0  0  0
   -0.8250    2.8579    0.0000 C   0  0  0  0  0  0  0  0  0  0  0  0
    1.2375    0.7145    0.0000 C   0  0  0  0  0  0  0  0  0  0  0  0
    0.8250    0.0000    0.0000 C   0  0  0  0  0  0  0  0  0  0  0  0
    0.0000    0.0000    0.0000 C   0  0  0  0  0  0  0  0  0  0  0  0
  1  2  1  0
  2  3  1  0
  3  4  1  0
  4  5  1  0
  5  6  1  0
  6  7  1  0
  4  8  1  0
  8  9  1  0
  9 10  1  0
  4 11  1  0
 11 12  1  0
 12 13  1  0
M  CHG  1   4   1
M  END
>  <Classification>  (17) 
0

>  <pchembl>  (17) 
4.05

>  <InChI_steorem>  (17) 
InChI=1S/C12H28N/c1-5-9-13(10-6-2,11-7-3)12-8-4/h5-12H2,1-4H3

>  <source>  (17) 
ChEMBL25

>  <source_id>  (17) 
25

>  <optional_reference>  (17) 
None

>  <optional_origin>  (17) 
None

>  <target>  (17) 
OCT1

$$$$

     RDKit          2D

 21 20  0  0  0  0  0  0  0  0999 V2000
   -3.9039    0.6039    0.0000 C   0  0  0  0  0  0  0  0  0  0  0  0
   -3.0789    0.6039    0.0000 C   0  0  0  0  0  0  0  0  0  0  0  0
   -2.6664   -0.1105    0.0000 C   0  0  0  0  0  0  0  0  0  0  0  0
   -1.8414   -0.1105    0.0000 C   0  0  0  0  0  0  0  0  0  0  0  0
   -1.4289   -0.8250    0.0000 C   0  0  0  0  0  0  0  0  0  0  0  0
   -0.6039   -0.8250    0.0000 N   0  0  0  0  0  0  0  0  0  0  0  0
    0.2211   -0.8250    0.0000 C   0  0  0  0  0  0  0  0  0  0  0  0
    0.6336   -1.5395    0.0000 C   0  0  0  0  0  0  0  0  0  0  0  0
    1.4586   -1.5395    0.0000 C   0  0  0  0  0  0  0  0  0  0  0  0
    1.8711   -2.2539    0.0000 C   0  0  0  0  0  0  0  0  0  0  0  0
    2.6961   -2.2539    0.0000 C   0  0  0  0  0  0  0  0  0  0  0  0
   -0.6039   -1.6500    0.0000 C   0  0  0  0  0  0  0  0  0  0  0  0
    0.1105   -2.0625    0.0000 C   0  0  0  0  0  0  0  0  0  0  0  0
    0.1105   -2.8875    0.0000 C   0  0  0  0  0  0  0  0  0  0  0  0
    0.8250   -3.3000    0.0000 C   0  0  0  0  0  0  0  0  0  0  0  0
    0.8250   -4.1250    0.0000 C   0  0  0  0  0  0  0  0  0  0  0  0
   -0.6039    0.0000    0.0000 C   0  0  0  0  0  0  0  0  0  0  0  0
    0.1105    0.4125    0.0000 C   0  0  0  0  0  0  0  0  0  0  0  0
    0.8250    0.0000    0.0000 C   0  0  0  0  0  0  0  0  0  0  0  0
    1.5395    0.4125    0.0000 C   0  0  0  0  0  0  0  0  0  0  0  0
    2.2539    0.0000    0.0000 C   0  0  0  0  0  0  0  0  0  0  0  0
  1  2  1  0
  2  3  1  0
  3  4  1  0
  4  5  1  0
  5  6  1  0
  6  7  1  0
  7  8  1  0
  8  9  1  0
  9 10  1  0
 10 11  1  0
  6 12  1  0
 12 13  1  0
 13 14  1  0
 14 15  1  0
 15 16  1  0
  6 17  1  0
 17 18  1  0
 18 19  1  0
 19 20  1  0
 20 21  1  0
M  CHG  1   6   1
M  END
>  <Classification>  (18) 
1

>  <pchembl>  (18) 
5.13

>  <InChI_steorem>  (18) 
InChI=1S/C20H44N/c1-5-9-13-17-21(18-14-10-6-2,19-15-11-7-3)20-16-12-8-4/h5-20H2,1-4H3

>  <source>  (18) 
ChEMBL25

>  <source_id>  (18) 
25

>  <optional_reference>  (18) 
None

>  <optional_origin>  (18) 
None

>  <target>  (18) 
OCT1

$$$$

     RDKit          2D

 23 23  0  0  0  0  0  0  0  0999 V2000
   -0.1472  -31.7602    0.0000 C   0  0  0  0  0  0  0  0  0  0  0  0
    0.6761  -31.7614    0.0000 C   0  0  0  0  0  0  0  0  0  0  0  0
    1.0869  -31.0501    0.0000 C   0  0  0  0  0  0  0  0  0  0  0  0
    0.6756  -30.3373    0.0000 C   0  0  0  0  0  0  0  0  0  0  0  0
   -0.1508  -30.3402    0.0000 C   0  0  0  0  0  0  0  0  0  0  0  0
   -0.5578  -31.0519    0.0000 C   0  0  0  0  0  0  0  0  0  0  0  0
   -1.3828  -31.0544    0.0000 C   0  0  0  0  0  0  0  0  0  0  0  0
   -1.7975  -30.3412    0.0000 N   0  0  0  0  0  0  0  0  0  0  0  0
   -1.7932  -31.7701    0.0000 C   0  0  0  0  0  0  0  0  0  0  0  0
   -2.6183  -31.7726    0.0000 O   0  0  0  0  0  0  0  0  0  0  0  0
   -1.3785  -32.4834    0.0000 O   0  0  0  0  0  0  0  0  0  0  0  0
   -3.0286  -32.4883    0.0000 C   0  0  0  0  0  0  0  0  0  0  0  0
   -3.8536  -32.4907    0.0000 C   0  0  0  0  0  0  0  0  0  0  0  0
   -4.2640  -33.2065    0.0000 C   0  0  0  0  0  0  0  0  0  0  0  0
   -5.0890  -33.2089    0.0000 C   0  0  0  0  0  0  0  0  0  0  0  0
   -3.8494  -33.9198    0.0000 C   0  0  0  0  0  0  0  0  0  0  0  0
   -2.6225  -30.3436    0.0000 C   0  0  0  0  0  0  0  0  0  0  0  0
   -3.0371  -29.6304    0.0000 C   0  0  0  0  0  0  0  0  0  0  0  0
   -3.8622  -29.6329    0.0000 N   0  0  0  0  0  0  0  0  0  0  0  0
   -4.2768  -28.9196    0.0000 C   0  0  0  0  0  0  0  0  0  0  0  0
   -5.1018  -28.9221    0.0000 C   0  0  0  0  0  0  0  0  0  0  0  0
   -4.2725  -30.3486    0.0000 C   0  0  0  0  0  0  0  0  0  0  0  0
   -5.0975  -30.3510    0.0000 C   0  0  0  0  0  0  0  0  0  0  0  0
  5  6  1  0
 10 12  1  0
  6  1  2  0
 12 13  1  0
  1  2  1  0
 13 14  1  0
  6  7  1  0
 14 15  1  0
  3  4  1  0
 14 16  1  0
  7  8  1  0
  8 17  1  0
 17 18  1  0
  7  9  1  0
 18 19  1  0
  4  5  2  0
 19 20  1  0
  9 10  1  0
 20 21  1  0
  2  3  2  0
 19 22  1  0
  9 11  2  0
 22 23  1  0
M  END
>  <Classification>  (19) 
1

>  <pchembl>  (19) 
5.04

>  <InChI_steorem>  (19) 
InChI=1S/C19H32N2O2/c1-5-21(6-2)14-13-20-18(17-10-8-7-9-11-17)19(22)23-15-12-16(3)4/h7-11,16,18,20H,5-6,12-15H2,1-4H3

>  <source>  (19) 
ChEMBL25

>  <source_id>  (19) 
25

>  <optional_reference>  (19) 
10.1021/acs.jmedchem.6b01317

>  <optional_origin>  (19) 
None

>  <target>  (19) 
OCT1

$$$$

     RDKit          2D

 29 31  0  0  0  0  0  0  0  0999 V2000
    7.5395   -1.3388    0.0000 C   0  0  0  0  0  0  0  0  0  0  0  0
    6.4990   -0.7409    0.0000 O   0  0  0  0  0  0  0  0  0  0  0  0
    5.2003   -1.4932    0.0000 C   0  0  0  0  0  0  0  0  0  0  0  0
    3.8990   -0.7455    0.0000 C   0  0  0  0  0  0  0  0  0  0  0  0
    2.6003   -1.4977    0.0000 O   0  0  0  0  0  0  0  0  0  0  0  0
    1.2990   -0.7500    0.0000 C   0  0  0  0  0  0  0  0  0  0  0  0
    1.2990    0.7500    0.0000 C   0  0  0  0  0  0  0  0  0  0  0  0
    0.0000    1.5000    0.0000 C   0  0  0  0  0  0  0  0  0  0  0  0
    0.0000    3.0000    0.0000 N   0  0  0  0  0  0  0  0  0  0  0  0
   -1.2991    3.7500    0.0000 C   0  0  0  0  0  0  0  0  0  0  0  0
   -2.5981    3.0000    0.0000 N   0  0  0  0  0  0  0  0  0  0  0  0
   -2.5981    1.5000    0.0000 C   0  0  0  0  0  0  0  0  0  0  0  0
   -3.8994    0.7522    0.0000 N   0  0  0  0  0  0  0  0  0  0  0  0
   -5.1981    1.5045    0.0000 C   0  0  0  0  0  0  0  0  0  0  0  0
   -6.4998    0.7590    0.0000 C   0  0  0  0  0  0  0  0  0  0  0  0
   -7.7962    1.5135    0.0000 C   0  0  0  0  0  0  0  0  0  0  0  0
   -7.7910    3.0135    0.0000 C   0  0  0  0  0  0  0  0  0  0  0  0
   -6.4894    3.7590    0.0000 C   0  0  0  0  0  0  0  0  0  0  0  0
   -5.1930    3.0045    0.0000 C   0  0  0  0  0  0  0  0  0  0  0  0
   -6.4842    5.2598    0.0000 C   0  0  0  0  0  0  0  0  0  0  0  0
   -6.4801    6.4598    0.0000 C   0  0  0  0  0  0  0  0  0  0  0  0
   -1.2990    0.7500    0.0000 C   0  0  0  0  0  0  0  0  0  0  0  0
   -1.2990   -0.7500    0.0000 C   0  0  0  0  0  0  0  0  0  0  0  0
    0.0000   -1.5000    0.0000 C   0  0  0  0  0  0  0  0  0  0  0  0
   -0.0031   -3.0008    0.0000 O   0  0  0  0  0  0  0  0  0  0  0  0
   -1.3039   -3.7494    0.0000 C   0  0  0  0  0  0  0  0  0  0  0  0
   -1.3070   -5.2502    0.0000 C   0  0  0  0  0  0  0  0  0  0  0  0
   -2.6078   -5.9988    0.0000 O   0  0  0  0  0  0  0  0  0  0  0  0
   -2.6103   -7.1988    0.0000 C   0  0  0  0  0  0  0  0  0  0  0  0
  1  2  1  0
  2  3  1  0
  3  4  1  0
  4  5  1  0
  5  6  1  0
  6  7  2  0
  7  8  1  0
  8  9  2  0
  9 10  1  0
 10 11  2  0
 11 12  1  0
 12 13  1  0
 13 14  1  0
 14 15  2  0
 15 16  1  0
 16 17  2  0
 17 18  1  0
 18 19  2  0
 19 14  1  0
 18 20  1  0
 20 21  3  0
 12 22  2  0
 22  8  1  0
 22 23  1  0
 23 24  2  0
 24  6  1  0
 24 25  1  0
 25 26  1  0
 26 27  1  0
 27 28  1  0
 28 29  1  0
M  END
>  <Classification>  (20) 
0

>  <pchembl>  (20) 
4.79

>  <InChI_steorem>  (20) 
InChI=1S/C22H23N3O4/c1-4-16-6-5-7-17(12-16)25-22-18-13-20(28-10-8-26-2)21(29-11-9-27-3)14-19(18)23-15-24-22/h1,5-7,12-15H,8-11H2,2-3H3,(H,23,24,25)

>  <source>  (20) 
ChEMBL25

>  <source_id>  (20) 
25

>  <optional_reference>  (20) 
10.1021/acs.jmedchem.6b01317

>  <optional_origin>  (20) 
None

>  <target>  (20) 
OCT1

$$$$

     RDKit          2D

 29 31  0  0  0  0  0  0  0  0999 V2000
   -6.3793  -14.2822    0.0000 C   0  0  0  0  0  0  0  0  0  0  0  0
   -6.0099  -13.1405    0.0000 C   0  0  0  0  0  0  0  0  0  0  0  0
   -4.5425  -12.8257    0.0000 N   0  0  0  0  0  0  0  0  0  0  0  0
   -3.5342  -13.9374    0.0000 C   0  0  0  0  0  0  0  0  0  0  0  0
   -2.3612  -13.6845    0.0000 C   0  0  0  0  0  0  0  0  0  0  0  0
   -4.0804  -11.3978    0.0000 C   0  0  0  0  0  0  0  0  0  0  0  0
   -2.6130  -11.0830    0.0000 C   0  0  0  0  0  0  0  0  0  0  0  0
   -2.1509   -9.6551    0.0000 N   0  0  0  0  0  0  0  0  0  0  0  0
   -0.6835   -9.3403    0.0000 C   0  0  0  0  0  0  0  0  0  0  0  0
    0.1208  -10.2309    0.0000 O   0  0  0  0  0  0  0  0  0  0  0  0
   -0.2222   -7.9149    0.0000 C   0  0  0  0  0  0  0  0  0  0  0  0
    1.2028   -7.4466    0.0000 C   0  0  0  0  0  0  0  0  0  0  0  0
    2.1760   -8.1488    0.0000 C   0  0  0  0  0  0  0  0  0  0  0  0
    1.1979   -5.9466    0.0000 N   0  0  0  0  0  0  0  0  0  0  0  0
   -0.2234   -5.5086    0.0000 C   0  0  0  0  0  0  0  0  0  0  0  0
   -0.6890   -4.0818    0.0000 C   0  0  0  0  0  0  0  0  0  0  0  0
    0.3114   -2.9665    0.0000 C   0  0  0  0  0  0  0  0  0  0  0  0
    1.8032   -3.1233    0.0000 C   0  0  0  0  0  0  0  0  0  0  0  0
    2.4032   -4.1625    0.0000 O   0  0  0  0  0  0  0  0  0  0  0  0
    2.4133   -1.7530    0.0000 N   0  0  0  0  0  0  0  0  0  0  0  0
    1.2990   -0.7500    0.0000 C   0  0  0  0  0  0  0  0  0  0  0  0
    1.2990    0.7500    0.0000 C   0  0  0  0  0  0  0  0  0  0  0  0
    0.0000    1.5000    0.0000 C   0  0  0  0  0  0  0  0  0  0  0  0
   -1.2990    0.7500    0.0000 C   0  0  0  0  0  0  0  0  0  0  0  0
   -2.3383    1.3500    0.0000 F   0  0  0  0  0  0  0  0  0  0  0  0
   -1.2990   -0.7500    0.0000 C   0  0  0  0  0  0  0  0  0  0  0  0
    0.0000   -1.5000    0.0000 C   0  0  0  0  0  0  0  0  0  0  0  0
   -1.1079   -6.7042    0.0000 C   0  0  0  0  0  0  0  0  0  0  0  0
   -2.3079   -6.7011    0.0000 C   0  0  0  0  0  0  0  0  0  0  0  0
  1  2  1  0
  2  3  1  0
  3  4  1  0
  4  5  1  0
  3  6  1  0
  6  7  1  0
  7  8  1  0
  8  9  1  0
  9 10  2  0
  9 11  1  0
 11 12  2  0
 12 13  1  0
 12 14  1  0
 14 15  1  0
 15 16  1  0
 16 17  2  3
 17 18  1  0
 18 19  2  0
 18 20  1  0
 20 21  1  0
 21 22  2  0
 22 23  1  0
 23 24  2  0
 24 25  1  0
 24 26  1  0
 26 27  2  0
 27 17  1  0
 27 21  1  0
 15 28  2  0
 28 11  1  0
 28 29  1  0
M  END
>  <Classification>  (21) 
1

>  <pchembl>  (21) 
5.21

>  <InChI_steorem>  (21) 
InChI=1S/C22H27FN4O2/c1-5-27(6-2)10-9-24-22(29)20-13(3)19(25-14(20)4)12-17-16-11-15(23)7-8-18(16)26-21(17)28/h7-8,11-12,25H,5-6,9-10H2,1-4H3,(H,24,29)(H,26,28)

>  <source>  (21) 
ChEMBL25

>  <source_id>  (21) 
25

>  <optional_reference>  (21) 
10.1021/acs.jmedchem.6b01317

>  <optional_origin>  (21) 
None

>  <target>  (21) 
OCT1

$$$$

     RDKit          2D

 21 25  0  0  0  0  0  0  0  0999 V2000
    4.3243   -0.5038    0.0000 C   0  0  0  0  0  0  0  0  0  0  0  0
    3.2622   -1.0625    0.0000 N   0  0  0  0  0  0  0  0  0  0  0  0
    3.2622   -1.9005    0.0000 C   0  0  0  0  0  0  0  0  0  0  0  0
    0.0000   -1.9005    0.0000 C   0  0  0  0  0  0  0  0  0  0  0  0
    0.0000   -0.4040    0.0000 C   0  0  0  0  0  0  0  0  0  0  0  0
   -1.3618   -1.1223    0.0000 C   0  0  0  0  0  0  0  0  0  0  0  0
   -2.5589    0.2394    0.0000 O   0  0  0  0  0  0  0  0  0  0  0  0
   -1.3618    1.6760    0.0000 C   0  0  0  0  0  0  0  0  0  0  0  0
   -1.3618    3.0827    0.0000 C   0  0  0  0  0  0  0  0  0  0  0  0
   -2.3839    3.7113    0.0000 O   0  0  0  0  0  0  0  0  0  0  0  0
    0.0000    3.7710    0.0000 C   0  0  0  0  0  0  0  0  0  0  0  0
    1.0625    3.0827    0.0000 C   0  0  0  0  0  0  0  0  0  0  0  0
    1.0625    1.6760    0.0000 C   0  0  0  0  0  0  0  0  0  0  0  0
    2.3045    0.9727    0.0000 C   0  0  0  0  0  0  0  0  0  0  0  0
    2.3045   -0.4040    0.0000 C   0  0  0  0  0  0  0  0  0  0  0  0
    1.0774   -1.1373    0.0000 C   0  0  0  0  0  0  0  0  0  0  0  0
    1.0774   -2.5589    0.0000 C   0  0  0  0  0  0  0  0  0  0  0  0
    0.0000   -3.2772    0.0000 C   0  0  0  0  0  0  0  0  0  0  0  0
   -1.3618   -2.5589    0.0000 C   0  0  0  0  0  0  0  0  0  0  0  0
   -2.3893   -3.1787    0.0000 O   0  0  0  0  0  0  0  0  0  0  0  0
    0.0000    0.9727    0.0000 C   0  0  0  0  0  0  0  0  0  0  0  0
  1  2  1  0
  2  3  1  0
  3  4  1  0
  5  4  1  0
  5  6  1  0
  6  7  1  0
  7  8  1  0
  8  9  2  0
  9 10  1  0
  9 11  1  0
 11 12  2  0
 12 13  1  0
 13 14  1  0
 15 14  1  0
 15  2  1  0
 15 16  1  0
 16  5  1  0
 16 17  1  0
 17 18  2  0
 18 19  1  0
 19  6  1  0
 19 20  1  0
 13 21  2  0
 21  5  1  0
 21  8  1  0
M  END
>  <Classification>  (22) 
0

>  <pchembl>  (22) 
4.55

>  <InChI_steorem>  (22) 
InChI=1S/C17H19NO3/c1-18-7-6-17-10-3-5-13(20)16(17)21-15-12(19)4-2-9(14(15)17)8-11(10)18/h2-5,10-11,13,16,19-20H,6-8H2,1H3

>  <source>  (22) 
ChEMBL25

>  <source_id>  (22) 
25

>  <optional_reference>  (22) 
10.1021/jm8003152

>  <optional_origin>  (22) 
None

>  <target>  (22) 
OCT1

$$$$

     RDKit          2D

 21 23  0  0  0  0  0  0  0  0999 V2000
    6.6622   -4.1979    0.0000 C   0  0  0  0  0  0  0  0  0  0  0  0
    5.4929   -3.9285    0.0000 N   0  0  0  0  0  0  0  0  0  0  0  0
    4.6751   -4.8068    0.0000 C   0  0  0  0  0  0  0  0  0  0  0  0
    5.0525   -2.4938    0.0000 C   0  0  0  0  0  0  0  0  0  0  0  0
    3.5900   -2.1568    0.0000 C   0  0  0  0  0  0  0  0  0  0  0  0
    3.1497   -0.7220    0.0000 C   0  0  0  0  0  0  0  0  0  0  0  0
    1.6852   -0.3846    0.0000 C   0  0  0  0  0  0  0  0  0  0  0  0
    0.7452   -1.5536    0.0000 C   0  0  0  0  0  0  0  0  0  0  0  0
    1.4899   -2.8569    0.0000 C   0  0  0  0  0  0  0  0  0  0  0  0
    0.7346   -4.1529    0.0000 C   0  0  0  0  0  0  0  0  0  0  0  0
   -0.7654   -4.1467    0.0000 C   0  0  0  0  0  0  0  0  0  0  0  0
   -1.5101   -2.8447    0.0000 C   0  0  0  0  0  0  0  0  0  0  0  0
   -0.7548   -1.5474    0.0000 C   0  0  0  0  0  0  0  0  0  0  0  0
   -1.6852   -0.3709    0.0000 C   0  0  0  0  0  0  0  0  0  0  0  0
   -1.3455    1.0901    0.0000 O   0  0  0  0  0  0  0  0  0  0  0  0
    0.0086    1.7354    0.0000 C   0  0  0  0  0  0  0  0  0  0  0  0
   -0.0968    3.2328    0.0000 C   0  0  0  0  0  0  0  0  0  0  0  0
    1.1460    4.0727    0.0000 C   0  0  0  0  0  0  0  0  0  0  0  0
    2.4948    3.4164    0.0000 C   0  0  0  0  0  0  0  0  0  0  0  0
    2.6008    1.9201    0.0000 C   0  0  0  0  0  0  0  0  0  0  0  0
    1.3574    1.0791    0.0000 C   0  0  0  0  0  0  0  0  0  0  0  0
  1  2  1  0
  2  3  1  0
  2  4  1  0
  4  5  1  0
  5  6  1  0
  6  7  2  3
  7  8  1  0
  8  9  2  0
  9 10  1  0
 10 11  2  0
 11 12  1  0
 12 13  2  0
 13  8  1  0
 13 14  1  0
 14 15  1  0
 15 16  1  0
 16 17  2  0
 17 18  1  0
 18 19  2  0
 19 20  1  0
 20 21  2  0
 21  7  1  0
 21 16  1  0
M  END
>  <Classification>  (23) 
0

>  <pchembl>  (23) 
4.95

>  <InChI_steorem>  (23) 
InChI=1S/C19H21NO/c1-20(2)13-7-11-17-16-9-4-3-8-15(16)14-21-19-12-6-5-10-18(17)19/h3-6,8-12H,7,13-14H2,1-2H3

>  <source>  (23) 
ChEMBL25

>  <source_id>  (23) 
25

>  <optional_reference>  (23) 
10.1021/acs.jmedchem.6b01317

>  <optional_origin>  (23) 
None

>  <target>  (23) 
OCT1

$$$$

     RDKit          2D

 25 28  0  0  0  0  0  0  0  0999 V2000
    2.3383   -1.3500    0.0000 Cl  0  0  0  0  0  0  0  0  0  0  0  0
    1.2990   -0.7500    0.0000 C   0  0  0  0  0  0  0  0  0  0  0  0
    1.2990    0.7500    0.0000 C   0  0  0  0  0  0  0  0  0  0  0  0
    0.0000    1.5000    0.0000 C   0  0  0  0  0  0  0  0  0  0  0  0
   -1.2990    0.7500    0.0000 C   0  0  0  0  0  0  0  0  0  0  0  0
   -1.2990   -0.7500    0.0000 C   0  0  0  0  0  0  0  0  0  0  0  0
    0.0000   -1.5000    0.0000 C   0  0  0  0  0  0  0  0  0  0  0  0
    0.0000   -3.0008    0.0000 C   0  0  0  0  0  0  0  0  0  0  0  0
    1.2999   -3.7508    0.0000 C   0  0  0  0  0  0  0  0  0  0  0  0
    1.3004   -5.2508    0.0000 C   0  0  0  0  0  0  0  0  0  0  0  0
    2.5997   -6.0004    0.0000 C   0  0  0  0  0  0  0  0  0  0  0  0
    3.8985   -5.2500    0.0000 C   0  0  0  0  0  0  0  0  0  0  0  0
    3.8980   -3.7500    0.0000 C   0  0  0  0  0  0  0  0  0  0  0  0
    2.5987   -3.0004    0.0000 C   0  0  0  0  0  0  0  0  0  0  0  0
   -1.2999   -2.2509    0.0000 C   0  0  0  0  0  0  0  0  0  0  0  0
   -2.5987   -3.0013    0.0000 C   0  0  0  0  0  0  0  0  0  0  0  0
   -3.8980   -2.2517    0.0000 C   0  0  0  0  0  0  0  0  0  0  0  0
   -3.8985   -0.7517    0.0000 C   0  0  0  0  0  0  0  0  0  0  0  0
   -2.5997   -0.0013    0.0000 C   0  0  0  0  0  0  0  0  0  0  0  0
   -1.3004   -0.7509    0.0000 C   0  0  0  0  0  0  0  0  0  0  0  0
   -1.2993   -3.7521    0.0000 N   0  0  0  0  0  0  0  0  0  0  0  0
   -1.4361   -5.2330    0.0000 C   0  0  0  0  0  0  0  0  0  0  0  0
   -2.9031   -5.5458    0.0000 C   0  0  0  0  0  0  0  0  0  0  0  0
   -3.6540   -4.2472    0.0000 N   0  0  0  0  0  0  0  0  0  0  0  0
   -2.6510   -3.1318    0.0000 C   0  0  0  0  0  0  0  0  0  0  0  0
  1  2  1  0
  2  3  2  0
  3  4  1  0
  4  5  2  0
  5  6  1  0
  6  7  2  0
  7  2  1  0
  7  8  1  0
  8  9  1  0
  9 10  2  0
 10 11  1  0
 11 12  2  0
 12 13  1  0
 13 14  2  0
 14  9  1  0
  8 15  1  0
 15 16  2  0
 16 17  1  0
 17 18  2  0
 18 19  1  0
 19 20  2  0
 20 15  1  0
  8 21  1  0
 21 22  1  0
 22 23  2  0
 23 24  1  0
 24 25  2  0
 25 21  1  0
M  END
>  <Classification>  (24) 
0

>  <pchembl>  (24) 
4.92

>  <InChI_steorem>  (24) 
InChI=1S/C22H17ClN2/c23-21-14-8-7-13-20(21)22(25-16-15-24-17-25,18-9-3-1-4-10-18)19-11-5-2-6-12-19/h1-17H

>  <source>  (24) 
ChEMBL25

>  <source_id>  (24) 
25

>  <optional_reference>  (24) 
10.1021/acs.jmedchem.6b01317

>  <optional_origin>  (24) 
None

>  <target>  (24) 
OCT1

$$$$

     RDKit          2D

 20 23  0  0  0  0  0  0  0  0999 V2000
    2.3910   -0.2524    0.0000 C   0  0  0  0  0  0  0  0  0  0  0  0
    1.2990   -0.7500    0.0000 C   0  0  0  0  0  0  0  0  0  0  0  0
    1.2990    0.7500    0.0000 C   0  0  0  0  0  0  0  0  0  0  0  0
    0.0000    1.5000    0.0000 C   0  0  0  0  0  0  0  0  0  0  0  0
   -1.2990    0.7500    0.0000 C   0  0  0  0  0  0  0  0  0  0  0  0
   -1.2990   -0.7500    0.0000 C   0  0  0  0  0  0  0  0  0  0  0  0
   -2.5981   -1.5000    0.0000 C   0  0  0  0  0  0  0  0  0  0  0  0
   -3.8971   -0.7500    0.0000 C   0  0  0  0  0  0  0  0  0  0  0  0
   -3.8971    0.7500    0.0000 C   0  0  0  0  0  0  0  0  0  0  0  0
   -5.1962    1.5000    0.0000 C   0  0  0  0  0  0  0  0  0  0  0  0
   -5.1962    3.0000    0.0000 C   0  0  0  0  0  0  0  0  0  0  0  0
   -6.2354    3.6000    0.0000 O   0  0  0  0  0  0  0  0  0  0  0  0
   -3.8971    3.7500    0.0000 C   0  0  0  0  0  0  0  0  0  0  0  0
   -2.5981    3.0000    0.0000 C   0  0  0  0  0  0  0  0  0  0  0  0
   -2.5981    1.5000    0.0000 C   0  0  0  0  0  0  0  0  0  0  0  0
    0.0000   -1.5000    0.0000 C   0  0  0  0  0  0  0  0  0  0  0  0
    0.3326   -2.9571    0.0000 C   0  0  0  0  0  0  0  0  0  0  0  0
    1.8253   -3.1044    0.0000 C   0  0  0  0  0  0  0  0  0  0  0  0
    2.4266   -1.7302    0.0000 C   0  0  0  0  0  0  0  0  0  0  0  0
    3.5974   -1.4667    0.0000 O   0  0  0  0  0  0  0  0  0  0  0  0
  2  1  1  0
  2  3  1  0
  3  4  1  0
  5  4  1  0
  5  6  1  0
  6  7  1  0
  7  8  1  0
  8  9  1  0
  9 10  2  0
 10 11  1  0
 11 12  1  0
 11 13  2  0
 13 14  1  0
 14 15  2  0
 15  5  1  0
 15  9  1  0
  6 16  1  0
 16  2  1  0
 16 17  1  0
 17 18  1  0
 18 19  1  0
 19  2  1  0
 19 20  1  0
M  END
>  <Classification>  (25) 
1

>  <pchembl>  (25) 
5.24

>  <InChI_steorem>  (25) 
InChI=1S/C18H24O2/c1-18-9-8-14-13-5-3-12(19)10-11(13)2-4-15(14)16(18)6-7-17(18)20/h3,5,10,14-17,19-20H,2,4,6-9H2,1H3

>  <source>  (25) 
ChEMBL25

>  <source_id>  (25) 
25

>  <optional_reference>  (25) 
10.1038/sj.bjp.0704785

>  <optional_origin>  (25) 
None

>  <target>  (25) 
OCT1

$$$$

     RDKit          2D

 36 40  0  0  0  0  0  0  0  0999 V2000
    3.6375   -0.9049    0.0000 C   0  0  0  0  0  0  0  0  0  0  0  0
    2.5973   -1.5031    0.0000 C   0  0  0  0  0  0  0  0  0  0  0  0
    2.5956   -2.7031    0.0000 O   0  0  0  0  0  0  0  0  0  0  0  0
    1.2990   -0.7500    0.0000 N   0  0  0  0  0  0  0  0  0  0  0  0
    1.2990    0.7500    0.0000 C   0  0  0  0  0  0  0  0  0  0  0  0
    0.0000    1.5000    0.0000 C   0  0  0  0  0  0  0  0  0  0  0  0
   -1.2990    0.7500    0.0000 N   0  0  0  0  0  0  0  0  0  0  0  0
   -1.2990   -0.7500    0.0000 C   0  0  0  0  0  0  0  0  0  0  0  0
    0.0000   -1.5000    0.0000 C   0  0  0  0  0  0  0  0  0  0  0  0
   -2.5987    1.5004    0.0000 C   0  0  0  0  0  0  0  0  0  0  0  0
   -2.6012    3.0004    0.0000 C   0  0  0  0  0  0  0  0  0  0  0  0
   -3.9015    3.7484    0.0000 C   0  0  0  0  0  0  0  0  0  0  0  0
   -5.1993    2.9963    0.0000 C   0  0  0  0  0  0  0  0  0  0  0  0
   -6.5018    3.7420    0.0000 O   0  0  0  0  0  0  0  0  0  0  0  0
   -7.7993    2.9876    0.0000 C   0  0  0  0  0  0  0  0  0  0  0  0
   -9.1017    3.7333    0.0000 C   0  0  0  0  0  0  0  0  0  0  0  0
  -10.4521    3.1101    0.0000 C   0  0  0  0  0  0  0  0  0  0  0  0
  -11.4576    4.2232    0.0000 O   0  0  0  0  0  0  0  0  0  0  0  0
  -10.7097    5.5235    0.0000 C   0  0  0  0  0  0  0  0  0  0  0  0
  -12.1915    5.6529    0.0000 C   0  0  0  0  0  0  0  0  0  0  0  0
  -13.0723    4.4376    0.0000 N   0  0  0  0  0  0  0  0  0  0  0  0
  -14.5587    4.4336    0.0000 C   0  0  0  0  0  0  0  0  0  0  0  0
  -15.0012    3.0003    0.0000 C   0  0  0  0  0  0  0  0  0  0  0  0
  -13.7748    2.1366    0.0000 N   0  0  0  0  0  0  0  0  0  0  0  0
  -12.5744    3.0360    0.0000 C   0  0  0  0  0  0  0  0  0  0  0  0
   -9.2420    5.2139    0.0000 O   0  0  0  0  0  0  0  0  0  0  0  0
   -9.8181    6.7146    0.0000 C   0  0  0  0  0  0  0  0  0  0  0  0
   -8.3287    6.5365    0.0000 C   0  0  0  0  0  0  0  0  0  0  0  0
   -7.4298    7.7374    0.0000 C   0  0  0  0  0  0  0  0  0  0  0  0
   -8.0203    9.1162    0.0000 C   0  0  0  0  0  0  0  0  0  0  0  0
   -7.3012   10.0769    0.0000 Cl  0  0  0  0  0  0  0  0  0  0  0  0
   -9.5097    9.2943    0.0000 C   0  0  0  0  0  0  0  0  0  0  0  0
  -10.4086    8.0934    0.0000 C   0  0  0  0  0  0  0  0  0  0  0  0
  -11.6001    8.2359    0.0000 Cl  0  0  0  0  0  0  0  0  0  0  0  0
   -5.1969    1.4963    0.0000 C   0  0  0  0  0  0  0  0  0  0  0  0
   -3.8967    0.7484    0.0000 C   0  0  0  0  0  0  0  0  0  0  0  0
  1  2  1  0
  2  3  2  0
  2  4  1  0
  4  5  1  0
  5  6  1  0
  6  7  1  0
  7  8  1  0
  8  9  1  0
  9  4  1  0
  7 10  1  0
 10 11  2  0
 11 12  1  0
 12 13  2  0
 13 14  1  0
 14 15  1  0
 15 16  1  0
 16 17  1  0
 17 18  1  0
 18 19  1  0
 19 20  1  0
 20 21  1  0
 21 22  1  0
 22 23  2  0
 23 24  1  0
 24 25  2  0
 25 21  1  0
 19 26  1  0
 26 16  1  0
 19 27  1  0
 27 28  2  0
 28 29  1  0
 29 30  2  0
 30 31  1  0
 30 32  1  0
 32 33  2  0
 33 27  1  0
 33 34  1  0
 13 35  1  0
 35 36  2  0
 36 10  1  0
M  END
>  <Classification>  (26) 
1

>  <pchembl>  (26) 
5.58

>  <InChI_steorem>  (26) 
InChI=1S/C26H28Cl2N4O4/c1-19(33)31-10-12-32(13-11-31)21-3-5-22(6-4-21)34-15-23-16-35-26(36-23,17-30-9-8-29-18-30)24-7-2-20(27)14-25(24)28/h2-9,14,18,23H,10-13,15-17H2,1H3

>  <source>  (26) 
ChEMBL25

>  <source_id>  (26) 
25

>  <optional_reference>  (26) 
10.1021/acs.jmedchem.6b01317

>  <optional_origin>  (26) 
None

>  <target>  (26) 
OCT1

$$$$

     RDKit          2D

 21 23  0  0  0  0  0  0  0  0999 V2000
    6.6622   -4.1979    0.0000 C   0  0  0  0  0  0  0  0  0  0  0  0
    5.4929   -3.9285    0.0000 N   0  0  0  0  0  0  0  0  0  0  0  0
    4.6751   -4.8068    0.0000 C   0  0  0  0  0  0  0  0  0  0  0  0
    5.0525   -2.4938    0.0000 C   0  0  0  0  0  0  0  0  0  0  0  0
    3.5900   -2.1568    0.0000 C   0  0  0  0  0  0  0  0  0  0  0  0
    3.1497   -0.7220    0.0000 C   0  0  0  0  0  0  0  0  0  0  0  0
    1.6852   -0.3846    0.0000 C   0  0  0  0  0  0  0  0  0  0  0  0
    1.3514    1.0778    0.0000 C   0  0  0  0  0  0  0  0  0  0  0  0
    2.5913    1.9239    0.0000 C   0  0  0  0  0  0  0  0  0  0  0  0
    2.4792    3.4197    0.0000 C   0  0  0  0  0  0  0  0  0  0  0  0
    1.1278    4.0705    0.0000 C   0  0  0  0  0  0  0  0  0  0  0  0
   -0.1116    3.2255    0.0000 C   0  0  0  0  0  0  0  0  0  0  0  0
    0.0000    1.7286    0.0000 C   0  0  0  0  0  0  0  0  0  0  0  0
   -1.3515    1.0777    0.0000 C   0  0  0  0  0  0  0  0  0  0  0  0
   -1.6852   -0.3847    0.0000 C   0  0  0  0  0  0  0  0  0  0  0  0
   -0.7500   -1.5574    0.0000 C   0  0  0  0  0  0  0  0  0  0  0  0
   -1.5000   -2.8577    0.0000 C   0  0  0  0  0  0  0  0  0  0  0  0
   -0.7500   -4.1567    0.0000 C   0  0  0  0  0  0  0  0  0  0  0  0
    0.7500   -4.1567    0.0000 C   0  0  0  0  0  0  0  0  0  0  0  0
    1.5000   -2.8577    0.0000 C   0  0  0  0  0  0  0  0  0  0  0  0
    0.7500   -1.5574    0.0000 C   0  0  0  0  0  0  0  0  0  0  0  0
  1  2  1  0
  2  3  1  0
  2  4  1  0
  4  5  1  0
  5  6  1  0
  6  7  2  3
  7  8  1  0
  8  9  2  0
  9 10  1  0
 10 11  2  0
 11 12  1  0
 12 13  2  0
 13  8  1  0
 13 14  1  0
 14 15  1  0
 15 16  1  0
 16 17  2  0
 17 18  1  0
 18 19  2  0
 19 20  1  0
 20 21  2  0
 21  7  1  0
 21 16  1  0
M  END
>  <Classification>  (27) 
0

>  <pchembl>  (27) 
4.77

>  <InChI_steorem>  (27) 
InChI=1S/C20H23N/c1-21(2)15-7-12-20-18-10-5-3-8-16(18)13-14-17-9-4-6-11-19(17)20/h3-6,8-12H,7,13-15H2,1-2H3

>  <source>  (27) 
ChEMBL25

>  <source_id>  (27) 
25

>  <optional_reference>  (27) 
10.1021/jm8003152

>  <optional_origin>  (27) 
None

>  <target>  (27) 
OCT1

$$$$

     RDKit          2D

 23 26  0  0  0  0  0  0  0  0999 V2000
    1.7486   -0.5188    0.0000 C   0  0  0  0  0  0  0  0  0  0  0  0
    2.5607   -0.3736    0.0000 C   0  0  0  0  0  0  0  0  0  0  0  0
    2.8410    0.4023    0.0000 C   0  0  0  0  0  0  0  0  0  0  0  0
    3.6531    0.5475    0.0000 O   0  0  0  0  0  0  0  0  0  0  0  0
    2.3092    1.0330    0.0000 C   0  0  0  0  0  0  0  0  0  0  0  0
    1.4971    0.8878    0.0000 C   0  0  0  0  0  0  0  0  0  0  0  0
    0.9653    1.5185    0.0000 C   0  0  0  0  0  0  0  0  0  0  0  0
    0.1531    1.3733    0.0000 C   0  0  0  0  0  0  0  0  0  0  0  0
   -0.1272    0.5974    0.0000 C   0  0  0  0  0  0  0  0  0  0  0  0
    0.4047   -0.0334    0.0000 C   0  0  0  0  0  0  0  0  0  0  0  0
    1.2168    0.1119    0.0000 C   0  0  0  0  0  0  0  0  0  0  0  0
    0.1244   -0.8093    0.0000 C   0  0  0  0  0  0  0  0  0  0  0  0
   -0.6878   -0.9545    0.0000 C   0  0  0  0  0  0  0  0  0  0  0  0
   -1.2196   -0.3238    0.0000 C   0  0  0  0  0  0  0  0  0  0  0  0
   -0.9393    0.4521    0.0000 C   0  0  0  0  0  0  0  0  0  0  0  0
   -1.5906    0.9585    0.0000 C   0  0  0  0  0  0  0  0  0  0  0  0
   -2.2735    0.4955    0.0000 C   0  0  0  0  0  0  0  0  0  0  0  0
   -2.0441   -0.2970    0.0000 C   0  0  0  0  0  0  0  0  0  0  0  0
   -1.5795   -1.0662    0.0000 C   0  0  0  0  0  0  0  0  0  0  0  0
    0.9365   -0.6641    0.0000 C   0  0  0  0  0  0  0  0  0  0  0  0
   -2.5505   -0.9483    0.0000 C   0  0  0  0  0  0  0  0  0  0  0  0
   -2.2396   -1.7125    0.0000 O   0  0  0  0  0  0  0  0  0  0  0  0
   -3.3677   -0.8355    0.0000 C   0  0  0  0  0  0  0  0  0  0  0  0
  1  2  1  0
  1 11  1  0
  2  3  1  0
  3  4  2  0
  3  5  1  0
  5  6  2  0
  6  7  1  0
 11  6  1  0
  7  8  1  0
  9  8  1  0
  9 10  1  0
 15  9  1  0
 11 10  1  0
 10 12  1  0
 11 20  1  0
 12 13  1  0
 13 14  1  0
 14 15  1  0
 14 18  1  0
 14 19  1  0
 15 16  1  0
 16 17  1  0
 17 18  1  0
 18 21  1  0
 21 22  2  0
 21 23  1  0
M  END
>  <Classification>  (28) 
1

>  <pchembl>  (28) 
5.52

>  <InChI_steorem>  (28) 
InChI=1S/C21H30O2/c1-13(22)17-6-7-18-16-5-4-14-12-15(23)8-10-20(14,2)19(16)9-11-21(17,18)3/h12,16-19H,4-11H2,1-3H3

>  <source>  (28) 
ChEMBL25

>  <source_id>  (28) 
25

>  <optional_reference>  (28) 
10.1038/sj.bjp.0704785

>  <optional_origin>  (28) 
None

>  <target>  (28) 
OCT1

$$$$

     RDKit          2D

 25 28  0  0  0  0  0  0  0  0999 V2000
    1.9288   -0.4166    0.0000 C   0  0  0  0  0  0  0  0  0  0  0  0
    2.7409   -0.2714    0.0000 C   0  0  0  0  0  0  0  0  0  0  0  0
    3.0212    0.5046    0.0000 C   0  0  0  0  0  0  0  0  0  0  0  0
    2.4894    1.1353    0.0000 C   0  0  0  0  0  0  0  0  0  0  0  0
    1.6773    0.9900    0.0000 C   0  0  0  0  0  0  0  0  0  0  0  0
    1.1455    1.6208    0.0000 C   0  0  0  0  0  0  0  0  0  0  0  0
    0.3333    1.4755    0.0000 C   0  0  0  0  0  0  0  0  0  0  0  0
    0.0530    0.6996    0.0000 C   0  0  0  0  0  0  0  0  0  0  0  0
    0.5849    0.0689    0.0000 C   0  0  0  0  0  0  0  0  0  0  0  0
    1.3970    0.2141    0.0000 C   0  0  0  0  0  0  0  0  0  0  0  0
    0.3046   -0.7070    0.0000 C   0  0  0  0  0  0  0  0  0  0  0  0
   -0.5076   -0.8522    0.0000 C   0  0  0  0  0  0  0  0  0  0  0  0
   -1.0394   -0.2215    0.0000 C   0  0  0  0  0  0  0  0  0  0  0  0
   -0.7591    0.5544    0.0000 C   0  0  0  0  0  0  0  0  0  0  0  0
   -1.4104    1.0608    0.0000 C   0  0  0  0  0  0  0  0  0  0  0  0
   -2.0932    0.5978    0.0000 C   0  0  0  0  0  0  0  0  0  0  0  0
   -1.8639   -0.1947    0.0000 C   0  0  0  0  0  0  0  0  0  0  0  0
   -1.3992   -0.9639    0.0000 C   0  0  0  0  0  0  0  0  0  0  0  0
    1.1167   -0.5618    0.0000 C   0  0  0  0  0  0  0  0  0  0  0  0
   -2.3703   -0.8460    0.0000 C   0  0  0  0  0  0  0  0  0  0  0  0
   -3.1875   -0.7332    0.0000 C   0  0  0  0  0  0  0  0  0  0  0  0
    3.8333    0.6498    0.0000 O   0  0  0  0  0  0  0  0  0  0  0  0
    0.8364   -1.3377    0.0000 O   0  0  0  0  0  0  0  0  0  0  0  0
   -2.0594   -1.6102    0.0000 O   0  0  0  0  0  0  0  0  0  0  0  0
   -3.6939   -1.3845    0.0000 O   0  0  0  0  0  0  0  0  0  0  0  0
  1  2  1  0
  1 10  1  0
  2  3  1  0
  3  4  1  0
  3 22  2  0
  4  5  2  0
  5  6  1  0
 10  5  1  0
  6  7  1  0
  8  7  1  0
  8  9  1  0
 14  8  1  0
 10  9  1  0
  9 11  1  0
 10 19  1  0
 11 12  1  0
 11 23  1  0
 12 13  1  0
 13 14  1  0
 13 17  1  0
 13 18  1  0
 14 15  1  0
 15 16  1  0
 16 17  1  0
 17 20  1  0
 20 21  1  0
 20 24  2  0
 21 25  1  0
M  END
>  <Classification>  (29) 
1

>  <pchembl>  (29) 
5.15

>  <InChI_steorem>  (29) 
InChI=1S/C21H30O4/c1-20-8-7-13(23)9-12(20)3-4-14-15-5-6-16(18(25)11-22)21(15,2)10-17(24)19(14)20/h9,14-17,19,22,24H,3-8,10-11H2,1-2H3

>  <source>  (29) 
ChEMBL25

>  <source_id>  (29) 
25

>  <optional_reference>  (29) 
None

>  <optional_origin>  (29) 
None

>  <target>  (29) 
OCT1

$$$$

     RDKit          2D

 20 22  0  0  0  0  0  0  0  0999 V2000
    4.6417   -4.1250    0.0000 N   0  0  0  0  0  0  0  0  0  0  0  0
    5.2792   -3.8250    0.0000 C   0  0  0  0  0  0  0  0  0  0  0  0
    4.0125   -3.8167    0.0000 C   0  0  0  0  0  0  0  0  0  0  0  0
    5.4542   -3.1417    0.0000 C   0  0  0  0  0  0  0  0  0  0  0  0
    3.8542   -3.1292    0.0000 C   0  0  0  0  0  0  0  0  0  0  0  0
    5.0042   -2.5792    0.0000 C   0  0  0  0  0  0  0  0  0  0  0  0
    4.3000   -2.5792    0.0000 C   0  0  0  0  0  0  0  0  0  0  0  0
    4.6417   -4.8667    0.0000 C   0  0  0  0  0  0  0  0  0  0  0  0
    3.3917   -6.1917    0.0000 N   0  0  0  0  0  0  0  0  0  0  0  0
    4.0167   -5.1625    0.0000 C   0  0  0  0  0  0  0  0  0  0  0  0
    3.4792   -4.2917    0.0000 C   0  0  0  0  0  0  0  0  0  0  0  0
    5.7875   -4.3167    0.0000 C   0  0  0  0  0  0  0  0  0  0  0  0
    4.0167   -5.8417    0.0000 C   0  0  0  0  0  0  0  0  0  0  0  0
    3.1792   -2.9042    0.0000 C   0  0  0  0  0  0  0  0  0  0  0  0
    6.1500   -2.9417    0.0000 C   0  0  0  0  0  0  0  0  0  0  0  0
    3.3792   -6.8917    0.0000 C   0  0  0  0  0  0  0  0  0  0  0  0
    6.4792   -4.1292    0.0000 C   0  0  0  0  0  0  0  0  0  0  0  0
    2.8000   -4.0792    0.0000 C   0  0  0  0  0  0  0  0  0  0  0  0
    2.6500   -3.3792    0.0000 C   0  0  0  0  0  0  0  0  0  0  0  0
    6.6542   -3.4500    0.0000 C   0  0  0  0  0  0  0  0  0  0  0  0
  2  1  1  0
  3  1  1  0
  4  2  2  0
  5  3  2  0
  6  4  1  0
  7  5  1  0
  8  1  1  0
  9 13  1  0
 10  8  1  0
 11  3  1  0
 12  2  1  0
 13 10  1  0
 14  5  1  0
 15  4  1  0
 16  9  1  0
 17 12  2  0
 18 11  2  0
 19 18  1  0
 20 17  1  0
  7  6  1  0
 19 14  2  0
 20 15  2  0
M  END
>  <Classification>  (30) 
0

>  <pchembl>  (30) 
4.25

>  <InChI_steorem>  (30) 
InChI=1S/C18H22N2/c1-19-13-6-14-20-17-9-4-2-7-15(17)11-12-16-8-3-5-10-18(16)20/h2-5,7-10,19H,6,11-14H2,1H3

>  <source>  (30) 
ChEMBL25

>  <source_id>  (30) 
25

>  <optional_reference>  (30) 
10.1021/jm8003152

>  <optional_origin>  (30) 
None

>  <target>  (30) 
OCT1

$$$$

     RDKit          2D

 34 35  0  0  0  0  0  0  0  0999 V2000
    1.1417   -4.2500    0.0000 C   0  0  0  0  0  0  0  0  0  0  0  0
    9.1125   -3.9417    0.0000 C   0  0  0  0  0  0  0  0  0  0  0  0
    8.4917   -4.2917    0.0000 N   0  0  0  0  0  0  0  0  0  0  0  0
    1.7625   -3.8792    0.0000 N   0  0  0  0  0  0  0  0  0  0  0  0
    2.3667   -4.2500    0.0000 C   0  0  0  0  0  0  0  0  0  0  0  0
    7.8875   -3.9375    0.0000 C   0  0  0  0  0  0  0  0  0  0  0  0
    0.5375   -3.8792    0.0000 N   0  0  0  0  0  0  0  0  0  0  0  0
    9.7125   -4.3042    0.0000 N   0  0  0  0  0  0  0  0  0  0  0  0
    1.1417   -4.9500    0.0000 N   0  0  0  0  0  0  0  0  0  0  0  0
    9.1167   -3.2292    0.0000 N   0  0  0  0  0  0  0  0  0  0  0  0
    7.8917   -3.2167    0.0000 N   0  0  0  0  0  0  0  0  0  0  0  0
    2.3667   -4.9542    0.0000 N   0  0  0  0  0  0  0  0  0  0  0  0
    2.9917   -3.9000    0.0000 N   0  0  0  0  0  0  0  0  0  0  0  0
    7.2667   -4.2792    0.0000 N   0  0  0  0  0  0  0  0  0  0  0  0
   -0.0833   -4.2167    0.0000 C   0  0  0  0  0  0  0  0  0  0  0  0
   10.3500   -3.9417    0.0000 C   0  0  0  0  0  0  0  0  0  0  0  0
   -1.3208   -4.9375    0.0000 C   0  0  0  0  0  0  0  0  0  0  0  0
   11.5792   -3.2542    0.0000 C   0  0  0  0  0  0  0  0  0  0  0  0
   -1.9333   -5.2667    0.0000 Cl  0  0  0  0  0  0  0  0  0  0  0  0
   12.1792   -2.9000    0.0000 Cl  0  0  0  0  0  0  0  0  0  0  0  0
   -0.6958   -3.8750    0.0000 C   0  0  0  0  0  0  0  0  0  0  0  0
   -0.0833   -4.9375    0.0000 C   0  0  0  0  0  0  0  0  0  0  0  0
   10.3500   -3.2417    0.0000 C   0  0  0  0  0  0  0  0  0  0  0  0
   10.9417   -4.3125    0.0000 C   0  0  0  0  0  0  0  0  0  0  0  0
   -0.7083   -5.2917    0.0000 C   0  0  0  0  0  0  0  0  0  0  0  0
   -1.3125   -4.2167    0.0000 C   0  0  0  0  0  0  0  0  0  0  0  0
   10.9542   -2.8875    0.0000 C   0  0  0  0  0  0  0  0  0  0  0  0
   11.5667   -3.9542    0.0000 C   0  0  0  0  0  0  0  0  0  0  0  0
    3.6125   -4.2583    0.0000 C   0  0  0  0  0  0  0  0  0  0  0  0
    6.6542   -3.9167    0.0000 C   0  0  0  0  0  0  0  0  0  0  0  0
    6.0167   -4.2750    0.0000 C   0  0  0  0  0  0  0  0  0  0  0  0
    4.2167   -3.9000    0.0000 C   0  0  0  0  0  0  0  0  0  0  0  0
    4.8375   -4.2750    0.0000 C   0  0  0  0  0  0  0  0  0  0  0  0
    5.4125   -3.9167    0.0000 C   0  0  0  0  0  0  0  0  0  0  0  0
  2  3  1  0
  3  6  1  0
  4  1  1  0
  5  4  1  0
  6 14  1  0
  7  1  1  0
  8  2  1  0
  9  1  2  0
 10  2  2  0
 11  6  2  0
 12  5  2  0
 13  5  1  0
 14 30  1  0
 15  7  1  0
 16  8  1  0
 17 25  2  0
 18 28  2  0
 19 17  1  0
 20 18  1  0
 21 15  1  0
 22 15  2  0
 23 16  1  0
 24 16  2  0
 25 22  1  0
 26 21  2  0
 27 23  2  0
 28 24  1  0
 29 13  1  0
 30 31  1  0
 31 34  1  0
 32 29  1  0
 33 32  1  0
 34 33  1  0
 26 17  1  0
 27 18  1  0
M  END
>  <Classification>  (31) 
1

>  <pchembl>  (31) 
6.68

>  <InChI_steorem>  (31) 
InChI=1S/C22H30Cl2N10/c23-15-5-9-17(10-6-15)31-21(27)33-19(25)29-13-3-1-2-4-14-30-20(26)34-22(28)32-18-11-7-16(24)8-12-18/h5-12H,1-4,13-14H2,(H5,25,27,29,31,33)(H5,26,28,30,32,34)

>  <source>  (31) 
ChEMBL25

>  <source_id>  (31) 
25

>  <optional_reference>  (31) 
10.1021/jm301302s

>  <optional_origin>  (31) 
None

>  <target>  (31) 
OCT1

$$$$

     RDKit          2D

 43 49  0  0  0  0  0  0  0  0999 V2000
    4.1667   -6.3875    0.0000 N   0  0  0  0  0  0  0  0  0  0  0  0
    5.1667   -7.1000    0.0000 C   0  0  0  0  0  0  0  0  0  0  0  0
    3.7625   -6.9583    0.0000 C   0  0  0  0  0  0  0  0  0  0  0  0
    4.7542   -7.6750    0.0000 C   0  0  0  0  0  0  0  0  0  0  0  0
    4.8792   -6.4542    0.0000 C   0  0  0  0  0  0  0  0  0  0  0  0
    3.0917   -6.7458    0.0000 C   0  0  0  0  0  0  0  0  0  0  0  0
    3.0875   -6.0458    0.0000 C   0  0  0  0  0  0  0  0  0  0  0  0
    4.0542   -7.6042    0.0000 C   0  0  0  0  0  0  0  0  0  0  0  0
    2.4917   -7.1000    0.0000 N   0  0  0  0  0  0  0  0  0  0  0  0
    5.0375   -8.3167    0.0000 C   0  0  0  0  0  0  0  0  0  0  0  0
    3.7500   -5.8208    0.0000 C   0  0  0  0  0  0  0  0  0  0  0  0
   -0.5625   -6.0750    0.0000 C   0  0  0  0  0  0  0  0  0  0  0  0
    2.4792   -5.7042    0.0000 C   0  0  0  0  0  0  0  0  0  0  0  0
   -1.1750   -5.7208    0.0000 N   0  0  0  0  0  0  0  0  0  0  0  0
    5.7417   -8.3917    0.0000 C   0  0  0  0  0  0  0  0  0  0  0  0
    1.8792   -6.0583    0.0000 C   0  0  0  0  0  0  0  0  0  0  0  0
    1.8833   -6.7583    0.0000 C   0  0  0  0  0  0  0  0  0  0  0  0
    5.8708   -7.1708    0.0000 C   0  0  0  0  0  0  0  0  0  0  0  0
    6.1583   -7.8167    0.0000 O   0  0  0  0  0  0  0  0  0  0  0  0
   -3.0125   -4.6667    0.0000 N   0  0  0  0  0  0  0  0  0  0  0  0
    0.0500   -5.7208    0.0000 O   0  0  0  0  0  0  0  0  0  0  0  0
   -2.4042   -5.0208    0.0000 C   0  0  0  0  0  0  0  0  0  0  0  0
    5.2917   -5.8792    0.0000 O   0  0  0  0  0  0  0  0  0  0  0  0
    1.2708   -5.7125    0.0000 C   0  0  0  0  0  0  0  0  0  0  0  0
   -2.4000   -5.7292    0.0000 C   0  0  0  0  0  0  0  0  0  0  0  0
   -1.7917   -4.6625    0.0000 C   0  0  0  0  0  0  0  0  0  0  0  0
   -1.7875   -6.0792    0.0000 C   0  0  0  0  0  0  0  0  0  0  0  0
   -1.1750   -5.0167    0.0000 C   0  0  0  0  0  0  0  0  0  0  0  0
   -0.5625   -6.7833    0.0000 O   0  0  0  0  0  0  0  0  0  0  0  0
    0.6667   -6.0708    0.0000 C   0  0  0  0  0  0  0  0  0  0  0  0
    6.0333   -9.0375    0.0000 O   0  0  0  0  0  0  0  0  0  0  0  0
    1.2875   -7.1125    0.0000 C   0  0  0  0  0  0  0  0  0  0  0  0
    4.4000   -8.6125    0.0000 O   0  0  0  0  0  0  0  0  0  0  0  0
    0.6792   -6.7708    0.0000 C   0  0  0  0  0  0  0  0  0  0  0  0
    4.9708   -9.0250    0.0000 C   0  0  0  0  0  0  0  0  0  0  0  0
    2.4750   -4.9958    0.0000 C   0  0  0  0  0  0  0  0  0  0  0  0
   -3.6250   -5.0250    0.0000 C   0  0  0  0  0  0  0  0  0  0  0  0
   -3.0167   -3.9625    0.0000 C   0  0  0  0  0  0  0  0  0  0  0  0
    4.3292   -9.3208    0.0000 C   0  0  0  0  0  0  0  0  0  0  0  0
    3.0833   -4.6333    0.0000 C   0  0  0  0  0  0  0  0  0  0  0  0
   -3.6333   -3.6125    0.0000 C   0  0  0  0  0  0  0  0  0  0  0  0
   -4.2375   -4.6792    0.0000 C   0  0  0  0  0  0  0  0  0  0  0  0
   -4.2458   -3.9708    0.0000 C   0  0  0  0  0  0  0  0  0  0  0  0
  2  5  1  0
  3  1  1  0
  4  8  1  0
  5  1  1  0
  6  3  1  0
  7 11  1  0
  8  3  2  0
  9  6  2  0
 10  4  1  0
 11  1  1  0
 12 21  1  0
 13  7  2  0
 14 12  1  0
 15 10  1  0
 16 13  1  0
 17  9  1  0
 18  2  1  0
 19 18  1  0
 20 22  1  0
 21 30  1  0
 22 26  1  0
 23  5  2  0
 24 16  2  0
 25 27  1  0
 26 28  1  0
 27 14  1  0
 28 14  1  0
 29 12  2  0
 30 24  1  0
 31 15  2  0
 32 17  2  0
 33 10  1  0
 34 32  1  0
 10 35  1  0
 36 13  1  0
 37 20  1  0
 38 20  1  0
 39 35  1  0
 40 36  1  0
 41 38  1  0
 42 37  1  0
 43 41  1  0
  7  6  1  0
  4  2  2  0
 16 17  1  0
 15 19  1  0
 34 30  2  0
 22 25  1  0
 43 42  1  0
M  END
>  <Classification>  (32) 
0

>  <pchembl>  (32) 
4.68

>  <InChI_steorem>  (32) 
InChI=1S/C33H38N4O6/c1-3-22-23-16-21(43-32(40)36-14-10-20(11-15-36)35-12-6-5-7-13-35)8-9-27(23)34-29-24(22)18-37-28(29)17-26-25(30(37)38)19-42-31(39)33(26,41)4-2/h8-9,16-17,20,41H,3-7,10-15,18-19H2,1-2H3

>  <source>  (32) 
ChEMBL25

>  <source_id>  (32) 
25

>  <optional_reference>  (32) 
10.1021/jm301302s

>  <optional_origin>  (32) 
None

>  <target>  (32) 
OCT1

$$$$

     RDKit          2D

 15 15  0  0  0  0  0  0  0  0999 V2000
   10.4466    0.3563    0.0000 C   0  0  0  0  0  0  0  0  0  0  0  0
    9.7332    0.7786    0.0000 N   0  0  0  0  0  0  0  0  0  0  0  0
    9.7332   -0.8909    0.0000 N   0  0  0  0  0  0  0  0  0  0  0  0
   11.1551    0.7640    0.0000 C   0  0  0  0  0  0  0  0  0  0  0  0
   10.4466   -0.4687    0.0000 C   0  0  0  0  0  0  0  0  0  0  0  0
   11.8734    0.3563    0.0000 N   0  0  0  0  0  0  0  0  0  0  0  0
    9.0149    0.3563    0.0000 C   0  0  0  0  0  0  0  0  0  0  0  0
    9.0149   -0.4687    0.0000 C   0  0  0  0  0  0  0  0  0  0  0  0
   12.5820    0.7640    0.0000 C   0  0  0  0  0  0  0  0  0  0  0  0
   12.5820    1.5939    0.0000 N   0  0  0  0  0  0  0  0  0  0  0  0
   11.1551    1.5939    0.0000 O   0  0  0  0  0  0  0  0  0  0  0  0
   11.1551   -0.8812    0.0000 N   0  0  0  0  0  0  0  0  0  0  0  0
    8.2918   -0.8667    0.0000 N   0  0  0  0  0  0  0  0  0  0  0  0
   13.2954    0.3563    0.0000 N   0  0  0  0  0  0  0  0  0  0  0  0
    8.2918    0.7543    0.0000 Cl  0  0  0  0  0  0  0  0  0  0  0  0
  2  1  2  0
  3  5  2  0
  4  1  1  0
  5  1  1  0
  6  4  1  0
  7  2  1  0
  8  3  1  0
  9  6  1  0
 10  9  2  0
 11  4  2  0
 12  5  1  0
 13  8  1  0
 14  9  1  0
 15  7  1  0
  7  8  2  0
M  END
>  <Classification>  (33) 
0

>  <pchembl>  (33) 
4.24

>  <InChI_steorem>  (33) 
InChI=1S/C6H8ClN7O/c7-2-4(9)13-3(8)1(12-2)5(15)14-6(10)11/h(H4,8,9,13)(H4,10,11,14,15)

>  <source>  (33) 
ChEMBL25

>  <source_id>  (33) 
25

>  <optional_reference>  (33) 
10.1021/jm8003152

>  <optional_origin>  (33) 
None

>  <target>  (33) 
OCT1

$$$$

     RDKit          2D

 21 23  0  0  0  0  0  0  0  0999 V2000
    5.6542   -5.9250    0.0000 N   0  0  0  0  0  0  0  0  0  0  0  0
    6.3000   -5.6167    0.0000 C   0  0  0  0  0  0  0  0  0  0  0  0
    5.0167   -5.6042    0.0000 C   0  0  0  0  0  0  0  0  0  0  0  0
    6.4667   -4.9292    0.0000 C   0  0  0  0  0  0  0  0  0  0  0  0
    4.8750   -4.9042    0.0000 C   0  0  0  0  0  0  0  0  0  0  0  0
    6.0417   -4.3792    0.0000 C   0  0  0  0  0  0  0  0  0  0  0  0
    5.3292   -4.3625    0.0000 C   0  0  0  0  0  0  0  0  0  0  0  0
    5.6500   -6.6167    0.0000 C   0  0  0  0  0  0  0  0  0  0  0  0
    5.0250   -6.9667    0.0000 C   0  0  0  0  0  0  0  0  0  0  0  0
    4.3875   -8.0250    0.0000 N   0  0  0  0  0  0  0  0  0  0  0  0
    4.5042   -6.0750    0.0000 C   0  0  0  0  0  0  0  0  0  0  0  0
    6.8167   -6.1125    0.0000 C   0  0  0  0  0  0  0  0  0  0  0  0
    5.0042   -7.6792    0.0000 C   0  0  0  0  0  0  0  0  0  0  0  0
    4.2000   -4.6917    0.0000 C   0  0  0  0  0  0  0  0  0  0  0  0
    7.1542   -4.7292    0.0000 C   0  0  0  0  0  0  0  0  0  0  0  0
    4.3792   -8.7375    0.0000 C   0  0  0  0  0  0  0  0  0  0  0  0
    3.7792   -7.6625    0.0000 C   0  0  0  0  0  0  0  0  0  0  0  0
    3.8250   -5.8542    0.0000 C   0  0  0  0  0  0  0  0  0  0  0  0
    7.4917   -5.9167    0.0000 C   0  0  0  0  0  0  0  0  0  0  0  0
    7.6667   -5.2292    0.0000 C   0  0  0  0  0  0  0  0  0  0  0  0
    3.6750   -5.1542    0.0000 C   0  0  0  0  0  0  0  0  0  0  0  0
  2  1  1  0
  3  1  1  0
  4  2  2  0
  5  3  2  0
  6  4  1  0
  7  5  1  0
  8  1  1  0
  9  8  1  0
 10 13  1  0
 11  3  1  0
 12  2  1  0
 13  9  1  0
 14  5  1  0
 15  4  1  0
 16 10  1  0
 17 10  1  0
 18 11  2  0
 19 12  2  0
 20 19  1  0
 21 18  1  0
  7  6  1  0
 21 14  2  0
 20 15  2  0
M  END
>  <Classification>  (34) 
0

>  <pchembl>  (34) 
4.77

>  <InChI_steorem>  (34) 
InChI=1S/C19H24N2/c1-20(2)14-7-15-21-18-10-5-3-8-16(18)12-13-17-9-4-6-11-19(17)21/h3-6,8-11H,7,12-15H2,1-2H3

>  <source>  (34) 
ChEMBL25

>  <source_id>  (34) 
25

>  <optional_reference>  (34) 
10.1021/jm8003152

>  <optional_origin>  (34) 
None

>  <target>  (34) 
OCT1

$$$$

     RDKit          2D

 22 24  0  0  0  0  0  0  0  0999 V2000
    4.1042   -3.9542    0.0000 N   0  0  0  0  0  0  0  0  0  0  0  0
    3.4625   -3.6417    0.0000 C   0  0  0  0  0  0  0  0  0  0  0  0
    4.7417   -3.6542    0.0000 C   0  0  0  0  0  0  0  0  0  0  0  0
    2.9292   -4.1250    0.0000 C   0  0  0  0  0  0  0  0  0  0  0  0
    3.3125   -2.9500    0.0000 C   0  0  0  0  0  0  0  0  0  0  0  0
    4.9167   -2.9625    0.0000 C   0  0  0  0  0  0  0  0  0  0  0  0
    3.7500   -2.3917    0.0000 C   0  0  0  0  0  0  0  0  0  0  0  0
    4.4625   -2.3917    0.0000 C   0  0  0  0  0  0  0  0  0  0  0  0
    4.0917   -4.6542    0.0000 C   0  0  0  0  0  0  0  0  0  0  0  0
    2.6292   -2.7292    0.0000 C   0  0  0  0  0  0  0  0  0  0  0  0
    2.2542   -3.9125    0.0000 C   0  0  0  0  0  0  0  0  0  0  0  0
    3.4792   -5.0042    0.0000 C   0  0  0  0  0  0  0  0  0  0  0  0
    4.0917   -6.0542    0.0000 N   0  0  0  0  0  0  0  0  0  0  0  0
    2.1000   -3.2167    0.0000 C   0  0  0  0  0  0  0  0  0  0  0  0
    1.7417   -4.3792    0.0000 Cl  0  0  0  0  0  0  0  0  0  0  0  0
    5.2542   -4.1417    0.0000 C   0  0  0  0  0  0  0  0  0  0  0  0
    3.4792   -5.7042    0.0000 C   0  0  0  0  0  0  0  0  0  0  0  0
    5.6042   -2.7542    0.0000 C   0  0  0  0  0  0  0  0  0  0  0  0
    4.0917   -6.7542    0.0000 C   0  0  0  0  0  0  0  0  0  0  0  0
    4.7000   -5.7042    0.0000 C   0  0  0  0  0  0  0  0  0  0  0  0
    5.9375   -3.9542    0.0000 C   0  0  0  0  0  0  0  0  0  0  0  0
    6.1125   -3.2667    0.0000 C   0  0  0  0  0  0  0  0  0  0  0  0
  2  1  1  0
  3  1  1  0
  4  2  2  0
  5  2  1  0
  6  3  2  0
  7  5  1  0
  8  6  1  0
  9  1  1  0
 10  5  2  0
 11  4  1  0
 12  9  1  0
 13 17  1  0
 14 10  1  0
 15 11  1  0
 16  3  1  0
 17 12  1  0
 18  6  1  0
 19 13  1  0
 20 13  1  0
 21 16  2  0
 22 21  1  0
  8  7  1  0
 22 18  2  0
 14 11  2  0
M  END
>  <Classification>  (35) 
0

>  <pchembl>  (35) 
4.71

>  <InChI_steorem>  (35) 
InChI=1S/C19H23ClN2/c1-21(2)12-5-13-22-18-7-4-3-6-15(18)8-9-16-10-11-17(20)14-19(16)22/h3-4,6-7,10-11,14H,5,8-9,12-13H2,1-2H3

>  <source>  (35) 
ChEMBL25

>  <source_id>  (35) 
25

>  <optional_reference>  (35) 
10.1021/jm8003152

>  <optional_origin>  (35) 
None

>  <target>  (35) 
OCT1

$$$$

     RDKit          2D

 24 25  0  0  0  0  0  0  0  0999 V2000
   -0.7333   -0.7542    0.0000 C   0  0  0  0  0  0  0  0  0  0  0  0
   -1.1000   -1.1625    0.0000 C   0  0  0  0  0  0  0  0  0  0  0  0
   -0.4458   -1.2292    0.0000 C   0  0  0  0  0  0  0  0  0  0  0  0
   -0.9333   -1.6792    0.0000 O   0  0  0  0  0  0  0  0  0  0  0  0
   -1.6208   -1.0375    0.0000 O   0  0  0  0  0  0  0  0  0  0  0  0
   -3.6625    0.8458    0.0000 N   0  0  0  0  0  0  0  0  0  0  0  0
   -1.1250   -0.4000    0.0000 C   0  0  0  0  0  0  0  0  0  0  0  0
   -0.2625   -0.4792    0.0000 C   0  0  0  0  0  0  0  0  0  0  0  0
   -2.4500    0.0875    0.0000 O   0  0  0  0  0  0  0  0  0  0  0  0
    0.0917   -1.2292    0.0000 C   0  0  0  0  0  0  0  0  0  0  0  0
   -0.7208   -1.7042    0.0000 C   0  0  0  0  0  0  0  0  0  0  0  0
   -3.1333    0.7208    0.0000 C   0  0  0  0  0  0  0  0  0  0  0  0
   -4.0208    0.4458    0.0000 C   0  0  0  0  0  0  0  0  0  0  0  0
   -3.8333    1.3583    0.0000 C   0  0  0  0  0  0  0  0  0  0  0  0
   -1.7833   -0.5375    0.0000 C   0  0  0  0  0  0  0  0  0  0  0  0
   -2.9833    0.2125    0.0000 C   0  0  0  0  0  0  0  0  0  0  0  0
   -2.3000   -0.4042    0.0000 C   0  0  0  0  0  0  0  0  0  0  0  0
   -0.3833    0.0333    0.0000 C   0  0  0  0  0  0  0  0  0  0  0  0
   -0.9000    0.0875    0.0000 C   0  0  0  0  0  0  0  0  0  0  0  0
   -3.8583   -0.0667    0.0000 C   0  0  0  0  0  0  0  0  0  0  0  0
   -4.3458    1.4708    0.0000 C   0  0  0  0  0  0  0  0  0  0  0  0
    0.3667   -1.7042    0.0000 C   0  0  0  0  0  0  0  0  0  0  0  0
   -0.4458   -2.1667    0.0000 C   0  0  0  0  0  0  0  0  0  0  0  0
    0.0917   -2.1667    0.0000 C   0  0  0  0  0  0  0  0  0  0  0  0
  2  1  1  0
  3  1  1  0
  4  2  2  0
  5  2  1  0
  6 12  1  0
  7  1  1  0
  8  1  1  0
  9 17  1  0
 10  3  2  0
 11  3  1  0
 12 16  1  0
 13  6  1  0
 14  6  1  0
 15  5  1  0
 16  9  1  0
 17 15  1  0
 18  8  1  0
 19  7  1  0
 20 13  1  0
 21 14  1  0
 22 10  1  0
 23 11  2  0
 24 23  1  0
 19 18  1  0
 22 24  2  0
M  END
>  <Classification>  (36) 
1

>  <pchembl>  (36) 
5.81

>  <InChI_steorem>  (36) 
InChI=1S/C20H31NO3/c1-3-21(4-2)14-15-23-16-17-24-19(22)20(12-8-9-13-20)18-10-6-5-7-11-18/h5-7,10-11H,3-4,8-9,12-17H2,1-2H3

>  <source>  (36) 
ChEMBL25

>  <source_id>  (36) 
25

>  <optional_reference>  (36) 
10.1021/acs.jmedchem.6b01317

>  <optional_origin>  (36) 
None

>  <target>  (36) 
OCT1

$$$$

     RDKit          2D

 29 31  0  0  0  0  0  0  0  0999 V2000
    6.9417   -2.3667    0.0000 C   0  0  0  0  0  0  0  0  0  0  0  0
    6.6792   -2.9542    0.0000 C   0  0  0  0  0  0  0  0  0  0  0  0
    5.9667   -3.1417    0.0000 N   0  0  0  0  0  0  0  0  0  0  0  0
    5.9292   -1.6042    0.0000 S   0  0  0  0  0  0  0  0  0  0  0  0
    6.6042   -1.7042    0.0000 C   0  0  0  0  0  0  0  0  0  0  0  0
    5.4042   -2.6667    0.0000 C   0  0  0  0  0  0  0  0  0  0  0  0
    5.4042   -2.0292    0.0000 C   0  0  0  0  0  0  0  0  0  0  0  0
    7.7167   -2.3667    0.0000 O   0  0  0  0  0  0  0  0  0  0  0  0
    5.9667   -3.9917    0.0000 C   0  0  0  0  0  0  0  0  0  0  0  0
    7.2292   -1.3042    0.0000 C   0  0  0  0  0  0  0  0  0  0  0  0
    8.2917   -2.7167    0.0000 C   0  0  0  0  0  0  0  0  0  0  0  0
    7.1667   -3.4792    0.0000 O   0  0  0  0  0  0  0  0  0  0  0  0
    8.2917   -3.4167    0.0000 O   0  0  0  0  0  0  0  0  0  0  0  0
    7.8292   -1.6167    0.0000 C   0  0  0  0  0  0  0  0  0  0  0  0
    7.2292   -0.5917    0.0000 C   0  0  0  0  0  0  0  0  0  0  0  0
    6.6167   -4.3792    0.0000 C   0  0  0  0  0  0  0  0  0  0  0  0
    6.6167   -5.1292    0.0000 N   0  0  0  0  0  0  0  0  0  0  0  0
    8.4042   -0.5917    0.0000 C   0  0  0  0  0  0  0  0  0  0  0  0
    7.8292   -0.2292    0.0000 C   0  0  0  0  0  0  0  0  0  0  0  0
    8.4042   -1.2792    0.0000 C   0  0  0  0  0  0  0  0  0  0  0  0
    4.7667   -3.0417    0.0000 C   0  0  0  0  0  0  0  0  0  0  0  0
    8.9792   -0.2542    0.0000 O   0  0  0  0  0  0  0  0  0  0  0  0
    4.7667   -1.6417    0.0000 C   0  0  0  0  0  0  0  0  0  0  0  0
    8.9167   -2.3667    0.0000 C   0  0  0  0  0  0  0  0  0  0  0  0
    7.2417   -5.4667    0.0000 C   0  0  0  0  0  0  0  0  0  0  0  0
    6.0417   -5.4292    0.0000 C   0  0  0  0  0  0  0  0  0  0  0  0
    9.6292   -0.5917    0.0000 C   0  0  0  0  0  0  0  0  0  0  0  0
    4.1417   -2.7167    0.0000 C   0  0  0  0  0  0  0  0  0  0  0  0
    4.1417   -1.9792    0.0000 C   0  0  0  0  0  0  0  0  0  0  0  0
  2  1  1  0
  3  2  1  0
  4  5  1  0
  5  1  1  0
  6  3  1  0
  7  4  1  0
  1  8  1  0
  9  3  1  0
  5 10  1  0
 11  8  1  0
 12  2  2  0
 13 11  2  0
 14 10  2  0
 15 10  1  0
 16  9  1  0
 17 16  1  0
 18 19  1  0
 19 15  2  0
 20 14  1  0
 21  6  2  0
 22 18  1  0
 23  7  2  0
 24 11  1  0
 25 17  1  0
 26 17  1  0
 27 22  1  0
 28 21  1  0
 29 23  1  0
  6  7  1  0
 18 20  2  0
 28 29  2  0
M  END
>  <Classification>  (37) 
0

>  <pchembl>  (37) 
4.91

>  <InChI_steorem>  (37) 
InChI=1S/C22H26N2O4S/c1-15(25)28-20-21(16-9-11-17(27-4)12-10-16)29-19-8-6-5-7-18(19)24(22(20)26)14-13-23(2)3/h5-12,20-21H,13-14H2,1-4H3

>  <source>  (37) 
ChEMBL25

>  <source_id>  (37) 
25

>  <optional_reference>  (37) 
10.1021/jm8003152

>  <optional_origin>  (37) 
None

>  <target>  (37) 
OCT1

$$$$

     RDKit          2D

 17 17  0  0  0  0  0  0  0  0999 V2000
    4.6042   -7.0542    0.0000 C   0  0  0  0  0  0  0  0  0  0  0  0
    3.9792   -7.4042    0.0000 C   0  0  0  0  0  0  0  0  0  0  0  0
    4.6167   -6.3542    0.0000 O   0  0  0  0  0  0  0  0  0  0  0  0
    5.2042   -7.4292    0.0000 N   0  0  0  0  0  0  0  0  0  0  0  0
    3.3750   -7.0417    0.0000 C   0  0  0  0  0  0  0  0  0  0  0  0
    3.9667   -8.1167    0.0000 C   0  0  0  0  0  0  0  0  0  0  0  0
    2.7292   -8.0917    0.0000 C   0  0  0  0  0  0  0  0  0  0  0  0
    7.0667   -7.1042    0.0000 N   0  0  0  0  0  0  0  0  0  0  0  0
    2.1125   -8.4375    0.0000 N   0  0  0  0  0  0  0  0  0  0  0  0
    3.3417   -8.4625    0.0000 C   0  0  0  0  0  0  0  0  0  0  0  0
    2.7417   -7.3792    0.0000 C   0  0  0  0  0  0  0  0  0  0  0  0
    5.8292   -7.0875    0.0000 C   0  0  0  0  0  0  0  0  0  0  0  0
    6.4417   -7.4500    0.0000 C   0  0  0  0  0  0  0  0  0  0  0  0
    7.6792   -7.4792    0.0000 C   0  0  0  0  0  0  0  0  0  0  0  0
    7.0792   -6.3917    0.0000 C   0  0  0  0  0  0  0  0  0  0  0  0
    8.3042   -7.1292    0.0000 C   0  0  0  0  0  0  0  0  0  0  0  0
    7.7042   -6.0542    0.0000 C   0  0  0  0  0  0  0  0  0  0  0  0
  2  1  1  0
  3  1  2  0
  4  1  1  0
  5  2  2  0
  6  2  1  0
  7 10  1  0
  8 13  1  0
  9  7  1  0
 10  6  2  0
 11  5  1  0
 12  4  1  0
 13 12  1  0
 14  8  1  0
 15  8  1  0
 16 14  1  0
 17 15  1  0
  7 11  2  0
M  END
>  <Classification>  (38) 
0

>  <pchembl>  (38) 
4.13

>  <InChI_steorem>  (38) 
InChI=1S/C13H21N3O/c1-3-16(4-2)10-9-15-13(17)11-5-7-12(14)8-6-11/h5-8H,3-4,9-10,14H2,1-2H3,(H,15,17)

>  <source>  (38) 
ChEMBL25

>  <source_id>  (38) 
25

>  <optional_reference>  (38) 
None

>  <optional_origin>  (38) 
None

>  <target>  (38) 
OCT1

$$$$

     RDKit          2D

 19 19  0  0  0  0  0  0  0  0999 V2000
    5.4625   -5.7292    0.0000 O   0  0  0  0  0  0  0  0  0  0  0  0
    6.0792   -6.0792    0.0000 C   0  0  0  0  0  0  0  0  0  0  0  0
    3.0042   -5.7667    0.0000 N   0  0  0  0  0  0  0  0  0  0  0  0
    6.7042   -5.7292    0.0000 C   0  0  0  0  0  0  0  0  0  0  0  0
    5.4792   -5.0000    0.0000 C   0  0  0  0  0  0  0  0  0  0  0  0
    4.8667   -4.6292    0.0000 C   0  0  0  0  0  0  0  0  0  0  0  0
    4.2375   -5.7417    0.0000 C   0  0  0  0  0  0  0  0  0  0  0  0
    4.8542   -6.0917    0.0000 C   0  0  0  0  0  0  0  0  0  0  0  0
    3.6250   -6.1042    0.0000 C   0  0  0  0  0  0  0  0  0  0  0  0
    6.7167   -5.0250    0.0000 O   0  0  0  0  0  0  0  0  0  0  0  0
    4.2292   -5.0417    0.0000 O   0  0  0  0  0  0  0  0  0  0  0  0
    2.3917   -6.1250    0.0000 C   0  0  0  0  0  0  0  0  0  0  0  0
    6.1042   -4.6500    0.0000 C   0  0  0  0  0  0  0  0  0  0  0  0
    6.0667   -6.7917    0.0000 C   0  0  0  0  0  0  0  0  0  0  0  0
    7.3125   -6.1042    0.0000 C   0  0  0  0  0  0  0  0  0  0  0  0
    1.7667   -5.7875    0.0000 C   0  0  0  0  0  0  0  0  0  0  0  0
    2.3917   -6.8292    0.0000 C   0  0  0  0  0  0  0  0  0  0  0  0
    7.3000   -6.8125    0.0000 C   0  0  0  0  0  0  0  0  0  0  0  0
    6.6792   -7.1542    0.0000 C   0  0  0  0  0  0  0  0  0  0  0  0
  2  1  1  0
  3  9  1  0
  4  2  2  0
  5 13  1  0
  6  5  2  0
  7  8  1  0
  8  1  1  0
  9  7  1  0
 10  4  1  0
 11  7  1  0
 12  3  1  0
 13 10  1  0
 14  2  1  0
 15  4  1  0
 16 12  1  0
 17 12  1  0
 18 19  1  0
 19 14  2  0
 18 15  2  0
M  END
>  <Classification>  (39) 
0

>  <pchembl>  (39) 
4.54

>  <InChI_steorem>  (39) 
InChI=1S/C15H23NO3/c1-4-9-18-14-7-5-6-8-15(14)19-11-13(17)10-16-12(2)3/h4-8,12-13,16-17H,1,9-11H2,2-3H3

>  <source>  (39) 
ChEMBL25

>  <source_id>  (39) 
25

>  <optional_reference>  (39) 
10.1021/jm8003152

>  <optional_origin>  (39) 
None

>  <target>  (39) 
OCT1

$$$$

     RDKit          2D

 20 22  0  0  0  0  0  0  0  0999 V2000
    6.7375   -5.7542    0.0000 N   0  0  0  0  0  0  0  0  0  0  0  0
    6.7542   -4.3292    0.0000 S   0  0  0  0  0  0  0  0  0  0  0  0
    7.3542   -5.4042    0.0000 C   0  0  0  0  0  0  0  0  0  0  0  0
    6.1292   -5.3917    0.0000 C   0  0  0  0  0  0  0  0  0  0  0  0
    6.7250   -6.4667    0.0000 C   0  0  0  0  0  0  0  0  0  0  0  0
    7.3667   -4.6917    0.0000 C   0  0  0  0  0  0  0  0  0  0  0  0
    6.1417   -4.6875    0.0000 C   0  0  0  0  0  0  0  0  0  0  0  0
    6.1125   -6.8042    0.0000 C   0  0  0  0  0  0  0  0  0  0  0  0
    6.1042   -7.5167    0.0000 N   0  0  0  0  0  0  0  0  0  0  0  0
    5.5167   -5.7375    0.0000 C   0  0  0  0  0  0  0  0  0  0  0  0
    7.9667   -5.7667    0.0000 C   0  0  0  0  0  0  0  0  0  0  0  0
    5.5250   -4.3208    0.0000 C   0  0  0  0  0  0  0  0  0  0  0  0
    7.9750   -4.3417    0.0000 C   0  0  0  0  0  0  0  0  0  0  0  0
    5.4917   -7.8625    0.0000 C   0  0  0  0  0  0  0  0  0  0  0  0
    6.7167   -7.8792    0.0000 C   0  0  0  0  0  0  0  0  0  0  0  0
    5.5125   -6.4500    0.0000 C   0  0  0  0  0  0  0  0  0  0  0  0
    8.5875   -5.4167    0.0000 C   0  0  0  0  0  0  0  0  0  0  0  0
    4.9042   -5.3750    0.0000 C   0  0  0  0  0  0  0  0  0  0  0  0
    8.5917   -4.7000    0.0000 C   0  0  0  0  0  0  0  0  0  0  0  0
    4.9042   -4.6750    0.0000 C   0  0  0  0  0  0  0  0  0  0  0  0
  2  7  1  0
  3  1  1  0
  4  1  1  0
  5  1  1  0
  6  3  2  0
  7  4  2  0
  8  5  1  0
  9  8  1  0
 10  4  1  0
 11  3  1  0
 12  7  1  0
 13  6  1  0
 14  9  1  0
 15  9  1  0
 16  8  1  0
 17 11  2  0
 18 10  2  0
 19 17  1  0
 20 18  1  0
  2  6  1  0
 20 12  2  0
 19 13  2  0
M  END
>  <Classification>  (40) 
0

>  <pchembl>  (40) 
4.46

>  <InChI_steorem>  (40) 
InChI=1S/C17H20N2S/c1-13(18(2)3)12-19-14-8-4-6-10-16(14)20-17-11-7-5-9-15(17)19/h4-11,13H,12H2,1-3H3

>  <source>  (40) 
ChEMBL25

>  <source_id>  (40) 
25

>  <optional_reference>  (40) 
10.1021/jm8003152

>  <optional_origin>  (40) 
None

>  <target>  (40) 
OCT1

$$$$

     RDKit          2D

 28 31  0  0  0  0  0  0  0  0999 V2000
    0.9375   -1.9792    0.0000 C   0  0  0  0  0  0  0  0  0  0  0  0
    0.9292   -2.6917    0.0000 N   0  0  0  0  0  0  0  0  0  0  0  0
   -0.3208   -2.6750    0.0000 C   0  0  0  0  0  0  0  0  0  0  0  0
    0.2875   -3.0417    0.0000 C   0  0  0  0  0  0  0  0  0  0  0  0
    0.3042   -1.6167    0.0000 N   0  0  0  0  0  0  0  0  0  0  0  0
   -0.3208   -1.9625    0.0000 C   0  0  0  0  0  0  0  0  0  0  0  0
    3.3917   -0.5917    0.0000 C   0  0  0  0  0  0  0  0  0  0  0  0
    1.5542   -1.6417    0.0000 N   0  0  0  0  0  0  0  0  0  0  0  0
    2.7792   -0.9542    0.0000 N   0  0  0  0  0  0  0  0  0  0  0  0
   -0.9500   -3.0167    0.0000 C   0  0  0  0  0  0  0  0  0  0  0  0
    4.0125   -0.9292    0.0000 C   0  0  0  0  0  0  0  0  0  0  0  0
   -0.9250   -1.5917    0.0000 C   0  0  0  0  0  0  0  0  0  0  0  0
   -1.5833   -2.6542    0.0000 C   0  0  0  0  0  0  0  0  0  0  0  0
   -1.5708   -1.9417    0.0000 C   0  0  0  0  0  0  0  0  0  0  0  0
    4.2417   -1.5917    0.0000 O   0  0  0  0  0  0  0  0  0  0  0  0
    1.5417   -0.9500    0.0000 C   0  0  0  0  0  0  0  0  0  0  0  0
    2.1667   -2.0000    0.0000 C   0  0  0  0  0  0  0  0  0  0  0  0
    2.1667   -0.5792    0.0000 C   0  0  0  0  0  0  0  0  0  0  0  0
    2.7792   -1.6375    0.0000 C   0  0  0  0  0  0  0  0  0  0  0  0
    3.4042    0.0875    0.0000 O   0  0  0  0  0  0  0  0  0  0  0  0
    4.5792   -0.5125    0.0000 C   0  0  0  0  0  0  0  0  0  0  0  0
    4.9417   -1.5917    0.0000 C   0  0  0  0  0  0  0  0  0  0  0  0
    5.1542   -0.9292    0.0000 C   0  0  0  0  0  0  0  0  0  0  0  0
    0.2667   -3.7542    0.0000 N   0  0  0  0  0  0  0  0  0  0  0  0
   -2.2000   -2.9917    0.0000 O   0  0  0  0  0  0  0  0  0  0  0  0
   -2.1833   -1.5792    0.0000 O   0  0  0  0  0  0  0  0  0  0  0  0
   -2.7958   -1.9125    0.0000 C   0  0  0  0  0  0  0  0  0  0  0  0
   -2.7958   -2.6542    0.0000 C   0  0  0  0  0  0  0  0  0  0  0  0
  2  1  2  0
  3  6  1  0
  4  2  1  0
  5  1  1  0
  6  5  2  0
  7  9  1  0
  8  1  1  0
  9 19  1  0
 10  3  1  0
 11  7  1  0
 12  6  1  0
 13 14  1  0
 14 12  2  0
 15 11  1  0
 16  8  1  0
 17  8  1  0
 18 16  1  0
 19 17  1  0
 20  7  2  0
 21 11  2  0
 22 15  1  0
 23 21  1  0
 24  4  1  0
 25 13  1  0
 26 14  1  0
 27 26  1  0
 28 25  1  0
  3  4  2  0
  9 18  1  0
 10 13  2  0
 22 23  2  0
M  END
>  <Classification>  (41) 
1

>  <pchembl>  (41) 
5.0

>  <InChI_steorem>  (41) 
InChI=1S/C19H21N5O4/c1-26-15-10-12-13(11-16(15)27-2)21-19(22-17(12)20)24-7-5-23(6-8-24)18(25)14-4-3-9-28-14/h3-4,9-11H,5-8H2,1-2H3,(H2,20,21,22)

>  <source>  (41) 
ChEMBL25

>  <source_id>  (41) 
25

>  <optional_reference>  (41) 
10.1021/jm8003152

>  <optional_origin>  (41) 
None

>  <target>  (41) 
OCT1

$$$$

     RDKit          2D

 32 34  0  0  0  0  0  0  0  0999 V2000
    3.7667   -0.4542    0.0000 C   0  0  0  0  0  0  0  0  0  0  0  0
    3.7667   -1.1667    0.0000 C   0  0  0  0  0  0  0  0  0  0  0  0
    2.5292   -0.4542    0.0000 C   0  0  0  0  0  0  0  0  0  0  0  0
    2.5292   -1.1667    0.0000 C   0  0  0  0  0  0  0  0  0  0  0  0
    3.1500   -0.0958    0.0000 C   0  0  0  0  0  0  0  0  0  0  0  0
    3.1500   -1.5292    0.0000 C   0  0  0  0  0  0  0  0  0  0  0  0
    4.3792   -1.5292    0.0000 C   0  0  0  0  0  0  0  0  0  0  0  0
    4.3792   -0.0958    0.0000 C   0  0  0  0  0  0  0  0  0  0  0  0
    1.9167   -0.0958    0.0000 C   0  0  0  0  0  0  0  0  0  0  0  0
    1.9167   -1.5292    0.0000 C   0  0  0  0  0  0  0  0  0  0  0  0
    3.1500    0.6083    0.0000 O   0  0  0  0  0  0  0  0  0  0  0  0
    3.1500   -2.2375    0.0000 O   0  0  0  0  0  0  0  0  0  0  0  0
    4.9917   -0.4542    0.0000 C   0  0  0  0  0  0  0  0  0  0  0  0
    4.9917   -1.1667    0.0000 C   0  0  0  0  0  0  0  0  0  0  0  0
    1.3042   -0.4542    0.0000 C   0  0  0  0  0  0  0  0  0  0  0  0
    1.3042   -1.1667    0.0000 C   0  0  0  0  0  0  0  0  0  0  0  0
    4.3792    0.6083    0.0000 N   0  0  0  0  0  0  0  0  0  0  0  0
    4.3792   -2.2375    0.0000 N   0  0  0  0  0  0  0  0  0  0  0  0
    1.9167    0.6083    0.0000 O   0  0  0  0  0  0  0  0  0  0  0  0
    1.9167   -2.2375    0.0000 O   0  0  0  0  0  0  0  0  0  0  0  0
    6.2292    0.9625    0.0000 N   0  0  0  0  0  0  0  0  0  0  0  0
    6.2292   -2.5917    0.0000 N   0  0  0  0  0  0  0  0  0  0  0  0
    8.0750   -2.2375    0.0000 O   0  0  0  0  0  0  0  0  0  0  0  0
    8.0750    0.6083    0.0000 O   0  0  0  0  0  0  0  0  0  0  0  0
    4.9917    0.9625    0.0000 C   0  0  0  0  0  0  0  0  0  0  0  0
    4.9917   -2.5917    0.0000 C   0  0  0  0  0  0  0  0  0  0  0  0
    5.6125   -2.2375    0.0000 C   0  0  0  0  0  0  0  0  0  0  0  0
    5.6125    0.6083    0.0000 C   0  0  0  0  0  0  0  0  0  0  0  0
    6.8417   -2.2375    0.0000 C   0  0  0  0  0  0  0  0  0  0  0  0
    6.8417    0.6083    0.0000 C   0  0  0  0  0  0  0  0  0  0  0  0
    7.4625   -2.5917    0.0000 C   0  0  0  0  0  0  0  0  0  0  0  0
    7.4625    0.9625    0.0000 C   0  0  0  0  0  0  0  0  0  0  0  0
  2  1  2  0
  3  5  1  0
  4  3  2  0
  5  1  1  0
  6  2  1  0
  7  2  1  0
  8  1  1  0
  9  3  1  0
 10  4  1  0
 11  5  2  0
 12  6  2  0
 13  8  2  0
 14 13  1  0
 15  9  2  0
 16 15  1  0
 17  8  1  0
 18  7  1  0
 19  9  1  0
 20 10  1  0
 21 28  1  0
 22 27  1  0
 23 31  1  0
 24 32  1  0
 25 17  1  0
 26 18  1  0
 27 26  1  0
 28 25  1  0
 29 22  1  0
 30 21  1  0
 31 29  1  0
 32 30  1  0
  4  6  1  0
 14  7  2  0
 16 10  2  0
M  END
>  <Classification>  (42) 
0

>  <pchembl>  (42) 
4.36

>  <InChI_steorem>  (42) 
InChI=1S/C22H28N4O6/c27-11-9-23-5-7-25-13-1-2-14(26-8-6-24-10-12-28)18-17(13)21(31)19-15(29)3-4-16(30)20(19)22(18)32/h1-4,23-30H,5-12H2

>  <source>  (42) 
ChEMBL25

>  <source_id>  (42) 
25

>  <optional_reference>  (42) 
10.1021/jm301302s

>  <optional_origin>  (42) 
None

>  <target>  (42) 
OCT1

$$$$

     RDKit          2D

 19 20  0  0  0  0  0  0  0  0999 V2000
    0.9000   -3.2917    0.0000 C   0  0  0  0  0  0  0  0  0  0  0  0
    1.5167   -2.9375    0.0000 C   0  0  0  0  0  0  0  0  0  0  0  0
    1.5167   -2.2292    0.0000 O   0  0  0  0  0  0  0  0  0  0  0  0
    3.9708   -2.2292    0.0000 N   0  0  0  0  0  0  0  0  0  0  0  0
    0.9000   -4.0000    0.0000 C   0  0  0  0  0  0  0  0  0  0  0  0
    2.7458   -2.2292    0.0000 C   0  0  0  0  0  0  0  0  0  0  0  0
    2.1292   -1.8750    0.0000 C   0  0  0  0  0  0  0  0  0  0  0  0
    3.3583   -1.8750    0.0000 C   0  0  0  0  0  0  0  0  0  0  0  0
    2.7417   -2.9375    0.0000 O   0  0  0  0  0  0  0  0  0  0  0  0
    4.5833   -1.8750    0.0000 C   0  0  0  0  0  0  0  0  0  0  0  0
    2.1292   -4.0000    0.0000 C   0  0  0  0  0  0  0  0  0  0  0  0
    2.1292   -3.2917    0.0000 C   0  0  0  0  0  0  0  0  0  0  0  0
    0.2792   -2.9375    0.0000 C   0  0  0  0  0  0  0  0  0  0  0  0
    1.5167   -4.3542    0.0000 C   0  0  0  0  0  0  0  0  0  0  0  0
    0.2792   -4.3542    0.0000 C   0  0  0  0  0  0  0  0  0  0  0  0
    4.5875   -1.1667    0.0000 C   0  0  0  0  0  0  0  0  0  0  0  0
    5.2000   -2.2292    0.0000 C   0  0  0  0  0  0  0  0  0  0  0  0
   -0.3333   -3.2917    0.0000 C   0  0  0  0  0  0  0  0  0  0  0  0
   -0.3333   -4.0000    0.0000 C   0  0  0  0  0  0  0  0  0  0  0  0
  2  1  2  0
  3  2  1  0
  4  8  1  0
  5  1  1  0
  6  7  1  0
  7  3  1  0
  8  6  1  0
  9  6  1  0
 10  4  1  0
 11 14  1  0
 12  2  1  0
 13  1  1  0
 14  5  2  0
 15  5  1  0
 16 10  1  0
 17 10  1  0
 18 13  2  0
 19 15  2  0
 11 12  2  0
 18 19  1  0
M  END
>  <Classification>  (43) 
0

>  <pchembl>  (43) 
4.2

>  <InChI_steorem>  (43) 
InChI=1S/C16H21NO2/c1-12(2)17-10-14(18)11-19-16-9-5-7-13-6-3-4-8-15(13)16/h3-9,12,14,17-18H,10-11H2,1-2H3

>  <source>  (43) 
ChEMBL25

>  <source_id>  (43) 
25

>  <optional_reference>  (43) 
10.1021/jm8003152

>  <optional_origin>  (43) 
None

>  <target>  (43) 
OCT1

$$$$

     RDKit          2D

 22 24  0  0  0  0  0  0  0  0999 V2000
    5.5750   -5.4625    0.0000 N   0  0  0  0  0  0  0  0  0  0  0  0
    5.5750   -4.0417    0.0000 S   0  0  0  0  0  0  0  0  0  0  0  0
    6.1875   -5.1042    0.0000 C   0  0  0  0  0  0  0  0  0  0  0  0
    4.9667   -5.1042    0.0000 C   0  0  0  0  0  0  0  0  0  0  0  0
    5.5750   -6.1625    0.0000 C   0  0  0  0  0  0  0  0  0  0  0  0
    6.1875   -4.3917    0.0000 C   0  0  0  0  0  0  0  0  0  0  0  0
    4.9667   -4.3917    0.0000 C   0  0  0  0  0  0  0  0  0  0  0  0
    4.9542   -6.5167    0.0000 C   0  0  0  0  0  0  0  0  0  0  0  0
    4.9542   -7.2250    0.0000 N   0  0  0  0  0  0  0  0  0  0  0  0
    4.3542   -5.4625    0.0000 C   0  0  0  0  0  0  0  0  0  0  0  0
    6.8042   -5.4542    0.0000 C   0  0  0  0  0  0  0  0  0  0  0  0
    4.3500   -4.0375    0.0000 C   0  0  0  0  0  0  0  0  0  0  0  0
    6.8042   -4.0417    0.0000 C   0  0  0  0  0  0  0  0  0  0  0  0
    4.3417   -7.5792    0.0000 C   0  0  0  0  0  0  0  0  0  0  0  0
    5.5750   -7.5792    0.0000 C   0  0  0  0  0  0  0  0  0  0  0  0
    4.3542   -6.1667    0.0000 C   0  0  0  0  0  0  0  0  0  0  0  0
    4.3417   -8.2917    0.0000 C   0  0  0  0  0  0  0  0  0  0  0  0
    5.5750   -8.2875    0.0000 C   0  0  0  0  0  0  0  0  0  0  0  0
    7.4167   -5.1042    0.0000 C   0  0  0  0  0  0  0  0  0  0  0  0
    3.7375   -5.1000    0.0000 C   0  0  0  0  0  0  0  0  0  0  0  0
    7.4167   -4.3917    0.0000 C   0  0  0  0  0  0  0  0  0  0  0  0
    3.7375   -4.3917    0.0000 C   0  0  0  0  0  0  0  0  0  0  0  0
  2  7  1  0
  3  1  1  0
  4  1  1  0
  5  1  1  0
  6  3  2  0
  7  4  2  0
  8  5  1  0
  9  8  1  0
 10  4  1  0
 11  3  1  0
 12  7  1  0
 13  6  1  0
 14  9  1  0
 15  9  1  0
 16  8  1  0
 17 14  1  0
 18 15  1  0
 19 11  2  0
 20 10  2  0
 21 19  1  0
 22 20  1  0
  2  6  1  0
 22 12  2  0
 21 13  2  0
M  END
>  <Classification>  (44) 
0

>  <pchembl>  (44) 
4.69

>  <InChI_steorem>  (44) 
InChI=1S/C19H24N2S/c1-4-20(5-2)15(3)14-21-16-10-6-8-12-18(16)22-19-13-9-7-11-17(19)21/h6-13,15H,4-5,14H2,1-3H3

>  <source>  (44) 
ChEMBL25

>  <source_id>  (44) 
25

>  <optional_reference>  (44) 
10.1021/acs.jmedchem.6b01317

>  <optional_origin>  (44) 
None

>  <target>  (44) 
OCT1

$$$$

     RDKit          2D

 23 26  0  0  0  0  0  0  0  0999 V2000
    5.7667   -3.9167    0.0000 N   0  0  0  0  0  0  0  0  0  0  0  0
    5.2000   -5.0750    0.0000 C   0  0  0  0  0  0  0  0  0  0  0  0
    5.7750   -5.5250    0.0000 C   0  0  0  0  0  0  0  0  0  0  0  0
    5.2000   -4.3542    0.0000 C   0  0  0  0  0  0  0  0  0  0  0  0
    6.4625   -5.3542    0.0000 N   0  0  0  0  0  0  0  0  0  0  0  0
    6.3542   -2.9417    0.0000 N   0  0  0  0  0  0  0  0  0  0  0  0
    6.4542   -4.0667    0.0000 C   0  0  0  0  0  0  0  0  0  0  0  0
    5.6917   -3.2167    0.0000 C   0  0  0  0  0  0  0  0  0  0  0  0
    5.4250   -6.1292    0.0000 C   0  0  0  0  0  0  0  0  0  0  0  0
    6.8042   -3.4667    0.0000 C   0  0  0  0  0  0  0  0  0  0  0  0
    6.7542   -4.7292    0.0000 C   0  0  0  0  0  0  0  0  0  0  0  0
    4.5875   -4.0167    0.0000 C   0  0  0  0  0  0  0  0  0  0  0  0
    4.5917   -5.4375    0.0000 C   0  0  0  0  0  0  0  0  0  0  0  0
    5.7667   -6.7500    0.0000 C   0  0  0  0  0  0  0  0  0  0  0  0
    3.9750   -5.0792    0.0000 C   0  0  0  0  0  0  0  0  0  0  0  0
    3.9750   -4.3625    0.0000 C   0  0  0  0  0  0  0  0  0  0  0  0
    6.4875   -6.7625    0.0000 F   0  0  0  0  0  0  0  0  0  0  0  0
    3.3667   -5.4375    0.0000 Cl  0  0  0  0  0  0  0  0  0  0  0  0
    4.6917   -6.1292    0.0000 C   0  0  0  0  0  0  0  0  0  0  0  0
    5.0792   -2.8625    0.0000 C   0  0  0  0  0  0  0  0  0  0  0  0
    5.4167   -7.3500    0.0000 C   0  0  0  0  0  0  0  0  0  0  0  0
    4.3375   -6.7417    0.0000 C   0  0  0  0  0  0  0  0  0  0  0  0
    4.7042   -7.3542    0.0000 C   0  0  0  0  0  0  0  0  0  0  0  0
  2  4  2  0
  3  2  1  0
  4  1  1  0
  5 11  1  0
  6  8  2  0
  7  1  1  0
  8  1  1  0
  9  3  1  0
 10  7  2  0
 11  7  1  0
 12  4  1  0
 13  2  1  0
 14  9  2  0
 15 16  1  0
 16 12  2  0
 17 14  1  0
 18 15  1  0
 19  9  1  0
 20  8  1  0
 21 14  1  0
 22 19  2  0
 23 22  1  0
  6 10  1  0
  5  3  2  0
 15 13  2  0
 23 21  2  0
M  END
>  <Classification>  (45) 
1

>  <pchembl>  (45) 
5.43

>  <InChI_steorem>  (45) 
InChI=1S/C18H13ClFN3/c1-11-21-9-13-10-22-18(14-4-2-3-5-16(14)20)15-8-12(19)6-7-17(15)23(11)13/h2-9H,10H2,1H3

>  <source>  (45) 
ChEMBL25

>  <source_id>  (45) 
25

>  <optional_reference>  (45) 
None

>  <optional_origin>  (45) 
None

>  <target>  (45) 
OCT1

$$$$

     RDKit          2D

 28 30  0  0  0  0  0  0  0  0999 V2000
    1.7958   -1.4292    0.0000 N   0  0  0  0  0  0  0  0  0  0  0  0
    1.7958   -0.7417    0.0000 C   0  0  0  0  0  0  0  0  0  0  0  0
    0.6000   -1.4292    0.0000 C   0  0  0  0  0  0  0  0  0  0  0  0
    1.1958   -1.7792    0.0000 C   0  0  0  0  0  0  0  0  0  0  0  0
    1.1958   -0.3917    0.0000 N   0  0  0  0  0  0  0  0  0  0  0  0
    0.6000   -0.7417    0.0000 C   0  0  0  0  0  0  0  0  0  0  0  0
    0.0042   -1.7792    0.0000 C   0  0  0  0  0  0  0  0  0  0  0  0
    0.0042   -0.3917    0.0000 C   0  0  0  0  0  0  0  0  0  0  0  0
    4.7792   -1.7792    0.0000 C   0  0  0  0  0  0  0  0  0  0  0  0
   -0.5958   -1.4375    0.0000 C   0  0  0  0  0  0  0  0  0  0  0  0
   -0.5958   -0.7458    0.0000 C   0  0  0  0  0  0  0  0  0  0  0  0
    2.4000   -0.3958    0.0000 N   0  0  0  0  0  0  0  0  0  0  0  0
    5.3792   -1.4250    0.0000 C   0  0  0  0  0  0  0  0  0  0  0  0
    4.7792   -2.4667    0.0000 O   0  0  0  0  0  0  0  0  0  0  0  0
    5.9542   -1.8458    0.0000 O   0  0  0  0  0  0  0  0  0  0  0  0
    1.1958   -2.4708    0.0000 N   0  0  0  0  0  0  0  0  0  0  0  0
    4.1875   -1.4292    0.0000 N   0  0  0  0  0  0  0  0  0  0  0  0
   -1.2000   -1.7833    0.0000 O   0  0  0  0  0  0  0  0  0  0  0  0
   -1.2000   -0.3958    0.0000 O   0  0  0  0  0  0  0  0  0  0  0  0
    2.9917   -1.4375    0.0000 C   0  0  0  0  0  0  0  0  0  0  0  0
    2.9958   -0.7458    0.0000 C   0  0  0  0  0  0  0  0  0  0  0  0
    3.5875   -1.7792    0.0000 C   0  0  0  0  0  0  0  0  0  0  0  0
    2.4042    0.2958    0.0000 C   0  0  0  0  0  0  0  0  0  0  0  0
    6.5292   -1.4250    0.0000 C   0  0  0  0  0  0  0  0  0  0  0  0
    5.6000   -0.7542    0.0000 C   0  0  0  0  0  0  0  0  0  0  0  0
   -1.8042   -1.4375    0.0000 C   0  0  0  0  0  0  0  0  0  0  0  0
   -1.7958   -0.7458    0.0000 C   0  0  0  0  0  0  0  0  0  0  0  0
    6.3083   -0.7542    0.0000 C   0  0  0  0  0  0  0  0  0  0  0  0
  2  1  2  0
  3  4  2  0
  4  1  1  0
  5  2  1  0
  6  3  1  0
  7  3  1  0
  8  6  1  0
  9 17  1  0
 10  7  2  0
 11  8  2  0
 12  2  1  0
 13  9  1  0
 14  9  2  0
 15 13  1  0
 16  4  1  0
 17 22  1  0
 18 10  1  0
 19 11  1  0
 20 21  1  0
 21 12  1  0
 22 20  1  0
 23 12  1  0
 24 15  1  0
 25 13  1  0
 26 18  1  0
 27 19  1  0
 28 25  1  0
  5  6  2  0
 11 10  1  0
 24 28  1  0
M  END
>  <Classification>  (46) 
0

>  <pchembl>  (46) 
4.83

>  <InChI_steorem>  (46) 
InChI=1S/C19H27N5O4/c1-24(8-5-7-21-18(25)14-6-4-9-28-14)19-22-13-11-16(27-3)15(26-2)10-12(13)17(20)23-19/h10-11,14H,4-9H2,1-3H3,(H,21,25)(H2,20,22,23)

>  <source>  (46) 
ChEMBL25

>  <source_id>  (46) 
25

>  <optional_reference>  (46) 
10.1021/acs.jmedchem.6b01317

>  <optional_origin>  (46) 
None

>  <target>  (46) 
OCT1

$$$$

     RDKit          2D

 28 31  0  0  0  0  0  0  0  0999 V2000
   -0.4208    0.3583    0.0000 C   0  0  0  0  0  0  0  0  0  0  0  0
   -0.4208    1.0625    0.0000 N   0  0  0  0  0  0  0  0  0  0  0  0
   -1.6458    1.0625    0.0000 C   0  0  0  0  0  0  0  0  0  0  0  0
   -1.0333    1.4250    0.0000 C   0  0  0  0  0  0  0  0  0  0  0  0
   -1.0333    0.0083    0.0000 N   0  0  0  0  0  0  0  0  0  0  0  0
   -1.6458    0.3583    0.0000 C   0  0  0  0  0  0  0  0  0  0  0  0
    0.1917   -0.0125    0.0000 N   0  0  0  0  0  0  0  0  0  0  0  0
    2.0167   -1.1167    0.0000 C   0  0  0  0  0  0  0  0  0  0  0  0
    1.4250   -0.7292    0.0000 N   0  0  0  0  0  0  0  0  0  0  0  0
   -2.2708    1.4250    0.0000 C   0  0  0  0  0  0  0  0  0  0  0  0
   -2.2708    0.0083    0.0000 C   0  0  0  0  0  0  0  0  0  0  0  0
   -2.8833    1.0625    0.0000 C   0  0  0  0  0  0  0  0  0  0  0  0
   -2.8833    0.3583    0.0000 C   0  0  0  0  0  0  0  0  0  0  0  0
    2.6750   -0.7667    0.0000 C   0  0  0  0  0  0  0  0  0  0  0  0
    0.1917   -0.7125    0.0000 C   0  0  0  0  0  0  0  0  0  0  0  0
    0.8042    0.3458    0.0000 C   0  0  0  0  0  0  0  0  0  0  0  0
    0.8042   -1.0917    0.0000 C   0  0  0  0  0  0  0  0  0  0  0  0
    1.4250   -0.0125    0.0000 C   0  0  0  0  0  0  0  0  0  0  0  0
    2.0167   -1.8042    0.0000 O   0  0  0  0  0  0  0  0  0  0  0  0
    3.2625   -1.1917    0.0000 O   0  0  0  0  0  0  0  0  0  0  0  0
   -1.0333    2.1333    0.0000 N   0  0  0  0  0  0  0  0  0  0  0  0
   -3.4958    1.4125    0.0000 O   0  0  0  0  0  0  0  0  0  0  0  0
   -3.4958   -0.0042    0.0000 O   0  0  0  0  0  0  0  0  0  0  0  0
    3.8292   -0.7667    0.0000 C   0  0  0  0  0  0  0  0  0  0  0  0
    2.9167   -0.0917    0.0000 C   0  0  0  0  0  0  0  0  0  0  0  0
   -4.1083    1.0625    0.0000 C   0  0  0  0  0  0  0  0  0  0  0  0
   -4.1083    0.3458    0.0000 C   0  0  0  0  0  0  0  0  0  0  0  0
    3.5792   -0.0917    0.0000 C   0  0  0  0  0  0  0  0  0  0  0  0
  2  1  2  0
  3  6  1  0
  4  2  1  0
  5  1  1  0
  6  5  2  0
  7  1  1  0
  8  9  1  0
  9 18  1  0
 10  3  1  0
 11  6  1  0
 12 13  1  0
 13 11  2  0
 14  8  1  0
 15  7  1  0
 16  7  1  0
 17 15  1  0
 18 16  1  0
 19  8  2  0
 20 14  1  0
 21  4  1  0
 22 12  1  0
 23 13  1  0
 24 20  1  0
 25 14  1  0
 26 22  1  0
 27 23  1  0
 28 25  1  0
  4  3  2  0
 17  9  1  0
 12 10  2  0
 28 24  1  0
M  END
>  <Classification>  (47) 
0

>  <pchembl>  (47) 
4.62

>  <InChI_steorem>  (47) 
InChI=1S/C19H25N5O4/c1-26-15-10-12-13(11-16(15)27-2)21-19(22-17(12)20)24-7-5-23(6-8-24)18(25)14-4-3-9-28-14/h10-11,14H,3-9H2,1-2H3,(H2,20,21,22)

>  <source>  (47) 
ChEMBL25

>  <source_id>  (47) 
25

>  <optional_reference>  (47) 
10.1021/jm8003152

>  <optional_origin>  (47) 
None

>  <target>  (47) 
OCT1

$$$$

     RDKit          2D

 20 22  0  0  0  0  0  0  0  0999 V2000
    5.7167   -7.3875    0.0000 N   0  0  0  0  0  0  0  0  0  0  0  0
    5.7375   -5.9667    0.0000 S   0  0  0  0  0  0  0  0  0  0  0  0
    6.3375   -7.0250    0.0000 C   0  0  0  0  0  0  0  0  0  0  0  0
    5.1042   -7.0292    0.0000 C   0  0  0  0  0  0  0  0  0  0  0  0
    6.3417   -6.3167    0.0000 C   0  0  0  0  0  0  0  0  0  0  0  0
    5.1167   -6.3167    0.0000 C   0  0  0  0  0  0  0  0  0  0  0  0
    5.7375   -8.0875    0.0000 C   0  0  0  0  0  0  0  0  0  0  0  0
    5.1042   -8.4417    0.0000 C   0  0  0  0  0  0  0  0  0  0  0  0
    3.8792   -8.4542    0.0000 N   0  0  0  0  0  0  0  0  0  0  0  0
    4.5042   -7.3792    0.0000 C   0  0  0  0  0  0  0  0  0  0  0  0
    6.9625   -7.3792    0.0000 C   0  0  0  0  0  0  0  0  0  0  0  0
    4.5042   -5.9667    0.0000 C   0  0  0  0  0  0  0  0  0  0  0  0
    6.9542   -5.9542    0.0000 C   0  0  0  0  0  0  0  0  0  0  0  0
    4.4917   -8.0917    0.0000 C   0  0  0  0  0  0  0  0  0  0  0  0
    3.2667   -8.0917    0.0000 C   0  0  0  0  0  0  0  0  0  0  0  0
    3.8792   -9.1667    0.0000 C   0  0  0  0  0  0  0  0  0  0  0  0
    7.5750   -7.0250    0.0000 C   0  0  0  0  0  0  0  0  0  0  0  0
    3.8917   -7.0250    0.0000 C   0  0  0  0  0  0  0  0  0  0  0  0
    3.8792   -6.3250    0.0000 C   0  0  0  0  0  0  0  0  0  0  0  0
    7.5667   -6.3125    0.0000 C   0  0  0  0  0  0  0  0  0  0  0  0
  2  6  1  0
  3  1  1  0
  4  1  1  0
  5  3  2  0
  6  4  2  0
  7  1  1  0
  8  7  1  0
  9 14  1  0
 10  4  1  0
 11  3  1  0
 12  6  1  0
 13  5  1  0
 14  8  1  0
 15  9  1  0
 16  9  1  0
 17 11  2  0
 18 10  2  0
 19 18  1  0
 20 17  1  0
  2  5  1  0
 19 12  2  0
 20 13  2  0
M  END
>  <Classification>  (48) 
0

>  <pchembl>  (48) 
4.76

>  <InChI_steorem>  (48) 
InChI=1S/C17H20N2S/c1-18(2)12-7-13-19-14-8-3-5-10-16(14)20-17-11-6-4-9-15(17)19/h3-6,8-11H,7,12-13H2,1-2H3

>  <source>  (48) 
ChEMBL25

>  <source_id>  (48) 
25

>  <optional_reference>  (48) 
10.1021/jm8003152

>  <optional_origin>  (48) 
None

>  <target>  (48) 
OCT1

$$$$

     RDKit          2D

 21 22  0  0  0  0  0  0  0  0999 V2000
    5.9792   -7.3417    0.0000 N   0  0  0  0  0  0  0  0  0  0  0  0
    5.9667   -6.6292    0.0000 C   0  0  0  0  0  0  0  0  0  0  0  0
    5.3542   -7.6917    0.0000 C   0  0  0  0  0  0  0  0  0  0  0  0
    4.7667   -7.3417    0.0000 C   0  0  0  0  0  0  0  0  0  0  0  0
    4.1542   -7.7042    0.0000 O   0  0  0  0  0  0  0  0  0  0  0  0
    6.5875   -6.2875    0.0000 C   0  0  0  0  0  0  0  0  0  0  0  0
    3.5292   -7.3417    0.0000 C   0  0  0  0  0  0  0  0  0  0  0  0
    7.8250   -7.6917    0.0000 Cl  0  0  0  0  0  0  0  0  0  0  0  0
    6.5875   -7.6917    0.0000 C   0  0  0  0  0  0  0  0  0  0  0  0
    7.2125   -7.3417    0.0000 C   0  0  0  0  0  0  0  0  0  0  0  0
    5.3667   -8.4042    0.0000 C   0  0  0  0  0  0  0  0  0  0  0  0
    6.5875   -5.5750    0.0000 C   0  0  0  0  0  0  0  0  0  0  0  0
    7.2042   -6.6292    0.0000 C   0  0  0  0  0  0  0  0  0  0  0  0
    2.9125   -7.7125    0.0000 C   0  0  0  0  0  0  0  0  0  0  0  0
    3.5292   -6.6542    0.0000 C   0  0  0  0  0  0  0  0  0  0  0  0
    2.2917   -7.3542    0.0000 C   0  0  0  0  0  0  0  0  0  0  0  0
    7.2042   -5.2250    0.0000 C   0  0  0  0  0  0  0  0  0  0  0  0
    7.8250   -6.2792    0.0000 C   0  0  0  0  0  0  0  0  0  0  0  0
    2.9042   -6.2917    0.0000 C   0  0  0  0  0  0  0  0  0  0  0  0
    2.2917   -6.6542    0.0000 C   0  0  0  0  0  0  0  0  0  0  0  0
    7.8292   -5.5750    0.0000 C   0  0  0  0  0  0  0  0  0  0  0  0
  2  1  1  0
  3  1  1  0
  4  3  1  0
  5  4  1  0
  6  2  1  0
  7  5  1  0
  8 10  1  0
  9  1  1  0
 10  9  1  0
 11  3  1  0
 12  6  2  0
 13  6  1  0
 14  7  2  0
 15  7  1  0
 16 14  1  0
 17 12  1  0
 18 13  2  0
 19 15  2  0
 20 16  2  0
 21 17  2  0
 21 18  1  0
 20 19  1  0
M  END
>  <Classification>  (49) 
0

>  <pchembl>  (49) 
4.82

>  <InChI_steorem>  (49) 
InChI=1S/C18H22ClNO/c1-16(15-21-18-10-6-3-7-11-18)20(13-12-19)14-17-8-4-2-5-9-17/h2-11,16H,12-15H2,1H3

>  <source>  (49) 
ChEMBL25

>  <source_id>  (49) 
25

>  <optional_reference>  (49) 
10.1021/jm8003152

>  <optional_origin>  (49) 
None

>  <target>  (49) 
OCT1

$$$$

     RDKit          2D

 15 15  0  0  0  0  0  0  0  0999 V2000
   -2.3333    0.1458    0.0000 N   0  0  0  0  0  0  0  0  0  0  0  0
   -1.3500   -0.3292    0.0000 C   0  0  0  0  0  0  0  0  0  0  0  0
   -3.2333   -0.4542    0.0000 C   0  0  0  0  0  0  0  0  0  0  0  0
   -1.2833   -1.4042    0.0000 N   0  0  0  0  0  0  0  0  0  0  0  0
   -4.2083    0.0083    0.0000 N   0  0  0  0  0  0  0  0  0  0  0  0
   -0.4500    0.2708    0.0000 N   0  0  0  0  0  0  0  0  0  0  0  0
   -3.1583   -1.5375    0.0000 N   0  0  0  0  0  0  0  0  0  0  0  0
    0.5125   -0.2000    0.0000 C   0  0  0  0  0  0  0  0  0  0  0  0
    2.3792   -0.0667    0.0000 C   0  0  0  0  0  0  0  0  0  0  0  0
    1.4125    0.3958    0.0000 C   0  0  0  0  0  0  0  0  0  0  0  0
    2.4542   -1.1500    0.0000 C   0  0  0  0  0  0  0  0  0  0  0  0
    3.2875    0.5208    0.0000 C   0  0  0  0  0  0  0  0  0  0  0  0
    4.2667    0.0458    0.0000 C   0  0  0  0  0  0  0  0  0  0  0  0
    3.4375   -1.6375    0.0000 C   0  0  0  0  0  0  0  0  0  0  0  0
    4.3417   -1.0167    0.0000 C   0  0  0  0  0  0  0  0  0  0  0  0
  2  1  1  0
  3  1  1  0
  4  2  2  0
  5  3  2  0
  6  2  1  0
  7  3  1  0
  8  6  1  0
  9 10  1  0
 10  8  1  0
 11  9  2  0
 12  9  1  0
 13 12  2  0
 14 11  1  0
 15 14  2  0
 13 15  1  0
M  END
>  <Classification>  (50) 
1

>  <pchembl>  (50) 
5.0

>  <InChI_steorem>  (50) 
InChI=1S/C10H15N5/c11-9(12)15-10(13)14-7-6-8-4-2-1-3-5-8/h1-5H,6-7H2,(H6,11,12,13,14,15)

>  <source>  (50) 
ChEMBL25

>  <source_id>  (50) 
25

>  <optional_reference>  (50) 
10.1023/a:1019870831174

>  <optional_origin>  (50) 
None

>  <target>  (50) 
OCT1

$$$$

     RDKit          2D

 10 10  0  0  0  0  0  0  0  0999 V2000
    5.4072  -14.4499    0.0000 N   0  0  0  0  0  0  0  0  0  0  0  0
    6.1173  -14.0399    0.0000 C   0  0  0  0  0  0  0  0  0  0  0  0
    6.8274  -14.4499    0.0000 N   0  0  0  0  0  0  0  0  0  0  0  0
    6.1173  -13.2199    0.0000 N   0  0  0  0  0  0  0  0  0  0  0  0
    4.6971  -14.0399    0.0000 C   0  0  0  0  0  0  0  0  0  0  0  0
    3.9870  -14.4499    0.0000 C   0  0  0  0  0  0  0  0  0  0  0  0
    3.2770  -14.0399    0.0000 C   0  0  0  0  0  0  0  0  0  0  0  0
    3.2770  -13.2199    0.0000 C   0  0  0  0  0  0  0  0  0  0  0  0
    3.9870  -12.8100    0.0000 C   0  0  0  0  0  0  0  0  0  0  0  0
    4.6971  -13.2199    0.0000 C   0  0  0  0  0  0  0  0  0  0  0  0
  1  2  1  0
  2  3  1  0
  2  4  2  0
  5  6  2  0
  6  7  1  0
  7  8  2  0
  8  9  1  0
  9 10  2  0
  5 10  1  0
  1  5  1  0
M  END
>  <Classification>  (51) 
0

>  <pchembl>  (51) 
4.39

>  <InChI_steorem>  (51) 
InChI=1S/C7H9N3/c8-7(9)10-6-4-2-1-3-5-6/h1-5H,(H4,8,9,10)

>  <source>  (51) 
ChEMBL25

>  <source_id>  (51) 
25

>  <optional_reference>  (51) 
10.1016/j.bmcl.2017.08.008

>  <optional_origin>  (51) 
None

>  <target>  (51) 
OCT1

$$$$

     RDKit          2D

 11 11  0  0  0  0  0  0  0  0999 V2000
    4.8301    4.0000    0.0000 C   0  0  0  0  0  0  0  0  0  0  0  0
    3.0981    4.0000    0.0000 C   0  0  0  0  0  0  0  0  0  0  0  0
    3.9641    2.5000    0.0000 C   0  0  0  0  0  0  0  0  0  0  0  0
    2.2321    3.5000    0.0000 C   0  0  0  0  0  0  0  0  0  0  0  0
    3.0981    2.0000    0.0000 C   0  0  0  0  0  0  0  0  0  0  0  0
    3.9641    3.5000    0.0000 C   0  0  0  0  0  0  0  0  0  0  0  0
    2.2321    2.5000    0.0000 C   0  0  0  0  0  0  0  0  0  0  0  0
    1.3660    1.0000    0.0000 C   0  0  0  0  0  0  0  0  0  0  0  0
    2.2321    0.5000    0.0000 N   0  0  0  0  0  0  0  0  0  0  0  0
    0.5000    0.5000    0.0000 N   0  0  0  0  0  0  0  0  0  0  0  0
    1.3660    2.0000    0.0000 N   0  0  0  0  0  0  0  0  0  0  0  0
  1  6  1  0
  2  4  2  0
  2  6  1  0
  3  5  1  0
  3  6  2  0
  4  7  1  0
  5  7  2  0
  7 11  1  0
  8  9  2  0
  8 10  1  0
  8 11  1  0
M  END
>  <Classification>  (52) 
1

>  <pchembl>  (52) 
5.0

>  <InChI_steorem>  (52) 
InChI=1S/C8H11N3/c1-6-2-4-7(5-3-6)11-8(9)10/h2-5H,1H3,(H4,9,10,11)

>  <source>  (52) 
ChEMBL25

>  <source_id>  (52) 
25

>  <optional_reference>  (52) 
10.1016/j.bmcl.2017.08.008

>  <optional_origin>  (52) 
None

>  <target>  (52) 
OCT1

$$$$

     RDKit          2D

 13 14  0  0  0  0  0  0  0  0999 V2000
    4.3292  -10.6000    0.0000 N   0  0  0  0  0  0  0  0  0  0  0  0
    5.9750  -10.6000    0.0000 C   0  0  0  0  0  0  0  0  0  0  0  0
    4.7375  -11.3125    0.0000 C   0  0  0  0  0  0  0  0  0  0  0  0
    4.7375   -9.8833    0.0000 C   0  0  0  0  0  0  0  0  0  0  0  0
    5.5625   -9.8833    0.0000 C   0  0  0  0  0  0  0  0  0  0  0  0
    5.5625  -11.3125    0.0000 C   0  0  0  0  0  0  0  0  0  0  0  0
    6.8000  -10.6000    0.0000 C   0  0  0  0  0  0  0  0  0  0  0  0
    3.5042  -10.6000    0.0000 C   0  0  0  0  0  0  0  0  0  0  0  0
    7.2125  -11.3125    0.0000 C   0  0  0  0  0  0  0  0  0  0  0  0
    7.2125   -9.8833    0.0000 C   0  0  0  0  0  0  0  0  0  0  0  0
    8.0333   -9.8833    0.0000 C   0  0  0  0  0  0  0  0  0  0  0  0
    8.0333  -11.3125    0.0000 C   0  0  0  0  0  0  0  0  0  0  0  0
    8.4458  -10.6000    0.0000 C   0  0  0  0  0  0  0  0  0  0  0  0
  2  5  1  0
  3  1  2  0
  4  1  1  0
  5  4  2  0
  6  3  1  0
  7  2  1  0
  8  1  1  0
  9  7  2  0
 10  7  1  0
 11 10  2  0
 12  9  1  0
 13 12  2  0
  6  2  2  0
 13 11  1  0
M  CHG  1   1   1
M  END
>  <Classification>  (53) 
0

>  <pchembl>  (53) 
4.91

>  <InChI_steorem>  (53) 
InChI=1S/C12H12N/c1-13-9-7-12(8-10-13)11-5-3-2-4-6-11/h2-10H,1H3

>  <source>  (53) 
ChEMBL25

>  <source_id>  (53) 
25

>  <optional_reference>  (53) 
None

>  <optional_origin>  (53) 
None

>  <target>  (53) 
OCT1

$$$$

     RDKit          2D

 14 14  0  0  0  0  0  0  0  0999 V2000
    1.8882   -0.5009    0.0000 Cl  0  0  0  0  0  0  0  0  0  0  0  0
   -0.9696   -0.5009    0.0000 Cl  0  0  0  0  0  0  0  0  0  0  0  0
   -0.2552    0.7366    0.0000 N   0  0  0  0  0  0  0  0  0  0  0  0
   -0.2552    1.5616    0.0000 N   0  0  0  0  0  0  0  0  0  0  0  0
   -0.9696    2.7991    0.0000 N   0  0  0  0  0  0  0  0  0  0  0  0
   -1.6841    1.5616    0.0000 N   0  0  0  0  0  0  0  0  0  0  0  0
    0.4593   -0.5009    0.0000 C   0  0  0  0  0  0  0  0  0  0  0  0
    1.1738   -0.9134    0.0000 C   0  0  0  0  0  0  0  0  0  0  0  0
   -0.2552   -0.9134    0.0000 C   0  0  0  0  0  0  0  0  0  0  0  0
    0.4593    0.3241    0.0000 C   0  0  0  0  0  0  0  0  0  0  0  0
    1.1738   -1.7384    0.0000 C   0  0  0  0  0  0  0  0  0  0  0  0
   -0.2552   -1.7384    0.0000 C   0  0  0  0  0  0  0  0  0  0  0  0
    0.4593   -2.1509    0.0000 C   0  0  0  0  0  0  0  0  0  0  0  0
   -0.9696    1.9741    0.0000 C   0  0  0  0  0  0  0  0  0  0  0  0
  1  8  1  0
  2  9  1  0
  3  4  1  0
  3 10  2  3
  4 14  1  0
  5 14  2  0
 14  6  1  0
  7  8  2  0
  7  9  1  0
  7 10  1  0
  8 11  1  0
  9 12  2  0
 11 13  2  0
 12 13  1  0
M  END
>  <Classification>  (54) 
1

>  <pchembl>  (54) 
5.31

>  <InChI_steorem>  (54) 
InChI=1S/C8H8Cl2N4/c9-6-2-1-3-7(10)5(6)4-13-14-8(11)12/h1-4H,(H4,11,12,14)

>  <source>  (54) 
ChEMBL25

>  <source_id>  (54) 
25

>  <optional_reference>  (54) 
10.1021/acs.jmedchem.6b01317

>  <optional_origin>  (54) 
None

>  <target>  (54) 
OCT1

$$$$

     RDKit          2D

 14 15  0  0  0  0  0  0  0  0999 V2000
    4.5589  -20.2334    0.0000 C   0  0  0  0  0  0  0  0  0  0  0  0
    3.1324  -20.2334    0.0000 C   0  0  0  0  0  0  0  0  0  0  0  0
    3.8457  -19.8205    0.0000 N   0  0  0  0  0  0  0  0  0  0  0  0
    5.3097  -19.8956    0.0000 N   0  0  0  0  0  0  0  0  0  0  0  0
    4.6465  -21.0510    0.0000 N   0  0  0  0  0  0  0  0  0  0  0  0
    3.1324  -21.0593    0.0000 C   0  0  0  0  0  0  0  0  0  0  0  0
    2.4108  -19.8205    0.0000 C   0  0  0  0  0  0  0  0  0  0  0  0
    2.4108  -18.9946    0.0000 Cl  0  0  0  0  0  0  0  0  0  0  0  0
    3.8457  -21.4722    0.0000 Cl  0  0  0  0  0  0  0  0  0  0  0  0
    5.8644  -20.5087    0.0000 C   0  0  0  0  0  0  0  0  0  0  0  0
    5.4514  -21.2219    0.0000 C   0  0  0  0  0  0  0  0  0  0  0  0
    1.6976  -21.0593    0.0000 C   0  0  0  0  0  0  0  0  0  0  0  0
    1.6976  -20.2334    0.0000 C   0  0  0  0  0  0  0  0  0  0  0  0
    2.4108  -21.4722    0.0000 C   0  0  0  0  0  0  0  0  0  0  0  0
  2  3  1  0
  3  1  1  0
  4  1  2  0
  5  1  1  0
  6  2  2  0
  7  2  1  0
  8  7  1  0
  9  6  1  0
 10  4  1  0
 11  5  1  0
 12 13  1  0
 13  7  2  0
 14  6  1  0
 10 11  1  0
 14 12  2  0
M  END
>  <Classification>  (55) 
0

>  <pchembl>  (55) 
4.65

>  <InChI_steorem>  (55) 
InChI=1S/C9H9Cl2N3/c10-6-2-1-3-7(11)8(6)14-9-12-4-5-13-9/h1-3H,4-5H2,(H2,12,13,14)

>  <source>  (55) 
ChEMBL25

>  <source_id>  (55) 
25

>  <optional_reference>  (55) 
10.1021/jm8003152

>  <optional_origin>  (55) 
None

>  <target>  (55) 
OCT1

$$$$

     RDKit          2D

 17 16  0  0  0  0  0  0  0  0999 V2000
    5.5625   -6.3333    0.0000 N   0  0  0  0  0  0  0  0  0  0  0  0
    6.2750   -6.7458    0.0000 C   0  0  0  0  0  0  0  0  0  0  0  0
    6.2750   -5.9208    0.0000 C   0  0  0  0  0  0  0  0  0  0  0  0
    5.5625   -7.1583    0.0000 C   0  0  0  0  0  0  0  0  0  0  0  0
    4.8458   -5.9208    0.0000 C   0  0  0  0  0  0  0  0  0  0  0  0
    6.2708   -7.5708    0.0000 C   0  0  0  0  0  0  0  0  0  0  0  0
    6.9917   -6.3333    0.0000 C   0  0  0  0  0  0  0  0  0  0  0  0
    4.8458   -5.0958    0.0000 C   0  0  0  0  0  0  0  0  0  0  0  0
    4.8458   -7.5708    0.0000 C   0  0  0  0  0  0  0  0  0  0  0  0
    6.9875   -7.9833    0.0000 C   0  0  0  0  0  0  0  0  0  0  0  0
    4.1333   -4.6833    0.0000 C   0  0  0  0  0  0  0  0  0  0  0  0
    7.7042   -5.9208    0.0000 C   0  0  0  0  0  0  0  0  0  0  0  0
    4.8458   -8.3958    0.0000 C   0  0  0  0  0  0  0  0  0  0  0  0
    6.9833   -8.8083    0.0000 C   0  0  0  0  0  0  0  0  0  0  0  0
    4.1333   -8.8083    0.0000 C   0  0  0  0  0  0  0  0  0  0  0  0
    8.4167   -6.3333    0.0000 C   0  0  0  0  0  0  0  0  0  0  0  0
    4.1333   -3.8583    0.0000 C   0  0  0  0  0  0  0  0  0  0  0  0
  2  1  1  0
  3  1  1  0
  4  1  1  0
  5  1  1  0
  6  2  1  0
  7  3  1  0
  8  5  1  0
  9  4  1  0
 10  6  1  0
 11  8  1  0
 12  7  1  0
 13  9  1  0
 14 10  1  0
 15 13  1  0
 16 12  1  0
 17 11  1  0
M  CHG  1   1   1
M  END
>  <Classification>  (56) 
0

>  <pchembl>  (56) 
4.28

>  <InChI_steorem>  (56) 
InChI=1S/C16H36N/c1-5-9-13-17(14-10-6-2,15-11-7-3)16-12-8-4/h5-16H2,1-4H3

>  <source>  (56) 
ChEMBL25

>  <source_id>  (56) 
25

>  <optional_reference>  (56) 
None

>  <optional_origin>  (56) 
None

>  <target>  (56) 
OCT1

$$$$

     RDKit          2D

 19 20  0  0  0  0  0  0  0  0999 V2000
    0.6769   -2.1276    0.0000 Cl  0  0  0  0  0  0  0  0  0  0  0  0
    0.6769    2.8224    0.0000 Cl  0  0  0  0  0  0  0  0  0  0  0  0
   -2.1810   -2.1276    0.0000 Cl  0  0  0  0  0  0  0  0  0  0  0  0
    2.1058    0.3474    0.0000 Cl  0  0  0  0  0  0  0  0  0  0  0  0
   -0.7521    0.3474    0.0000 S   0  0  0  0  0  0  0  0  0  0  0  0
    0.6769   -0.4776    0.0000 O   0  0  0  0  0  0  0  0  0  0  0  0
   -0.7521    1.9974    0.0000 O   0  0  0  0  0  0  0  0  0  0  0  0
   -0.7521   -0.4776    0.0000 C   0  0  0  0  0  0  0  0  0  0  0  0
   -0.0376    0.7599    0.0000 C   0  0  0  0  0  0  0  0  0  0  0  0
   -0.0376   -0.8901    0.0000 C   0  0  0  0  0  0  0  0  0  0  0  0
   -0.0376    1.5849    0.0000 C   0  0  0  0  0  0  0  0  0  0  0  0
   -0.0376   -1.7151    0.0000 C   0  0  0  0  0  0  0  0  0  0  0  0
    0.6769    1.9974    0.0000 C   0  0  0  0  0  0  0  0  0  0  0  0
   -1.4665   -0.8901    0.0000 C   0  0  0  0  0  0  0  0  0  0  0  0
    0.6769    0.3474    0.0000 C   0  0  0  0  0  0  0  0  0  0  0  0
   -1.4665   -1.7151    0.0000 C   0  0  0  0  0  0  0  0  0  0  0  0
    1.3913    0.7599    0.0000 C   0  0  0  0  0  0  0  0  0  0  0  0
   -0.7521   -2.1276    0.0000 C   0  0  0  0  0  0  0  0  0  0  0  0
    1.3913    1.5849    0.0000 C   0  0  0  0  0  0  0  0  0  0  0  0
  1 12  1  0
  2 13  1  0
  3 16  1  0
  4 17  1  0
  5  8  1  0
  5  9  1  0
  6 10  1  0
  7 11  1  0
  8 10  2  0
  8 14  1  0
  9 11  2  0
  9 15  1  0
 10 12  1  0
 11 13  1  0
 12 18  2  0
 13 19  2  0
 14 16  2  0
 15 17  2  0
 16 18  1  0
 17 19  1  0
M  END
>  <Classification>  (57) 
1

>  <pchembl>  (57) 
5.41

>  <InChI_steorem>  (57) 
InChI=1S/C12H6Cl4O2S/c13-5-1-7(15)11(17)9(3-5)19-10-4-6(14)2-8(16)12(10)18/h1-4,17-18H

>  <source>  (57) 
ChEMBL25

>  <source_id>  (57) 
25

>  <optional_reference>  (57) 
10.1021/jm301302s

>  <optional_origin>  (57) 
None

>  <target>  (57) 
OCT1

$$$$

     RDKit          2D

 21 22  0  0  0  0  0  0  0  0999 V2000
    8.4293   -4.9896    0.0000 N   0  0  0  0  0  0  0  0  0  0  0  0
    7.7151   -4.5815    0.0000 C   0  0  0  0  0  0  0  0  0  0  0  0
    6.9864   -4.9896    0.0000 C   0  0  0  0  0  0  0  0  0  0  0  0
    8.4293   -5.8058    0.0000 C   0  0  0  0  0  0  0  0  0  0  0  0
    4.1248   -5.8058    0.0000 C   0  0  0  0  0  0  0  0  0  0  0  0
    4.1248   -4.9896    0.0000 C   0  0  0  0  0  0  0  0  0  0  0  0
    4.8438   -6.2139    0.0000 C   0  0  0  0  0  0  0  0  0  0  0  0
    7.7006   -6.2285    0.0000 N   0  0  0  0  0  0  0  0  0  0  0  0
    5.5677   -4.9896    0.0000 C   0  0  0  0  0  0  0  0  0  0  0  0
    6.2722   -4.5766    0.0000 C   0  0  0  0  0  0  0  0  0  0  0  0
    6.9864   -5.8058    0.0000 C   0  0  0  0  0  0  0  0  0  0  0  0
    5.5726   -5.8058    0.0000 C   0  0  0  0  0  0  0  0  0  0  0  0
    4.8535   -4.5766    0.0000 C   0  0  0  0  0  0  0  0  0  0  0  0
    7.7151   -3.7507    0.0000 N   0  0  0  0  0  0  0  0  0  0  0  0
    9.1435   -6.2285    0.0000 N   0  0  0  0  0  0  0  0  0  0  0  0
    3.4009   -6.2236    0.0000 O   0  0  0  0  0  0  0  0  0  0  0  0
    3.4155   -4.5815    0.0000 O   0  0  0  0  0  0  0  0  0  0  0  0
    4.8535   -7.0593    0.0000 O   0  0  0  0  0  0  0  0  0  0  0  0
    2.6867   -5.8009    0.0000 C   0  0  0  0  0  0  0  0  0  0  0  0
    4.1393   -7.4674    0.0000 C   0  0  0  0  0  0  0  0  0  0  0  0
    3.4106   -3.7458    0.0000 C   0  0  0  0  0  0  0  0  0  0  0  0
  2  1  2  0
  3  2  1  0
  4  1  1  0
  5  7  2  0
  6 13  2  0
  7 12  1  0
  8  4  2  0
  9 10  1  0
 10  3  1  0
 11  8  1  0
 12  9  2  0
 13  9  1  0
 14  2  1  0
 15  4  1  0
 16  5  1  0
 17  6  1  0
 18  7  1  0
 19 16  1  0
 20 18  1  0
 21 17  1  0
  3 11  2  0
  6  5  1  0
M  END
>  <Classification>  (58) 
0

>  <pchembl>  (58) 
4.25

>  <InChI_steorem>  (58) 
InChI=1S/C14H18N4O3/c1-19-10-5-8(6-11(20-2)12(10)21-3)4-9-7-17-14(16)18-13(9)15/h5-7H,4H2,1-3H3,(H4,15,16,17,18)

>  <source>  (58) 
ChEMBL25

>  <source_id>  (58) 
25

>  <optional_reference>  (58) 
10.1021/jm8003152

>  <optional_origin>  (58) 
None

>  <target>  (58) 
OCT1

$$$$

     RDKit          2D

 21 23  0  0  0  0  0  0  0  0999 V2000
   15.6610   -5.3481    0.0000 C   0  0  0  0  0  0  0  0  0  0  0  0
   16.3759   -5.7550    0.0000 C   0  0  0  0  0  0  0  0  0  0  0  0
   17.0921   -5.3372    0.0000 C   0  0  0  0  0  0  0  0  0  0  0  0
   14.9483   -5.7638    0.0000 N   0  0  0  0  0  0  0  0  0  0  0  0
   14.9507   -6.5864    0.0000 C   0  0  0  0  0  0  0  0  0  0  0  0
   14.2313   -5.3533    0.0000 C   0  0  0  0  0  0  0  0  0  0  0  0
   17.0898   -4.5146    0.0000 C   0  0  0  0  0  0  0  0  0  0  0  0
   16.3728   -4.1041    0.0000 C   0  0  0  0  0  0  0  0  0  0  0  0
   15.6566   -4.5219    0.0000 C   0  0  0  0  0  0  0  0  0  0  0  0
   14.9395   -4.1114    0.0000 C   0  0  0  0  0  0  0  0  0  0  0  0
   14.9372   -3.2888    0.0000 C   0  0  0  0  0  0  0  0  0  0  0  0
   15.6534   -2.8710    0.0000 C   0  0  0  0  0  0  0  0  0  0  0  0
   16.3684   -3.2779    0.0000 C   0  0  0  0  0  0  0  0  0  0  0  0
   17.0810   -2.8622    0.0000 S   0  0  0  0  0  0  0  0  0  0  0  0
   17.7980   -3.2727    0.0000 C   0  0  0  0  0  0  0  0  0  0  0  0
   18.5106   -2.8570    0.0000 C   0  0  0  0  0  0  0  0  0  0  0  0
   19.2276   -3.2675    0.0000 C   0  0  0  0  0  0  0  0  0  0  0  0
   19.2299   -4.0901    0.0000 C   0  0  0  0  0  0  0  0  0  0  0  0
   18.5173   -4.5058    0.0000 C   0  0  0  0  0  0  0  0  0  0  0  0
   17.8024   -4.0989    0.0000 C   0  0  0  0  0  0  0  0  0  0  0  0
   14.2269   -4.5271    0.0000 Cl  0  0  0  0  0  0  0  0  0  0  0  0
  1  2  1  0
  2  3  1  0
  1  4  1  0
  4  5  1  0
  4  6  1  0
  7  8  1  0
  8  9  2  0
  9 10  1  0
 10 11  2  0
 11 12  1  0
 12 13  2  0
  8 13  1  0
 13 14  1  0
 14 15  1  0
 15 16  2  0
 16 17  1  0
 17 18  2  0
 18 19  1  0
 19 20  2  0
 15 20  1  0
  7 20  1  0
 10 21  1  0
  3  7  2  3
M  END
>  <Classification>  (59) 
0

>  <pchembl>  (59) 
4.11

>  <InChI_steorem>  (59) 
InChI=1S/C18H18ClNS/c1-20(2)11-5-7-14-15-6-3-4-8-17(15)21-18-10-9-13(19)12-16(14)18/h3-4,6-10,12H,5,11H2,1-2H3

>  <source>  (59) 
ChEMBL25

>  <source_id>  (59) 
25

>  <optional_reference>  (59) 
10.1021/jm8003152

>  <optional_origin>  (59) 
None

>  <target>  (59) 
OCT1

$$$$

     RDKit          2D

 22 23  0  0  0  0  0  0  0  0999 V2000
    1.7417   -4.8792    0.0000 C   0  0  0  0  0  0  0  0  0  0  0  0
    1.7417   -5.5917    0.0000 C   0  0  0  0  0  0  0  0  0  0  0  0
    2.3542   -4.5250    0.0000 C   0  0  0  0  0  0  0  0  0  0  0  0
    2.3542   -5.9500    0.0000 C   0  0  0  0  0  0  0  0  0  0  0  0
    2.9750   -4.8792    0.0000 C   0  0  0  0  0  0  0  0  0  0  0  0
    4.8042   -4.5417    0.0000 N   0  0  0  0  0  0  0  0  0  0  0  0
    8.4500   -3.7042    0.0000 C   0  0  0  0  0  0  0  0  0  0  0  0
    7.1917   -4.4667    0.0000 C   0  0  0  0  0  0  0  0  0  0  0  0
    1.1292   -4.5417    0.0000 O   0  0  0  0  0  0  0  0  0  0  0  0
    2.9750   -5.5917    0.0000 C   0  0  0  0  0  0  0  0  0  0  0  0
    1.1292   -5.9292    0.0000 O   0  0  0  0  0  0  0  0  0  0  0  0
    6.6000   -4.8375    0.0000 C   0  0  0  0  0  0  0  0  0  0  0  0
    8.4500   -4.4792    0.0000 C   0  0  0  0  0  0  0  0  0  0  0  0
    7.8292   -3.3792    0.0000 C   0  0  0  0  0  0  0  0  0  0  0  0
    7.8750   -4.8292    0.0000 C   0  0  0  0  0  0  0  0  0  0  0  0
    7.2042   -3.7542    0.0000 C   0  0  0  0  0  0  0  0  0  0  0  0
    4.2000   -4.8917    0.0000 C   0  0  0  0  0  0  0  0  0  0  0  0
    5.9917   -4.5042    0.0000 C   0  0  0  0  0  0  0  0  0  0  0  0
    9.0167   -3.2917    0.0000 O   0  0  0  0  0  0  0  0  0  0  0  0
    5.4042   -4.8792    0.0000 C   0  0  0  0  0  0  0  0  0  0  0  0
    3.5792   -4.5417    0.0000 C   0  0  0  0  0  0  0  0  0  0  0  0
    5.4042   -5.5917    0.0000 C   0  0  0  0  0  0  0  0  0  0  0  0
  2  1  2  0
  3  1  1  0
  4  2  1  0
  5  3  2  0
  6 17  1  0
  7 13  2  0
  8 12  1  0
  9  1  1  0
 10  5  1  0
 11  2  1  0
 12 18  1  0
 13 15  1  0
 14 16  2  0
 15  8  2  0
 16  8  1  0
 17 21  1  0
 18 20  1  0
 19  7  1  0
 20  6  1  0
 21  5  1  0
 22 20  1  0
 10  4  2  0
  7 14  1  0
M  END
>  <Classification>  (60) 
1

>  <pchembl>  (60) 
5.38

>  <InChI_steorem>  (60) 
InChI=1S/C18H23NO3/c1-13(2-3-14-4-7-16(20)8-5-14)19-11-10-15-6-9-17(21)18(22)12-15/h4-9,12-13,19-22H,2-3,10-11H2,1H3

>  <source>  (60) 
ChEMBL25

>  <source_id>  (60) 
25

>  <optional_reference>  (60) 
10.1021/acs.jmedchem.6b01317

>  <optional_origin>  (60) 
None

>  <target>  (60) 
OCT1

$$$$

     RDKit          2D

 21 23  0  0  0  0  0  0  0  0999 V2000
    3.0445   -1.4758    0.0000 O   0  0  0  0  0  0  0  0  0  0  0  0
    3.7534   -0.2208    0.0000 O   0  0  0  0  0  0  0  0  0  0  0  0
    5.2175   -0.1394    0.0000 O   0  0  0  0  0  0  0  0  0  0  0  0
    0.8483   -1.0574    0.0000 N   0  0  0  0  0  0  0  0  0  0  0  0
    2.3124   -1.0574    0.0000 C   0  0  0  0  0  0  0  0  0  0  0  0
    1.1272   -0.1046    0.0000 C   0  0  0  0  0  0  0  0  0  0  0  0
    1.1272   -1.9987    0.0000 C   0  0  0  0  0  0  0  0  0  0  0  0
    1.9522   -0.3021    0.0000 C   0  0  0  0  0  0  0  0  0  0  0  0
    1.9522   -1.8128    0.0000 C   0  0  0  0  0  0  0  0  0  0  0  0
    0.4765   -0.6275    0.0000 C   0  0  0  0  0  0  0  0  0  0  0  0
    0.4765   -1.4758    0.0000 C   0  0  0  0  0  0  0  0  0  0  0  0
    3.7534   -1.0574    0.0000 C   0  0  0  0  0  0  0  0  0  0  0  0
    4.4738   -1.4758    0.0000 C   0  0  0  0  0  0  0  0  0  0  0  0
    0.0000   -1.0226    0.0000 C   0  0  0  0  0  0  0  0  0  0  0  0
    4.4738   -2.3008    0.0000 C   0  0  0  0  0  0  0  0  0  0  0  0
    5.2175   -1.0574    0.0000 C   0  0  0  0  0  0  0  0  0  0  0  0
    3.7534   -2.7308    0.0000 C   0  0  0  0  0  0  0  0  0  0  0  0
    5.2175   -2.7308    0.0000 C   0  0  0  0  0  0  0  0  0  0  0  0
    3.7534   -3.5558    0.0000 C   0  0  0  0  0  0  0  0  0  0  0  0
    5.2175   -3.5558    0.0000 C   0  0  0  0  0  0  0  0  0  0  0  0
    4.4738   -3.9858    0.0000 C   0  0  0  0  0  0  0  0  0  0  0  0
  5  1  1  0
  1 12  1  0
  2 12  2  0
  3 16  1  0
  6  4  1  0
  7  4  1  0
  4 14  1  0
  5  8  1  0
  5  9  1  0
  6  8  1  0
  6 10  1  0
  7  9  1  0
  7 11  1  0
 10 11  1  0
 12 13  1  0
 13 15  1  0
 13 16  1  0
 15 17  2  0
 15 18  1  0
 17 19  1  0
 18 20  2  0
 19 21  2  0
 20 21  1  0
M  END
>  <Classification>  (61) 
0

>  <pchembl>  (61) 
4.91

>  <InChI_steorem>  (61) 
InChI=1S/C17H23NO3/c1-18-13-7-8-14(18)10-15(9-13)21-17(20)16(11-19)12-5-3-2-4-6-12/h2-6,13-16,19H,7-11H2,1H3

>  <source>  (61) 
ChEMBL25

>  <source_id>  (61) 
25

>  <optional_reference>  (61) 
10.1021/jm8003152

>  <optional_origin>  (61) 
None

>  <target>  (61) 
OCT1

$$$$

     RDKit          2D

 22 25  0  0  0  0  0  0  0  0999 V2000
    3.1316   -3.0987    0.0000 O   0  0  0  0  0  0  0  0  0  0  0  0
    1.6382   -0.7829    0.0000 N   0  0  0  0  0  0  0  0  0  0  0  0
    5.2763   -1.8684    0.0000 N   0  0  0  0  0  0  0  0  0  0  0  0
    6.1710   -0.8750    0.0000 N   0  0  0  0  0  0  0  0  0  0  0  0
    2.4276   -1.8684    0.0000 C   0  0  0  0  0  0  0  0  0  0  0  0
    2.4276   -1.0460    0.0000 C   0  0  0  0  0  0  0  0  0  0  0  0
    1.6382   -2.1184    0.0000 C   0  0  0  0  0  0  0  0  0  0  0  0
    1.1513   -1.4539    0.0000 C   0  0  0  0  0  0  0  0  0  0  0  0
    3.1316   -2.2763    0.0000 C   0  0  0  0  0  0  0  0  0  0  0  0
    3.8487   -1.8684    0.0000 C   0  0  0  0  0  0  0  0  0  0  0  0
    3.1316   -0.6250    0.0000 C   0  0  0  0  0  0  0  0  0  0  0  0
    1.3026   -2.8750    0.0000 C   0  0  0  0  0  0  0  0  0  0  0  0
    3.8487   -1.0460    0.0000 C   0  0  0  0  0  0  0  0  0  0  0  0
    0.3289   -1.5395    0.0000 C   0  0  0  0  0  0  0  0  0  0  0  0
    4.5592   -2.2763    0.0000 C   0  0  0  0  0  0  0  0  0  0  0  0
    1.3816    0.0000    0.0000 C   0  0  0  0  0  0  0  0  0  0  0  0
    0.4802   -2.9605    0.0000 C   0  0  0  0  0  0  0  0  0  0  0  0
    0.0000   -2.2961    0.0000 C   0  0  0  0  0  0  0  0  0  0  0  0
    5.3684   -1.0460    0.0000 C   0  0  0  0  0  0  0  0  0  0  0  0
    6.0329   -2.1974    0.0000 C   0  0  0  0  0  0  0  0  0  0  0  0
    6.5789   -1.5921    0.0000 C   0  0  0  0  0  0  0  0  0  0  0  0
    4.7500   -0.4868    0.0000 C   0  0  0  0  0  0  0  0  0  0  0  0
  1  9  2  0
  2  6  1  0
  2  8  1  0
  2 16  1  0
  3 15  1  0
  3 19  1  0
  3 20  1  0
  4 19  2  0
  4 21  1  0
  5  6  2  0
  5  7  1  0
  5  9  1  0
  6 11  1  0
  7  8  2  0
  7 12  1  0
  8 14  1  0
  9 10  1  0
 10 13  1  0
 10 15  1  0
 11 13  1  0
 12 17  2  0
 14 18  2  0
 17 18  1  0
 19 22  1  0
 20 21  2  0
M  END
>  <Classification>  (62) 
0

>  <pchembl>  (62) 
4.69

>  <InChI_steorem>  (62) 
InChI=1S/C18H19N3O/c1-12-19-9-10-21(12)11-13-7-8-16-17(18(13)22)14-5-3-4-6-15(14)20(16)2/h3-6,9-10,13H,7-8,11H2,1-2H3

>  <source>  (62) 
ChEMBL25

>  <source_id>  (62) 
25

>  <optional_reference>  (62) 
10.1021/jm8003152

>  <optional_origin>  (62) 
None

>  <target>  (62) 
OCT1

$$$$

     RDKit          2D

 20 23  0  0  0  0  0  0  0  0999 V2000
   -5.8961    0.3588    0.0000 C   0  0  0  0  0  0  0  0  0  0  0  0
   -6.7196    0.3637    0.0000 C   0  0  0  0  0  0  0  0  0  0  0  0
   -5.8961    1.7914    0.0000 C   0  0  0  0  0  0  0  0  0  0  0  0
   -5.4867    1.0751    0.0000 C   0  0  0  0  0  0  0  0  0  0  0  0
   -5.4770    2.5077    0.0000 N   0  0  0  0  0  0  0  0  0  0  0  0
   -7.1386    1.0751    0.0000 C   0  0  0  0  0  0  0  0  0  0  0  0
   -6.7196    1.7914    0.0000 C   0  0  0  0  0  0  0  0  0  0  0  0
   -6.3103    1.0800    0.0000 C   0  0  0  0  0  0  0  0  0  0  0  0
   -6.3054    2.5077    0.0000 C   0  0  0  0  0  0  0  0  0  0  0  0
   -7.1240   -0.3526    0.0000 C   0  0  0  0  0  0  0  0  0  0  0  0
   -7.9622    1.0751    0.0000 C   0  0  0  0  0  0  0  0  0  0  0  0
   -7.9475   -0.3575    0.0000 C   0  0  0  0  0  0  0  0  0  0  0  0
   -5.4867   -0.3428    0.0000 C   0  0  0  0  0  0  0  0  0  0  0  0
   -8.3715    0.3491    0.0000 C   0  0  0  0  0  0  0  0  0  0  0  0
   -4.7607    2.9220    0.0000 C   0  0  0  0  0  0  0  0  0  0  0  0
   -4.6584    1.0800    0.0000 C   0  0  0  0  0  0  0  0  0  0  0  0
   -8.3519   -1.0835    0.0000 O   0  0  0  0  0  0  0  0  0  0  0  0
   -9.1852   -1.0884    0.0000 C   0  0  0  0  0  0  0  0  0  0  0  0
   -4.6584   -0.3526    0.0000 C   0  0  0  0  0  0  0  0  0  0  0  0
   -4.2491    0.3637    0.0000 C   0  0  0  0  0  0  0  0  0  0  0  0
  2  1  1  0
  3  4  1  0
  4  1  1  0
  5  9  1  0
  6  2  2  0
  7  3  1  0
  1  8  1  0
  9  8  1  0
 10  2  1  0
 11  6  1  0
 12 10  2  0
 13  1  1  0
 14 12  1  0
 15  5  1  0
 16  4  1  0
 17 12  1  0
 18 17  1  0
 19 13  1  0
 20 19  1  0
 20 16  1  0
  3  5  1  0
  6  7  1  0
 14 11  2  0
M  END
>  <Classification>  (63) 
0

>  <pchembl>  (63) 
4.98

>  <InChI_steorem>  (63) 
InChI=1S/C18H25NO/c1-19-10-9-18-8-4-3-5-15(18)17(19)11-13-6-7-14(20-2)12-16(13)18/h6-7,12,15,17H,3-5,8-11H2,1-2H3

>  <source>  (63) 
ChEMBL25

>  <source_id>  (63) 
25

>  <optional_reference>  (63) 
10.1021/acs.jmedchem.6b01317

>  <optional_origin>  (63) 
None

>  <target>  (63) 
OCT1

$$$$

     RDKit          2D

 23 25  0  0  0  0  0  0  0  0999 V2000
   -3.4792    1.8652    0.0000 Cl  0  0  0  0  0  0  0  0  0  0  0  0
    0.0932    0.6277    0.0000 O   0  0  0  0  0  0  0  0  0  0  0  0
    2.2366    0.2152    0.0000 N   0  0  0  0  0  0  0  0  0  0  0  0
   -0.6213    0.2152    0.0000 C   0  0  0  0  0  0  0  0  0  0  0  0
   -1.3358    0.6277    0.0000 C   0  0  0  0  0  0  0  0  0  0  0  0
   -0.6213   -0.6098    0.0000 C   0  0  0  0  0  0  0  0  0  0  0  0
   -2.0502    0.2152    0.0000 C   0  0  0  0  0  0  0  0  0  0  0  0
   -1.3358    1.4527    0.0000 C   0  0  0  0  0  0  0  0  0  0  0  0
    0.0932   -1.0223    0.0000 C   0  0  0  0  0  0  0  0  0  0  0  0
   -1.3358   -1.0223    0.0000 C   0  0  0  0  0  0  0  0  0  0  0  0
   -2.7647    1.4527    0.0000 C   0  0  0  0  0  0  0  0  0  0  0  0
   -2.7647    0.6277    0.0000 C   0  0  0  0  0  0  0  0  0  0  0  0
   -2.0502    1.8652    0.0000 C   0  0  0  0  0  0  0  0  0  0  0  0
    0.8077    0.2152    0.0000 C   0  0  0  0  0  0  0  0  0  0  0  0
    0.0932   -1.8473    0.0000 C   0  0  0  0  0  0  0  0  0  0  0  0
   -1.3358   -1.8473    0.0000 C   0  0  0  0  0  0  0  0  0  0  0  0
    1.5221    0.6277    0.0000 C   0  0  0  0  0  0  0  0  0  0  0  0
   -0.6213   -2.2598    0.0000 C   0  0  0  0  0  0  0  0  0  0  0  0
    2.9511    0.6277    0.0000 C   0  0  0  0  0  0  0  0  0  0  0  0
    2.2366   -0.6098    0.0000 C   0  0  0  0  0  0  0  0  0  0  0  0
    3.6655    0.2152    0.0000 C   0  0  0  0  0  0  0  0  0  0  0  0
    2.9511   -1.0223    0.0000 C   0  0  0  0  0  0  0  0  0  0  0  0
    3.6655   -0.6098    0.0000 C   0  0  0  0  0  0  0  0  0  0  0  0
  1 11  1  0
  2  4  1  0
  2 14  1  0
  3 17  1  0
  3 19  1  0
  3 20  1  0
  4  5  1  0
  4  6  1  0
  5  7  2  0
  5  8  1  0
  6  9  2  0
  6 10  1  0
  7 12  1  0
  8 13  2  0
  9 15  1  0
 10 16  2  0
 11 12  2  0
 11 13  1  0
 14 17  1  0
 15 18  2  0
 16 18  1  0
 19 21  1  0
 20 22  1  0
 21 23  1  0
 22 23  1  0
M  END
>  <Classification>  (64) 
0

>  <pchembl>  (64) 
4.83

>  <InChI_steorem>  (64) 
InChI=1S/C20H24ClNO/c21-19-11-9-18(10-12-19)20(17-7-3-1-4-8-17)23-16-15-22-13-5-2-6-14-22/h1,3-4,7-12,20H,2,5-6,13-16H2

>  <source>  (64) 
ChEMBL25

>  <source_id>  (64) 
25

>  <optional_reference>  (64) 
10.1021/acs.jmedchem.6b01317

>  <optional_origin>  (64) 
None

>  <target>  (64) 
OCT1

$$$$

     RDKit          2D

 24 24  0  0  0  0  0  0  0  0999 V2000
    5.2792   -5.9042    0.0000 C   0  0  0  0  0  0  0  0  0  0  0  0
    5.3125   -5.2042    0.0000 C   0  0  0  0  0  0  0  0  0  0  0  0
    5.8917   -6.2750    0.0000 C   0  0  0  0  0  0  0  0  0  0  0  0
    2.8167   -5.8250    0.0000 C   0  0  0  0  0  0  0  0  0  0  0  0
    3.4167   -6.2042    0.0000 N   0  0  0  0  0  0  0  0  0  0  0  0
    4.6375   -6.2542    0.0000 C   0  0  0  0  0  0  0  0  0  0  0  0
    4.0417   -5.8667    0.0000 C   0  0  0  0  0  0  0  0  0  0  0  0
    5.9542   -4.9000    0.0000 O   0  0  0  0  0  0  0  0  0  0  0  0
    2.8167   -5.1125    0.0000 O   0  0  0  0  0  0  0  0  0  0  0  0
    6.5000   -5.9167    0.0000 O   0  0  0  0  0  0  0  0  0  0  0  0
    5.9875   -2.7875    0.0000 N   0  0  0  0  0  0  0  0  0  0  0  0
    4.7000   -4.8167    0.0000 C   0  0  0  0  0  0  0  0  0  0  0  0
    6.5792   -3.8417    0.0000 C   0  0  0  0  0  0  0  0  0  0  0  0
    5.9667   -4.1792    0.0000 C   0  0  0  0  0  0  0  0  0  0  0  0
    6.5917   -3.1417    0.0000 C   0  0  0  0  0  0  0  0  0  0  0  0
    4.0625   -5.1500    0.0000 C   0  0  0  0  0  0  0  0  0  0  0  0
    7.1792   -4.2042    0.0000 O   0  0  0  0  0  0  0  0  0  0  0  0
    5.3750   -3.1250    0.0000 C   0  0  0  0  0  0  0  0  0  0  0  0
    2.1917   -6.1542    0.0000 C   0  0  0  0  0  0  0  0  0  0  0  0
    5.8792   -6.9750    0.0000 C   0  0  0  0  0  0  0  0  0  0  0  0
    1.5667   -5.7875    0.0000 C   0  0  0  0  0  0  0  0  0  0  0  0
    4.7792   -2.7625    0.0000 C   0  0  0  0  0  0  0  0  0  0  0  0
    5.3917   -3.8167    0.0000 C   0  0  0  0  0  0  0  0  0  0  0  0
    0.9000   -6.1292    0.0000 C   0  0  0  0  0  0  0  0  0  0  0  0
  2  1  2  0
  3  1  1  0
  4  5  1  0
  5  7  1  0
  6  1  1  0
  7  6  2  0
  8  2  1  0
  9  4  2  0
 10  3  2  0
 11 15  1  0
 12  2  1  0
 13 14  1  0
 14  8  1  0
 15 13  1  0
 16  7  1  0
 17 13  1  0
 18 11  1  0
 19  4  1  0
 20  3  1  0
 21 19  1  0
 22 18  1  0
 23 18  1  0
 24 21  1  0
 16 12  2  0
M  END
>  <Classification>  (65) 
0

>  <pchembl>  (65) 
4.02

>  <InChI_steorem>  (65) 
InChI=1S/C18H28N2O4/c1-5-6-18(23)20-14-7-8-17(16(9-14)13(4)21)24-11-15(22)10-19-12(2)3/h7-9,12,15,19,22H,5-6,10-11H2,1-4H3,(H,20,23)

>  <source>  (65) 
ChEMBL25

>  <source_id>  (65) 
25

>  <optional_reference>  (65) 
None

>  <optional_origin>  (65) 
None

>  <target>  (65) 
OCT1

$$$$

     RDKit          2D

 20 23  0  0  0  0  0  0  0  0999 V2000
   12.4424   -8.5747    0.0000 C   0  0  0  0  0  0  0  0  0  0  0  0
   14.5820   -7.3533    0.0000 C   0  0  0  0  0  0  0  0  0  0  0  0
   12.4300   -9.4097    0.0000 C   0  0  0  0  0  0  0  0  0  0  0  0
   13.1612   -8.1634    0.0000 C   0  0  0  0  0  0  0  0  0  0  0  0
   14.5820   -8.1759    0.0000 C   0  0  0  0  0  0  0  0  0  0  0  0
   13.8590   -8.5747    0.0000 C   0  0  0  0  0  0  0  0  0  0  0  0
   11.7154   -9.8210    0.0000 C   0  0  0  0  0  0  0  0  0  0  0  0
   13.8590   -6.9295    0.0000 C   0  0  0  0  0  0  0  0  0  0  0  0
   13.1403   -7.3408    0.0000 C   0  0  0  0  0  0  0  0  0  0  0  0
   11.7320   -8.1759    0.0000 C   0  0  0  0  0  0  0  0  0  0  0  0
   13.8590   -9.4097    0.0000 C   0  0  0  0  0  0  0  0  0  0  0  0
   15.3671   -8.4376    0.0000 C   0  0  0  0  0  0  0  0  0  0  0  0
   13.1403   -9.8210    0.0000 C   0  0  0  0  0  0  0  0  0  0  0  0
   15.3671   -7.0791    0.0000 C   0  0  0  0  0  0  0  0  0  0  0  0
   11.0092   -9.3973    0.0000 C   0  0  0  0  0  0  0  0  0  0  0  0
   15.8573   -7.7646    0.0000 C   0  0  0  0  0  0  0  0  0  0  0  0
   10.2821   -9.8044    0.0000 O   0  0  0  0  0  0  0  0  0  0  0  0
   11.0216   -8.5747    0.0000 C   0  0  0  0  0  0  0  0  0  0  0  0
   14.5820   -6.5307    0.0000 C   0  0  0  0  0  0  0  0  0  0  0  0
   15.7784   -6.3686    0.0000 O   0  0  0  0  0  0  0  0  0  0  0  0
  2  8  1  0
  3  1  1  0
  4  1  1  0
  5  6  1  0
  6  4  1  0
  7  3  2  0
  8  9  1  0
  9  4  1  0
 10  1  1  0
 11  6  1  0
 12  5  1  0
 13  3  1  0
 14  2  1  0
 15 18  1  0
 16 12  1  0
 17 15  2  0
 18 10  1  0
  2 19  1  0
 14 20  1  0
 13 11  1  0
  7 15  1  0
  5  2  1  0
 16 14  1  0
M  END
>  <Classification>  (66) 
0

>  <pchembl>  (66) 
4.46

>  <InChI_steorem>  (66) 
InChI=1S/C18H26O2/c1-18-9-8-14-13-5-3-12(19)10-11(13)2-4-15(14)16(18)6-7-17(18)20/h10,13-17,20H,2-9H2,1H3

>  <source>  (66) 
ChEMBL25

>  <source_id>  (66) 
25

>  <optional_reference>  (66) 
10.1021/jm8003152

>  <optional_origin>  (66) 
None

>  <target>  (66) 
OCT1

$$$$

     RDKit          2D

 25 28  0  0  0  0  0  0  0  0999 V2000
    1.4289    0.4950    0.0000 N   0  0  0  0  0  0  0  0  0  0  0  0
   -0.7145    0.0825    0.0000 C   0  0  0  0  0  0  0  0  0  0  0  0
   -1.4289    0.4950    0.0000 N   0  0  0  0  0  0  0  0  0  0  0  0
    0.0000    0.4950    0.0000 C   0  0  0  0  0  0  0  0  0  0  0  0
    0.7145    0.0825    0.0000 C   0  0  0  0  0  0  0  0  0  0  0  0
   -2.1434    0.0825    0.0000 C   0  0  0  0  0  0  0  0  0  0  0  0
    2.1434    0.0825    0.0000 C   0  0  0  0  0  0  0  0  0  0  0  0
   -0.7145   -0.7425    0.0000 C   0  0  0  0  0  0  0  0  0  0  0  0
   -1.4289   -1.1550    0.0000 C   0  0  0  0  0  0  0  0  0  0  0  0
   -2.1434   -0.7425    0.0000 C   0  0  0  0  0  0  0  0  0  0  0  0
    0.7145   -0.7425    0.0000 C   0  0  0  0  0  0  0  0  0  0  0  0
    2.1434   -0.7425    0.0000 C   0  0  0  0  0  0  0  0  0  0  0  0
    1.4289   -1.1550    0.0000 C   0  0  0  0  0  0  0  0  0  0  0  0
    1.4289    1.3200    0.0000 C   0  0  0  0  0  0  0  0  0  0  0  0
   -1.4289    1.3200    0.0000 C   0  0  0  0  0  0  0  0  0  0  0  0
   -2.8579    0.4950    0.0000 C   0  0  0  0  0  0  0  0  0  0  0  0
    2.8579    0.4950    0.0000 C   0  0  0  0  0  0  0  0  0  0  0  0
   -2.8579   -1.1550    0.0000 C   0  0  0  0  0  0  0  0  0  0  0  0
    2.8579   -1.1550    0.0000 C   0  0  0  0  0  0  0  0  0  0  0  0
    2.1434    1.7325    0.0000 C   0  0  0  0  0  0  0  0  0  0  0  0
   -2.1434    1.7325    0.0000 C   0  0  0  0  0  0  0  0  0  0  0  0
   -3.5724    0.0825    0.0000 C   0  0  0  0  0  0  0  0  0  0  0  0
    3.5724    0.0825    0.0000 C   0  0  0  0  0  0  0  0  0  0  0  0
   -3.5724   -0.7425    0.0000 C   0  0  0  0  0  0  0  0  0  0  0  0
    3.5724   -0.7425    0.0000 C   0  0  0  0  0  0  0  0  0  0  0  0
  2  4  2  3
  3  2  1  0
  4  5  1  0
  5  1  2  0
  6  3  1  0
  7  1  1  0
  8  2  1  0
  8  9  2  0
 10  9  1  0
  5 11  1  0
 12  7  2  0
 13 11  2  0
 14  1  1  0
 15  3  1  0
 16  6  2  0
 17  7  1  0
 10 18  2  0
 19 12  1  0
 20 14  1  0
 21 15  1  0
 22 16  1  0
 23 17  2  0
 24 18  1  0
 19 25  2  0
 13 12  1  0
 23 25  1  0
 10  6  1  0
 24 22  2  0
M  CHG  1   1   1
M  END
>  <Classification>  (67) 
1

>  <pchembl>  (67) 
5.36

>  <InChI_steorem>  (67) 
InChI=1S/C23H23N2/c1-3-24-20(15-13-18-9-5-7-11-22(18)24)17-21-16-14-19-10-6-8-12-23(19)25(21)4-2/h5-17H,3-4H2,1-2H3

>  <source>  (67) 
ChEMBL25

>  <source_id>  (67) 
25

>  <optional_reference>  (67) 
10.1124/mol.51.6.913

>  <optional_origin>  (67) 
None

>  <target>  (67) 
OCT1

$$$$

     RDKit          2D

 27 29  0  0  0  0  0  0  0  0999 V2000
    1.7375   -3.0792    0.0000 C   0  0  0  0  0  0  0  0  0  0  0  0
    2.6042   -3.8000    0.0000 N   0  0  0  0  0  0  0  0  0  0  0  0
    2.4417   -3.1375    0.0000 C   0  0  0  0  0  0  0  0  0  0  0  0
    1.4750   -3.7250    0.0000 C   0  0  0  0  0  0  0  0  0  0  0  0
    0.2875   -0.5792    0.0000 N   0  0  0  0  0  0  0  0  0  0  0  0
   -0.4250   -0.5792    0.0000 C   0  0  0  0  0  0  0  0  0  0  0  0
   -1.1458   -0.5792    0.0000 C   0  0  0  0  0  0  0  0  0  0  0  0
    2.0167   -4.1750    0.0000 C   0  0  0  0  0  0  0  0  0  0  0  0
    1.3625   -2.4500    0.0000 C   0  0  0  0  0  0  0  0  0  0  0  0
   -1.4958   -1.2042    0.0000 C   0  0  0  0  0  0  0  0  0  0  0  0
    0.6417   -2.4500    0.0000 C   0  0  0  0  0  0  0  0  0  0  0  0
   -1.1458   -1.8250    0.0000 O   0  0  0  0  0  0  0  0  0  0  0  0
   -0.0708   -2.4500    0.0000 N   0  0  0  0  0  0  0  0  0  0  0  0
   -1.1458   -3.0667    0.0000 C   0  0  0  0  0  0  0  0  0  0  0  0
   -1.4958   -2.4250    0.0000 C   0  0  0  0  0  0  0  0  0  0  0  0
   -0.4250   -3.0667    0.0000 C   0  0  0  0  0  0  0  0  0  0  0  0
   -1.4958   -3.6667    0.0000 O   0  0  0  0  0  0  0  0  0  0  0  0
    0.8167   -3.9667    0.0000 C   0  0  0  0  0  0  0  0  0  0  0  0
   -1.4958    0.0375    0.0000 C   0  0  0  0  0  0  0  0  0  0  0  0
    1.9042   -4.8667    0.0000 C   0  0  0  0  0  0  0  0  0  0  0  0
    0.6417   -1.7292    0.0000 C   0  0  0  0  0  0  0  0  0  0  0  0
    0.6417   -3.1542    0.0000 C   0  0  0  0  0  0  0  0  0  0  0  0
   -2.2125   -1.2042    0.0000 C   0  0  0  0  0  0  0  0  0  0  0  0
    0.7042   -4.6667    0.0000 C   0  0  0  0  0  0  0  0  0  0  0  0
   -2.2125    0.0375    0.0000 C   0  0  0  0  0  0  0  0  0  0  0  0
    1.2500   -5.1292    0.0000 C   0  0  0  0  0  0  0  0  0  0  0  0
   -2.5708   -0.5792    0.0000 C   0  0  0  0  0  0  0  0  0  0  0  0
  2  3  1  0
  3  1  2  0
  4  1  1  0
  5  6  3  0
  6  7  1  0
  7 10  2  0
  8  4  2  0
  9  1  1  0
 10 12  1  0
 11  9  1  0
 12 15  1  0
 13 11  1  0
 14 16  1  0
 15 14  1  0
 16 13  1  0
 17 14  1  0
 18  4  1  0
 19  7  1  0
 20  8  1  0
 21 11  1  0
 22 11  1  0
 23 10  1  0
 24 18  2  0
 25 27  1  0
 26 24  1  0
 27 23  2  0
  8  2  1  0
 20 26  2  0
 19 25  2  0
M  END
>  <Classification>  (68) 
0

>  <pchembl>  (68) 
4.57

>  <InChI_steorem>  (68) 
InChI=1S/C22H25N3O2/c1-22(2,11-17-13-24-20-9-5-4-8-19(17)20)25-14-18(26)15-27-21-10-6-3-7-16(21)12-23/h3-10,13,18,24-26H,11,14-15H2,1-2H3

>  <source>  (68) 
ChEMBL25

>  <source_id>  (68) 
25

>  <optional_reference>  (68) 
10.1021/jm8003152

>  <optional_origin>  (68) 
None

>  <target>  (68) 
OCT1

$$$$

     RDKit          2D

 28 31  0  0  0  0  0  0  0  0999 V2000
    6.1981  -13.5535    0.0000 C   0  0  0  0  0  0  0  0  0  0  0  0
    5.4479   -9.0265    0.0000 C   0  0  0  0  0  0  0  0  0  0  0  0
    4.0548  -13.9747    0.0000 C   0  0  0  0  0  0  0  0  0  0  0  0
    7.6331  -13.5448    0.0000 C   0  0  0  0  0  0  0  0  0  0  0  0
    6.9058  -12.3061    0.0000 C   0  0  0  0  0  0  0  0  0  0  0  0
    6.1946  -12.7240    0.0000 C   0  0  0  0  0  0  0  0  0  0  0  0
    9.0337  -10.2349    0.0000 S   0  0  0  0  0  0  0  0  0  0  0  0
    3.3402  -13.5618    0.0000 C   0  0  0  0  0  0  0  0  0  0  0  0
    8.3179   -9.8292    0.0000 N   0  0  0  0  0  0  0  0  0  0  0  0
    5.4843  -13.9685    0.0000 N   0  0  0  0  0  0  0  0  0  0  0  0
    6.8847   -9.8380    0.0000 C   0  0  0  0  0  0  0  0  0  0  0  0
    6.1866  -11.0756    0.0000 C   0  0  0  0  0  0  0  0  0  0  0  0
    7.6255  -12.7121    0.0000 C   0  0  0  0  0  0  0  0  0  0  0  0
    3.3413  -12.7346    0.0000 C   0  0  0  0  0  0  0  0  0  0  0  0
    4.0530  -12.3218    0.0000 C   0  0  0  0  0  0  0  0  0  0  0  0
    7.6063  -10.2464    0.0000 C   0  0  0  0  0  0  0  0  0  0  0  0
    5.4788  -12.3168    0.0000 C   0  0  0  0  0  0  0  0  0  0  0  0
    5.4570   -9.8513    0.0000 O   0  0  0  0  0  0  0  0  0  0  0  0
    7.6102  -11.0722    0.0000 C   0  0  0  0  0  0  0  0  0  0  0  0
    5.4743  -11.4919    0.0000 N   0  0  0  0  0  0  0  0  0  0  0  0
    6.1759  -10.2559    0.0000 C   0  0  0  0  0  0  0  0  0  0  0  0
    8.6210  -10.9446    0.0000 O   0  0  0  0  0  0  0  0  0  0  0  0
    6.9172  -13.9633    0.0000 C   0  0  0  0  0  0  0  0  0  0  0  0
    9.4421  -10.9472    0.0000 O   0  0  0  0  0  0  0  0  0  0  0  0
    6.8985  -11.4877    0.0000 C   0  0  0  0  0  0  0  0  0  0  0  0
    4.7691  -13.5577    0.0000 C   0  0  0  0  0  0  0  0  0  0  0  0
    4.7683  -12.7309    0.0000 C   0  0  0  0  0  0  0  0  0  0  0  0
    9.7467   -9.8198    0.0000 C   0  0  0  0  0  0  0  0  0  0  0  0
 22  7  2  0
 23  4  2  0
  6 17  2  0
  3 26  2  0
 21 18  1  0
  5  6  1  0
  4 13  1  0
 11 21  2  0
 27 26  1  0
 17 20  1  0
  8  3  1  0
  7 28  1  0
 19 16  2  0
 16 11  1  0
 26 10  1  0
 27 15  2  0
  6  1  1  0
 10  1  2  0
 14  8  2  0
  7 24  2  0
 18  2  1  0
 12 25  2  0
 15 14  1  0
 13  5  2  0
 21 12  1  0
  1 23  1  0
 17 27  1  0
 20 12  1  0
 16  9  1  0
 25 19  1  0
  9  7  1  0
M  END
>  <Classification>  (69) 
1

>  <pchembl>  (69) 
5.3

>  <InChI_steorem>  (69) 
InChI=1S/C21H19N3O3S/c1-27-20-13-14(24-28(2,25)26)11-12-19(20)23-21-15-7-3-5-9-17(15)22-18-10-6-4-8-16(18)21/h3-13,24H,1-2H3,(H,22,23)

>  <source>  (69) 
ChEMBL25

>  <source_id>  (69) 
25

>  <optional_reference>  (69) 
10.1021/jm8003152

>  <optional_origin>  (69) 
None

>  <target>  (69) 
OCT1

$$$$

     RDKit          2D

 30 33  0  0  0  0  0  0  0  0999 V2000
   -1.3099   -7.0125    0.0000 S   0  0  0  0  0  0  0  0  0  0  0  0
    2.2625   -4.9500    0.0000 F   0  0  0  0  0  0  0  0  0  0  0  0
    1.1355   -4.6480    0.0000 F   0  0  0  0  0  0  0  0  0  0  0  0
    1.9605   -6.0770    0.0000 F   0  0  0  0  0  0  0  0  0  0  0  0
    3.6914   -1.6500    0.0000 O   0  0  0  0  0  0  0  0  0  0  0  0
    0.1191   -2.8875    0.0000 N   0  0  0  0  0  0  0  0  0  0  0  0
    1.5480   -2.0625    0.0000 N   0  0  0  0  0  0  0  0  0  0  0  0
   -0.5954   -5.7750    0.0000 C   0  0  0  0  0  0  0  0  0  0  0  0
   -1.3099   -5.3625    0.0000 C   0  0  0  0  0  0  0  0  0  0  0  0
   -0.5954   -6.6000    0.0000 C   0  0  0  0  0  0  0  0  0  0  0  0
   -2.0243   -5.7750    0.0000 C   0  0  0  0  0  0  0  0  0  0  0  0
   -2.0243   -6.6000    0.0000 C   0  0  0  0  0  0  0  0  0  0  0  0
    0.8335   -5.7750    0.0000 C   0  0  0  0  0  0  0  0  0  0  0  0
    0.1191   -5.3625    0.0000 C   0  0  0  0  0  0  0  0  0  0  0  0
    0.1191   -7.0125    0.0000 C   0  0  0  0  0  0  0  0  0  0  0  0
    1.5480   -5.3625    0.0000 C   0  0  0  0  0  0  0  0  0  0  0  0
    0.8335   -6.6000    0.0000 C   0  0  0  0  0  0  0  0  0  0  0  0
   -1.3099   -4.5375    0.0000 C   0  0  0  0  0  0  0  0  0  0  0  0
   -2.7388   -5.3625    0.0000 C   0  0  0  0  0  0  0  0  0  0  0  0
   -2.7388   -7.0125    0.0000 C   0  0  0  0  0  0  0  0  0  0  0  0
   -3.4533   -5.7750    0.0000 C   0  0  0  0  0  0  0  0  0  0  0  0
   -3.4533   -6.6000    0.0000 C   0  0  0  0  0  0  0  0  0  0  0  0
   -0.5954   -4.1250    0.0000 C   0  0  0  0  0  0  0  0  0  0  0  0
   -0.5954   -3.3000    0.0000 C   0  0  0  0  0  0  0  0  0  0  0  0
    0.1191   -2.0625    0.0000 C   0  0  0  0  0  0  0  0  0  0  0  0
    0.8335   -3.3000    0.0000 C   0  0  0  0  0  0  0  0  0  0  0  0
    0.8335   -1.6500    0.0000 C   0  0  0  0  0  0  0  0  0  0  0  0
    1.5480   -2.8875    0.0000 C   0  0  0  0  0  0  0  0  0  0  0  0
    2.2625   -1.6500    0.0000 C   0  0  0  0  0  0  0  0  0  0  0  0
    2.9770   -2.0625    0.0000 C   0  0  0  0  0  0  0  0  0  0  0  0
  1 10  1  0
  1 12  1  0
  2 16  1  0
  3 16  1  0
  4 16  1  0
  5 30  1  0
  6 24  1  0
  6 25  1  0
  6 26  1  0
  7 27  1  0
  7 28  1  0
  7 29  1  0
  8  9  1  0
  8 10  2  0
  8 14  1  0
  9 11  1  0
  9 18  2  3
 10 15  1  0
 11 12  2  0
 11 19  1  0
 12 20  1  0
 13 14  2  0
 13 16  1  0
 13 17  1  0
 15 17  2  0
 18 23  1  0
 19 21  2  0
 20 22  2  0
 21 22  1  0
 23 24  1  0
 25 27  1  0
 26 28  1  0
 29 30  1  0
M  END
>  <Classification>  (70) 
0

>  <pchembl>  (70) 
4.05

>  <InChI_steorem>  (70) 
InChI=1S/C23H25F3N2OS/c24-23(25,26)17-7-8-22-20(16-17)18(19-4-1-2-6-21(19)30-22)5-3-9-27-10-12-28(13-11-27)14-15-29/h1-2,4-8,16,29H,3,9-15H2

>  <source>  (70) 
ChEMBL25

>  <source_id>  (70) 
25

>  <optional_reference>  (70) 
10.1021/jm8003152

>  <optional_origin>  (70) 
None

>  <target>  (70) 
OCT1

$$$$

     RDKit          2D

 30 33  0  0  0  0  0  0  0  0999 V2000
   -2.2020   -0.7795    0.0000 O   0  0  0  0  0  0  0  0  0  0  0  0
   -0.7731   -1.6045    0.0000 O   0  0  0  0  0  0  0  0  0  0  0  0
    2.7993   -0.3670    0.0000 O   0  0  0  0  0  0  0  0  0  0  0  0
    4.2282    0.4580    0.0000 O   0  0  0  0  0  0  0  0  0  0  0  0
   -3.4594    1.6774    0.0000 N   0  0  0  0  0  0  0  0  0  0  0  0
    0.6559   -0.7795    0.0000 N   0  0  0  0  0  0  0  0  0  0  0  0
   -2.9165    0.4580    0.0000 C   0  0  0  0  0  0  0  0  0  0  0  0
   -2.3034    1.0100    0.0000 C   0  0  0  0  0  0  0  0  0  0  0  0
   -3.6310    0.8705    0.0000 C   0  0  0  0  0  0  0  0  0  0  0  0
   -2.6390    1.7637    0.0000 C   0  0  0  0  0  0  0  0  0  0  0  0
   -2.9165   -0.3670    0.0000 C   0  0  0  0  0  0  0  0  0  0  0  0
   -1.4829    0.9238    0.0000 C   0  0  0  0  0  0  0  0  0  0  0  0
   -4.3454    0.4580    0.0000 C   0  0  0  0  0  0  0  0  0  0  0  0
   -2.1540    2.4311    0.0000 C   0  0  0  0  0  0  0  0  0  0  0  0
   -3.6310   -0.7795    0.0000 C   0  0  0  0  0  0  0  0  0  0  0  0
   -4.3454   -0.3670    0.0000 C   0  0  0  0  0  0  0  0  0  0  0  0
   -0.9980    1.5912    0.0000 C   0  0  0  0  0  0  0  0  0  0  0  0
   -1.3336    2.3449    0.0000 C   0  0  0  0  0  0  0  0  0  0  0  0
   -1.4876   -0.3670    0.0000 C   0  0  0  0  0  0  0  0  0  0  0  0
   -0.7731   -0.7795    0.0000 C   0  0  0  0  0  0  0  0  0  0  0  0
    3.5137   -0.7795    0.0000 C   0  0  0  0  0  0  0  0  0  0  0  0
   -0.0586   -0.3670    0.0000 C   0  0  0  0  0  0  0  0  0  0  0  0
    4.2282   -0.3670    0.0000 C   0  0  0  0  0  0  0  0  0  0  0  0
    3.5137   -1.6045    0.0000 C   0  0  0  0  0  0  0  0  0  0  0  0
    4.9427   -0.7795    0.0000 C   0  0  0  0  0  0  0  0  0  0  0  0
    4.2282   -2.0170    0.0000 C   0  0  0  0  0  0  0  0  0  0  0  0
    4.9427   -1.6045    0.0000 C   0  0  0  0  0  0  0  0  0  0  0  0
    2.0848   -0.7795    0.0000 C   0  0  0  0  0  0  0  0  0  0  0  0
    1.3703   -0.3670    0.0000 C   0  0  0  0  0  0  0  0  0  0  0  0
    4.9427    0.8705    0.0000 C   0  0  0  0  0  0  0  0  0  0  0  0
  1 11  1  0
  1 19  1  0
  2 20  1  0
  3 21  1  0
  3 28  1  0
  4 23  1  0
  4 30  1  0
  5  9  1  0
  5 10  1  0
  6 22  1  0
  6 29  1  0
  7  8  1  0
  7  9  2  0
  7 11  1  0
  8 10  2  0
  8 12  1  0
  9 13  1  0
 10 14  1  0
 11 15  2  0
 12 17  2  0
 13 16  2  0
 14 18  2  0
 15 16  1  0
 17 18  1  0
 19 20  1  0
 20 22  1  0
 21 23  2  0
 21 24  1  0
 23 25  1  0
 24 26  2  0
 25 27  2  0
 26 27  1  0
 28 29  1  0
M  END
>  <Classification>  (71) 
1

>  <pchembl>  (71) 
5.47

>  <InChI_steorem>  (71) 
InChI=1S/C24H26N2O4/c1-28-21-10-4-5-11-22(21)29-14-13-25-15-17(27)16-30-23-12-6-9-20-24(23)18-7-2-3-8-19(18)26-20/h2-12,17,25-27H,13-16H2,1H3

>  <source>  (71) 
ChEMBL25

>  <source_id>  (71) 
25

>  <optional_reference>  (71) 
10.1021/acs.jmedchem.6b01317

>  <optional_origin>  (71) 
None

>  <target>  (71) 
OCT1

$$$$

     RDKit          2D

 33 34  0  0  0  0  0  0  0  0999 V2000
    2.9538   -0.0408    0.0000 O   0  0  0  0  0  0  0  0  0  0  0  0
    2.9538    1.6092    0.0000 O   0  0  0  0  0  0  0  0  0  0  0  0
   12.9564   -0.0408    0.0000 O   0  0  0  0  0  0  0  0  0  0  0  0
   12.9564   -1.6908    0.0000 O   0  0  0  0  0  0  0  0  0  0  0  0
    6.6366    1.3881    0.0000 N   0  0  0  0  0  0  0  0  0  0  0  0
    8.6695   -0.0408    0.0000 N   0  0  0  0  0  0  0  0  0  0  0  0
    5.8116   -0.0408    0.0000 C   0  0  0  0  0  0  0  0  0  0  0  0
    5.0972    0.3717    0.0000 C   0  0  0  0  0  0  0  0  0  0  0  0
    5.3991   -0.7553    0.0000 C   0  0  0  0  0  0  0  0  0  0  0  0
    4.3827   -0.0408    0.0000 C   0  0  0  0  0  0  0  0  0  0  0  0
    6.5261   -0.4533    0.0000 C   0  0  0  0  0  0  0  0  0  0  0  0
    3.6682    0.3717    0.0000 C   0  0  0  0  0  0  0  0  0  0  0  0
    5.0972    1.1967    0.0000 C   0  0  0  0  0  0  0  0  0  0  0  0
    6.2241    0.6736    0.0000 C   0  0  0  0  0  0  0  0  0  0  0  0
    3.6682    1.1967    0.0000 C   0  0  0  0  0  0  0  0  0  0  0  0
    4.3827    1.6092    0.0000 C   0  0  0  0  0  0  0  0  0  0  0  0
    7.2406   -0.0408    0.0000 C   0  0  0  0  0  0  0  0  0  0  0  0
    5.8116   -1.4698    0.0000 C   0  0  0  0  0  0  0  0  0  0  0  0
    4.5741   -0.7553    0.0000 C   0  0  0  0  0  0  0  0  0  0  0  0
   12.2419   -0.4533    0.0000 C   0  0  0  0  0  0  0  0  0  0  0  0
   12.2419   -1.2783    0.0000 C   0  0  0  0  0  0  0  0  0  0  0  0
   10.8129   -0.4533    0.0000 C   0  0  0  0  0  0  0  0  0  0  0  0
    7.9551   -0.4533    0.0000 C   0  0  0  0  0  0  0  0  0  0  0  0
   11.5274   -0.0408    0.0000 C   0  0  0  0  0  0  0  0  0  0  0  0
   11.5274   -1.6908    0.0000 C   0  0  0  0  0  0  0  0  0  0  0  0
   10.8129   -1.2783    0.0000 C   0  0  0  0  0  0  0  0  0  0  0  0
   10.0985   -0.0408    0.0000 C   0  0  0  0  0  0  0  0  0  0  0  0
    9.3840   -0.4533    0.0000 C   0  0  0  0  0  0  0  0  0  0  0  0
    2.2393    0.3717    0.0000 C   0  0  0  0  0  0  0  0  0  0  0  0
    2.9538    2.4342    0.0000 C   0  0  0  0  0  0  0  0  0  0  0  0
    8.6695    0.7842    0.0000 C   0  0  0  0  0  0  0  0  0  0  0  0
   12.9564    0.7842    0.0000 C   0  0  0  0  0  0  0  0  0  0  0  0
   13.6708   -1.2783    0.0000 C   0  0  0  0  0  0  0  0  0  0  0  0
  1 12  1  0
  1 29  1  0
  2 15  1  0
  2 30  1  0
  3 20  1  0
  3 32  1  0
  4 21  1  0
  4 33  1  0
  5 14  3  0
  6 23  1  0
  6 28  1  0
  6 31  1  0
  7  8  1  0
  7  9  1  0
  7 11  1  0
  7 14  1  0
  8 10  2  0
  8 13  1  0
  9 18  1  0
  9 19  1  0
 10 12  1  0
 11 17  1  0
 12 15  2  0
 13 16  2  0
 15 16  1  0
 17 23  1  0
 20 21  2  0
 20 24  1  0
 21 25  1  0
 22 24  2  0
 22 26  1  0
 22 27  1  0
 25 26  2  0
 27 28  1  0
M  END
>  <Classification>  (72) 
1

>  <pchembl>  (72) 
5.17

>  <InChI_steorem>  (72) 
InChI=1S/C27H38N2O4/c1-20(2)27(19-28,22-10-12-24(31-5)26(18-22)33-7)14-8-15-29(3)16-13-21-9-11-23(30-4)25(17-21)32-6/h9-12,17-18,20H,8,13-16H2,1-7H3

>  <source>  (72) 
ChEMBL25

>  <source_id>  (72) 
25

>  <optional_reference>  (72) 
10.1021/jm8003152

>  <optional_origin>  (72) 
None

>  <target>  (72) 
OCT1

$$$$

     RDKit          2D

 17 18  0  0  0  0  0  0  0  0999 V2000
   -0.3583    0.1208    0.0000 C   0  0  0  0  0  0  0  0  0  0  0  0
    1.5250    0.1000    0.0000 N   0  0  0  0  0  0  0  0  0  0  0  0
   -1.3208   -0.4167    0.0000 C   0  0  0  0  0  0  0  0  0  0  0  0
    0.6167   -0.3167    0.0000 C   0  0  0  0  0  0  0  0  0  0  0  0
   -2.2833    0.1625    0.0000 C   0  0  0  0  0  0  0  0  0  0  0  0
   -3.2458   -0.4167    0.0000 C   0  0  0  0  0  0  0  0  0  0  0  0
   -4.2083    0.1208    0.0000 O   0  0  0  0  0  0  0  0  0  0  0  0
   -0.3458   -0.9792    0.0000 C   0  0  0  0  0  0  0  0  0  0  0  0
   -0.6208    1.1750    0.0000 C   0  0  0  0  0  0  0  0  0  0  0  0
    2.4000   -0.4375    0.0000 C   0  0  0  0  0  0  0  0  0  0  0  0
    1.8500    1.2000    0.0000 C   0  0  0  0  0  0  0  0  0  0  0  0
   -1.3208   -1.5167    0.0000 C   0  0  0  0  0  0  0  0  0  0  0  0
   -2.2833   -2.0875    0.0000 C   0  0  0  0  0  0  0  0  0  0  0  0
   -3.2458   -1.5167    0.0000 C   0  0  0  0  0  0  0  0  0  0  0  0
    0.5750   -1.5542    0.0000 C   0  0  0  0  0  0  0  0  0  0  0  0
    0.0292    2.0958    0.0000 C   0  0  0  0  0  0  0  0  0  0  0  0
    1.1917    2.0958    0.0000 C   0  0  0  0  0  0  0  0  0  0  0  0
  2  4  1  0
  3  1  1  0
  4  1  1  0
  5  3  2  0
  6  5  1  0
  7  6  1  0
  8  1  1  0
  9  1  1  0
 10  2  1  0
 11  2  1  0
 12  3  1  0
 13 12  2  0
 14 13  1  0
 15  8  1  0
 16  9  1  0
 17 16  1  0
 11 17  1  0
  6 14  2  0
M  END
>  <Classification>  (73) 
0

>  <pchembl>  (73) 
4.72

>  <InChI_steorem>  (73) 
InChI=1S/C15H23NO/c1-3-15(9-4-5-10-16(2)12-15)13-7-6-8-14(17)11-13/h6-8,11,17H,3-5,9-10,12H2,1-2H3

>  <source>  (73) 
ChEMBL28

>  <source_id>  (73) 
28

>  <optional_reference>  (73) 
10.1021/acs.jmedchem.9b01301

>  <optional_origin>  (73) 
None

>  <target>  (73) 
OCT1

$$$$

     RDKit          2D

 18 19  0  0  0  0  0  0  0  0999 V2000
   14.0124   -8.3457    0.0000 C   0  0  0  0  0  0  0  0  0  0  0  0
   14.7248   -7.9208    0.0000 C   0  0  0  0  0  0  0  0  0  0  0  0
   13.2873   -8.7458    0.0000 C   0  0  0  0  0  0  0  0  0  0  0  0
   14.7248   -7.0958    0.0000 C   0  0  0  0  0  0  0  0  0  0  0  0
   12.5832   -8.3165    0.0000 C   0  0  0  0  0  0  0  0  0  0  0  0
   15.4374   -6.6833    0.0000 N   0  0  0  0  0  0  0  0  0  0  0  0
   13.5999   -7.6291    0.0000 O   0  0  0  0  0  0  0  0  0  0  0  0
   11.8582   -8.7208    0.0000 C   0  0  0  0  0  0  0  0  0  0  0  0
   14.0124   -9.1707    0.0000 C   0  0  0  0  0  0  0  0  0  0  0  0
   13.2749   -9.5707    0.0000 C   0  0  0  0  0  0  0  0  0  0  0  0
   15.4374   -8.3457    0.0000 C   0  0  0  0  0  0  0  0  0  0  0  0
   11.1499   -8.2957    0.0000 O   0  0  0  0  0  0  0  0  0  0  0  0
   12.5624   -9.9708    0.0000 C   0  0  0  0  0  0  0  0  0  0  0  0
   11.8457   -9.5458    0.0000 C   0  0  0  0  0  0  0  0  0  0  0  0
   15.4248   -5.8583    0.0000 C   0  0  0  0  0  0  0  0  0  0  0  0
   11.1623   -7.4707    0.0000 C   0  0  0  0  0  0  0  0  0  0  0  0
   14.7248   -9.5707    0.0000 C   0  0  0  0  0  0  0  0  0  0  0  0
   15.4374   -9.1707    0.0000 C   0  0  0  0  0  0  0  0  0  0  0  0
  2  1  1  0
  3  1  1  0
  2  4  1  0
  5  3  2  0
  6  4  1  0
  1  7  1  0
  8  5  1  0
  9  1  1  0
 10  3  1  0
 11  2  1  0
 12  8  1  0
 13 10  2  0
 14 13  1  0
 15  6  1  0
 16 12  1  0
 17  9  1  0
 18 17  1  0
 11 18  1  0
  8 14  2  0
M  END
>  <Classification>  (74) 
0

>  <pchembl>  (74) 
4.25

>  <InChI_steorem>  (74) 
InChI=1S/C15H23NO2/c1-16-11-13-6-3-4-9-15(13,17)12-7-5-8-14(10-12)18-2/h5,7-8,10,13,16-17H,3-4,6,9,11H2,1-2H3

>  <source>  (74) 
ChEMBL28

>  <source_id>  (74) 
28

>  <optional_reference>  (74) 
10.1021/acs.jmedchem.9b01301

>  <optional_origin>  (74) 
None

>  <target>  (74) 
OCT1

$$$$

     RDKit          2D

 18 19  0  0  0  0  0  0  0  0999 V2000
    4.5917   -2.6625    0.0000 C   0  0  0  0  0  0  0  0  0  0  0  0
    7.2417   -1.5375    0.0000 N   0  0  0  0  0  0  0  0  0  0  0  0
    4.5917   -3.4875    0.0000 C   0  0  0  0  0  0  0  0  0  0  0  0
    5.3125   -1.7250    0.0000 C   0  0  0  0  0  0  0  0  0  0  0  0
    5.5625   -2.2875    0.0000 C   0  0  0  0  0  0  0  0  0  0  0  0
    3.7917   -2.4500    0.0000 C   0  0  0  0  0  0  0  0  0  0  0  0
    6.4042   -2.6625    0.0000 C   0  0  0  0  0  0  0  0  0  0  0  0
    6.2792   -2.1000    0.0000 C   0  0  0  0  0  0  0  0  0  0  0  0
    3.8667   -3.8917    0.0000 O   0  0  0  0  0  0  0  0  0  0  0  0
    5.3000   -3.9042    0.0000 O   0  0  0  0  0  0  0  0  0  0  0  0
    8.0417   -1.7500    0.0000 C   0  0  0  0  0  0  0  0  0  0  0  0
    3.2042   -3.0250    0.0000 C   0  0  0  0  0  0  0  0  0  0  0  0
    3.5875   -1.6375    0.0000 C   0  0  0  0  0  0  0  0  0  0  0  0
    5.2917   -4.7292    0.0000 C   0  0  0  0  0  0  0  0  0  0  0  0
    6.0042   -5.1500    0.0000 C   0  0  0  0  0  0  0  0  0  0  0  0
    2.7875   -1.4167    0.0000 C   0  0  0  0  0  0  0  0  0  0  0  0
    2.4042   -2.8125    0.0000 C   0  0  0  0  0  0  0  0  0  0  0  0
    2.1917   -2.0000    0.0000 C   0  0  0  0  0  0  0  0  0  0  0  0
  2  7  1  0
  3  1  1  0
  4  1  1  0
  5  1  1  0
  6  1  1  0
  7  5  1  0
  8  4  1  0
  9  3  2  0
 10  3  1  0
 11  2  1  0
 12  6  2  0
 13  6  1  0
 14 10  1  0
 15 14  1  0
 16 13  2  0
 17 12  1  0
 18 16  1  0
  8  2  1  0
 17 18  2  0
M  END
>  <Classification>  (75) 
0

>  <pchembl>  (75) 
4.65

>  <InChI_steorem>  (75) 
InChI=1S/C15H21NO2/c1-3-18-14(17)15(9-11-16(2)12-10-15)13-7-5-4-6-8-13/h4-8H,3,9-12H2,1-2H3

>  <source>  (75) 
ChEMBL28

>  <source_id>  (75) 
28

>  <optional_reference>  (75) 
10.1021/acs.jmedchem.9b01301

>  <optional_origin>  (75) 
None

>  <target>  (75) 
OCT1

$$$$

     RDKit          2D

 19 22  0  0  0  0  0  0  0  0999 V2000
    6.7264   -4.7604    0.0000 C   0  0  0  0  0  0  0  0  0  0  0  0
    5.9023   -4.7604    0.0000 C   0  0  0  0  0  0  0  0  0  0  0  0
    7.1447   -4.0493    0.0000 C   0  0  0  0  0  0  0  0  0  0  0  0
    5.5008   -5.4673    0.0000 C   0  0  0  0  0  0  0  0  0  0  0  0
    7.1322   -5.4673    0.0000 C   0  0  0  0  0  0  0  0  0  0  0  0
    6.7055   -3.3339    0.0000 C   0  0  0  0  0  0  0  0  0  0  0  0
    5.5008   -4.0493    0.0000 C   0  0  0  0  0  0  0  0  0  0  0  0
    7.9688   -4.0493    0.0000 C   0  0  0  0  0  0  0  0  0  0  0  0
    5.9023   -3.3339    0.0000 C   0  0  0  0  0  0  0  0  0  0  0  0
    6.7264   -2.5057    0.0000 N   0  0  0  0  0  0  0  0  0  0  0  0
    6.3039   -4.0450    0.0000 C   0  0  0  0  0  0  0  0  0  0  0  0
    8.3830   -4.7645    0.0000 C   0  0  0  0  0  0  0  0  0  0  0  0
    7.9604   -5.4799    0.0000 C   0  0  0  0  0  0  0  0  0  0  0  0
    4.6725   -5.4673    0.0000 C   0  0  0  0  0  0  0  0  0  0  0  0
    6.3039   -3.0286    0.0000 C   0  0  0  0  0  0  0  0  0  0  0  0
    4.6725   -4.0493    0.0000 C   0  0  0  0  0  0  0  0  0  0  0  0
    4.2542   -4.7604    0.0000 C   0  0  0  0  0  0  0  0  0  0  0  0
    4.2458   -6.1952    0.0000 O   0  0  0  0  0  0  0  0  0  0  0  0
    7.1406   -1.7736    0.0000 C   0  0  0  0  0  0  0  0  0  0  0  0
  2  1  1  0
  3  1  1  0
  4  2  2  0
  5  1  1  0
  6  3  1  0
  7  2  1  0
  8  3  1  0
  9  6  1  0
 10 15  1  0
  1 11  1  0
 12 13  1  0
 13  5  1  0
 14  4  1  0
 15 11  1  0
 16  7  2  0
 17 16  1  0
 18 14  1  0
 19 10  1  0
  6 10  1  0
  8 12  1  0
  7  9  1  0
 17 14  2  0
M  END
>  <Classification>  (76) 
1

>  <pchembl>  (76) 
5.1

>  <InChI_steorem>  (76) 
InChI=1S/C17H23NO/c1-18-9-8-17-7-3-2-4-14(17)16(18)10-12-5-6-13(19)11-15(12)17/h5-6,11,14,16,19H,2-4,7-10H2,1H3

>  <source>  (76) 
ChEMBL28

>  <source_id>  (76) 
28

>  <optional_reference>  (76) 
10.1021/acs.jmedchem.9b01301

>  <optional_origin>  (76) 
None

>  <target>  (76) 
OCT1

$$$$

     RDKit          2D

 19 22  0  0  0  0  0  0  0  0999 V2000
    4.6140   -2.3187    0.0000 O   0  0  0  0  0  0  0  0  0  0  0  0
    2.3662    1.0400    0.0000 N   0  0  0  0  0  0  0  0  0  0  0  0
    3.7038    0.6731    0.0000 C   0  0  0  0  0  0  0  0  0  0  0  0
    3.8367    1.4873    0.0000 C   0  0  0  0  0  0  0  0  0  0  0  0
    3.7508   -0.3138    0.0000 C   0  0  0  0  0  0  0  0  0  0  0  0
    3.2852    1.0407    0.0000 C   0  0  0  0  0  0  0  0  0  0  0  0
    2.9450   -0.4910    0.0000 C   0  0  0  0  0  0  0  0  0  0  0  0
    2.7438    0.6624    0.0000 C   0  0  0  0  0  0  0  0  0  0  0  0
    4.3425    0.1508    0.0000 C   0  0  0  0  0  0  0  0  0  0  0  0
    3.3466    0.0876    0.0000 C   0  0  0  0  0  0  0  0  0  0  0  0
    4.6083    1.7793    0.0000 C   0  0  0  0  0  0  0  0  0  0  0  0
    4.3071   -0.9231    0.0000 C   0  0  0  0  0  0  0  0  0  0  0  0
    2.2393    0.2381    0.0000 C   0  0  0  0  0  0  0  0  0  0  0  0
    2.6956   -1.2774    0.0000 C   0  0  0  0  0  0  0  0  0  0  0  0
    5.1141    0.4428    0.0000 C   0  0  0  0  0  0  0  0  0  0  0  0
    5.2470    1.2570    0.0000 C   0  0  0  0  0  0  0  0  0  0  0  0
    4.0577   -1.7094    0.0000 C   0  0  0  0  0  0  0  0  0  0  0  0
    3.2519   -1.8866    0.0000 C   0  0  0  0  0  0  0  0  0  0  0  0
    5.4197   -2.1415    0.0000 C   0  0  0  0  0  0  0  0  0  0  0  0
  1 17  1  0
  1 19  1  0
  6  2  1  0
  2 13  1  0
  3  4  1  0
  3  5  1  0
  3  8  1  0
  3  9  1  0
  4  6  1  0
  4 11  1  0
  5  7  2  0
  5 12  1  0
  6 10  1  0
  7 10  1  0
  7 14  1  0
  8 13  1  0
  9 15  1  0
 11 16  1  0
 12 17  2  0
 14 18  2  0
 15 16  1  0
 17 18  1  0
M  END
>  <Classification>  (77) 
1

>  <pchembl>  (77) 
5.0

>  <InChI_steorem>  (77) 
InChI=1S/C17H23NO/c1-19-13-6-5-12-10-16-14-4-2-3-7-17(14,8-9-18-16)15(12)11-13/h5-6,11,14,16,18H,2-4,7-10H2,1H3

>  <source>  (77) 
ChEMBL28

>  <source_id>  (77) 
28

>  <optional_reference>  (77) 
10.1021/acs.jmedchem.9b01301

>  <optional_origin>  (77) 
None

>  <target>  (77) 
OCT1

$$$$

     RDKit          2D

 25 27  0  0  0  0  0  0  0  0999 V2000
    2.3167   -0.7542    0.0000 N   0  0  0  0  0  0  0  0  0  0  0  0
    4.5500   -1.4167    0.0000 N   0  0  0  0  0  0  0  0  0  0  0  0
    5.2625   -1.8292    0.0000 C   0  0  0  0  0  0  0  0  0  0  0  0
    3.9667   -2.0042    0.0000 C   0  0  0  0  0  0  0  0  0  0  0  0
    3.4417   -1.5792    0.0000 C   0  0  0  0  0  0  0  0  0  0  0  0
    3.8292   -1.1875    0.0000 C   0  0  0  0  0  0  0  0  0  0  0  0
    2.8917   -1.2000    0.0000 C   0  0  0  0  0  0  0  0  0  0  0  0
    2.4625   -1.5792    0.0000 C   0  0  0  0  0  0  0  0  0  0  0  0
    5.3750   -2.6542    0.0000 O   0  0  0  0  0  0  0  0  0  0  0  0
    4.5500   -0.5917    0.0000 C   0  0  0  0  0  0  0  0  0  0  0  0
    1.8292   -1.4167    0.0000 C   0  0  0  0  0  0  0  0  0  0  0  0
    1.0125   -1.3292    0.0000 C   0  0  0  0  0  0  0  0  0  0  0  0
    0.5167   -1.9917    0.0000 C   0  0  0  0  0  0  0  0  0  0  0  0
    5.8500   -1.2417    0.0000 C   0  0  0  0  0  0  0  0  0  0  0  0
    3.8292   -0.1917    0.0000 C   0  0  0  0  0  0  0  0  0  0  0  0
    5.2625   -0.1792    0.0000 C   0  0  0  0  0  0  0  0  0  0  0  0
   -0.3000   -1.9000    0.0000 C   0  0  0  0  0  0  0  0  0  0  0  0
    0.8500   -2.7417    0.0000 C   0  0  0  0  0  0  0  0  0  0  0  0
    6.6417   -1.4542    0.0000 C   0  0  0  0  0  0  0  0  0  0  0  0
    3.8250    0.6333    0.0000 C   0  0  0  0  0  0  0  0  0  0  0  0
    5.2542    0.6458    0.0000 C   0  0  0  0  0  0  0  0  0  0  0  0
    0.3667   -3.4125    0.0000 C   0  0  0  0  0  0  0  0  0  0  0  0
   -0.7958   -2.5625    0.0000 C   0  0  0  0  0  0  0  0  0  0  0  0
    4.5417    1.0500    0.0000 C   0  0  0  0  0  0  0  0  0  0  0  0
   -0.4625   -3.3167    0.0000 C   0  0  0  0  0  0  0  0  0  0  0  0
  2  4  1  0
  3  2  1  0
  4  5  1  0
  5  8  1  0
  6  7  1  0
  7  1  1  0
  8  1  1  0
  9  3  2  0
 10  2  1  0
 11  1  1  0
 12 11  1  0
 13 12  1  0
 14  3  1  0
 15 10  2  0
 16 10  1  0
 17 13  2  0
 18 13  1  0
 19 14  1  0
 20 15  1  0
 21 16  2  0
 22 18  2  0
 23 17  1  0
 24 21  1  0
 25 22  1  0
  6  4  1  0
 25 23  2  0
 20 24  2  0
M  END
>  <Classification>  (78) 
0

>  <pchembl>  (78) 
4.34

>  <InChI_steorem>  (78) 
InChI=1S/C22H28N2O/c1-2-22(25)24(20-11-7-4-8-12-20)21-14-17-23(18-15-21)16-13-19-9-5-3-6-10-19/h3-12,21H,2,13-18H2,1H3

>  <source>  (78) 
ChEMBL28

>  <source_id>  (78) 
28

>  <optional_reference>  (78) 
10.1021/acs.jmedchem.9b01301

>  <optional_origin>  (78) 
None

>  <target>  (78) 
OCT1

$$$$

     RDKit          2D

 27 29  0  0  0  0  0  0  0  0999 V2000
   -1.3542   -0.0125    0.0000 N   0  0  0  0  0  0  0  0  0  0  0  0
   -0.7417   -0.3542    0.0000 C   0  0  0  0  0  0  0  0  0  0  0  0
   -1.3542    0.6958    0.0000 C   0  0  0  0  0  0  0  0  0  0  0  0
    0.4708   -1.0625    0.0000 N   0  0  0  0  0  0  0  0  0  0  0  0
    2.3042   -1.4667    0.0000 C   0  0  0  0  0  0  0  0  0  0  0  0
    2.9042   -1.0625    0.0000 S   0  0  0  0  0  0  0  0  0  0  0  0
   -0.7417   -1.0625    0.0000 C   0  0  0  0  0  0  0  0  0  0  0  0
   -0.1292    0.0083    0.0000 C   0  0  0  0  0  0  0  0  0  0  0  0
    3.4542   -1.4667    0.0000 C   0  0  0  0  0  0  0  0  0  0  0  0
    2.5458   -2.1292    0.0000 C   0  0  0  0  0  0  0  0  0  0  0  0
   -1.9542    1.0458    0.0000 O   0  0  0  0  0  0  0  0  0  0  0  0
   -1.9708   -0.3542    0.0000 C   0  0  0  0  0  0  0  0  0  0  0  0
    1.6708   -1.0875    0.0000 C   0  0  0  0  0  0  0  0  0  0  0  0
    3.2167   -2.1292    0.0000 C   0  0  0  0  0  0  0  0  0  0  0  0
    0.4708   -0.3417    0.0000 C   0  0  0  0  0  0  0  0  0  0  0  0
   -0.1292   -1.4125    0.0000 C   0  0  0  0  0  0  0  0  0  0  0  0
    1.0708   -1.4167    0.0000 C   0  0  0  0  0  0  0  0  0  0  0  0
   -0.7417    0.3583    0.0000 C   0  0  0  0  0  0  0  0  0  0  0  0
   -0.7417    1.0625    0.0000 C   0  0  0  0  0  0  0  0  0  0  0  0
   -0.1292    0.7250    0.0000 O   0  0  0  0  0  0  0  0  0  0  0  0
   -2.6042    0.0083    0.0000 C   0  0  0  0  0  0  0  0  0  0  0  0
   -1.9708   -1.0875    0.0000 C   0  0  0  0  0  0  0  0  0  0  0  0
    0.4708    0.3750    0.0000 C   0  0  0  0  0  0  0  0  0  0  0  0
   -0.7417    1.7583    0.0000 C   0  0  0  0  0  0  0  0  0  0  0  0
   -3.2292   -0.3542    0.0000 C   0  0  0  0  0  0  0  0  0  0  0  0
   -2.6042   -1.4625    0.0000 C   0  0  0  0  0  0  0  0  0  0  0  0
   -3.2292   -1.0875    0.0000 C   0  0  0  0  0  0  0  0  0  0  0  0
  2  1  1  0
  3  1  1  0
  4 15  1  0
  5 13  1  0
  6  5  1  0
  7  2  1  0
  8  2  1  0
  9  6  1  0
 10  5  2  0
 11  3  2  0
 12  1  1  0
 13 17  1  0
 14 10  1  0
 15  8  1  0
 16  7  1  0
 17  4  1  0
 18  2  1  0
 19  3  1  0
 20 18  1  0
 21 12  2  0
 22 12  1  0
 23 20  1  0
 24 19  1  0
 25 21  1  0
 26 22  2  0
 27 26  1  0
  4 16  1  0
 27 25  2  0
  9 14  2  0
M  END
>  <Classification>  (79) 
0

>  <pchembl>  (79) 
4.71

>  <InChI_steorem>  (79) 
InChI=1S/C22H30N2O2S/c1-3-21(25)24(19-8-5-4-6-9-19)22(18-26-2)12-15-23(16-13-22)14-11-20-10-7-17-27-20/h4-10,17H,3,11-16,18H2,1-2H3

>  <source>  (79) 
ChEMBL28

>  <source_id>  (79) 
28

>  <optional_reference>  (79) 
10.1021/acs.jmedchem.9b01301

>  <optional_origin>  (79) 
None

>  <target>  (79) 
OCT1

$$$$
