
     RDKit          2D

 36 39  0  0  0  0  0  0  0  0999 V2000
    2.4208  -20.9750    0.0000 C   0  0  0  0  0  0  0  0  0  0  0  0
    1.7049  -20.5625    0.0000 C   0  0  0  0  0  0  0  0  0  0  0  0
    1.7049  -19.7375    0.0000 N   0  0  0  0  0  0  0  0  0  0  0  0
    2.4208  -19.3250    0.0000 C   0  0  0  0  0  0  0  0  0  0  0  0
    3.1325  -19.7375    0.0000 C   0  0  0  0  0  0  0  0  0  0  0  0
    3.8483  -19.3250    0.0000 O   0  0  0  0  0  0  0  0  0  0  0  0
   -1.8703  -18.5000    0.0000 C   0  0  0  0  0  0  0  0  0  0  0  0
   -1.8703  -19.3250    0.0000 N   0  0  0  0  0  0  0  0  0  0  0  0
   -1.1544  -19.7375    0.0000 C   0  0  0  0  0  0  0  0  0  0  0  0
   -0.4385  -19.3250    0.0000 C   0  0  0  0  0  0  0  0  0  0  0  0
   -0.4385  -18.5000    0.0000 C   0  0  0  0  0  0  0  0  0  0  0  0
   -1.1544  -18.0875    0.0000 N   0  0  0  0  0  0  0  0  0  0  0  0
    0.9890  -19.3250    0.0000 C   0  0  0  0  0  0  0  0  0  0  0  0
    0.9890  -18.5000    0.0000 N   0  0  0  0  0  0  0  0  0  0  0  0
    0.2773  -18.0875    0.0000 C   0  0  0  0  0  0  0  0  0  0  0  0
    0.2773  -19.7375    0.0000 N   0  0  0  0  0  0  0  0  0  0  0  0
    0.2773  -17.2625    0.0000 N   0  0  0  0  0  0  0  0  0  0  0  0
   -0.4385  -16.8500    0.0000 C   0  0  0  0  0  0  0  0  0  0  0  0
   -0.4385  -16.0250    0.0000 C   0  0  0  0  0  0  0  0  0  0  0  0
    0.2773  -15.6125    0.0000 C   0  0  0  0  0  0  0  0  0  0  0  0
    0.9890  -16.0250    0.0000 C   0  0  0  0  0  0  0  0  0  0  0  0
    0.9890  -16.8500    0.0000 C   0  0  0  0  0  0  0  0  0  0  0  0
   -1.1544  -20.5625    0.0000 N   0  0  0  0  0  0  0  0  0  0  0  0
   -0.4385  -20.9750    0.0000 C   0  0  0  0  0  0  0  0  0  0  0  0
   -0.4385  -21.8000    0.0000 C   0  0  0  0  0  0  0  0  0  0  0  0
   -1.1544  -22.2125    0.0000 C   0  0  0  0  0  0  0  0  0  0  0  0
   -1.8703  -21.8000    0.0000 C   0  0  0  0  0  0  0  0  0  0  0  0
   -1.8703  -20.9750    0.0000 C   0  0  0  0  0  0  0  0  0  0  0  0
   -2.5820  -18.0875    0.0000 N   0  0  0  0  0  0  0  0  0  0  0  0
   -3.2978  -18.5000    0.0000 C   0  0  0  0  0  0  0  0  0  0  0  0
   -4.0095  -18.0875    0.0000 C   0  0  0  0  0  0  0  0  0  0  0  0
   -4.7254  -18.5000    0.0000 O   0  0  0  0  0  0  0  0  0  0  0  0
   -2.5820  -17.2625    0.0000 C   0  0  0  0  0  0  0  0  0  0  0  0
   -3.2978  -16.8500    0.0000 C   0  0  0  0  0  0  0  0  0  0  0  0
   -4.0095  -17.2625    0.0000 O   0  0  0  0  0  0  0  0  0  0  0  0
    3.1325  -20.5625    0.0000 O   0  0  0  0  0  0  0  0  0  0  0  0
  1  2  1  0
  4  5  1  0
  5  6  1  0
  3  4  1  0
  7  8  2  0
  8  9  1  0
  9 10  2  0
 10 11  1  0
 11 12  2  0
  7 12  1  0
 13 14  1  0
 14 15  2  0
 13 16  2  0
 10 16  1  0
 11 15  1  0
 17 18  1  0
 18 19  1  0
 19 20  1  0
 20 21  1  0
 21 22  1  0
 17 22  1  0
 15 17  1  0
 23 24  1  0
 24 25  1  0
 25 26  1  0
 26 27  1  0
 27 28  1  0
 23 28  1  0
  9 23  1  0
 30 31  1  0
 31 32  1  0
 29 30  1  0
 33 34  1  0
 34 35  1  0
 29 33  1  0
  7 29  1  0
  3 13  1  0
  2  3  1  0
  1 36  1  0
M  END
>  <Classification>  (1) 
1

>  <pchembl>  (1) 
5.58

>  <InChI_steorem>  (1) 
InChI=1S/C24H40N8O4/c33-15-11-31(12-16-34)23-26-20-19(21(27-23)29-7-3-1-4-8-29)25-24(32(13-17-35)14-18-36)28-22(20)30-9-5-2-6-10-30/h33-36H,1-18H2

>  <source>  (1) 
ChEMBL25

>  <source_id>  (1) 
25

>  <optional_reference>  (1) 
10.1021/jm2001629

>  <optional_origin>  (1) 
None

>  <target>  (1) 
OCT2

$$$$

     RDKit          2D

 25 26  0  0  0  0  0  0  0  0999 V2000
  -15.5875   -1.5348    0.0000 C   0  0  0  0  0  0  0  0  0  0  0  0
    2.5973   -1.5031    0.0000 C   0  0  0  0  0  0  0  0  0  0  0  0
    1.2990   -0.7500    0.0000 C   0  0  0  0  0  0  0  0  0  0  0  0
  -14.2919   -0.7772    0.0000 C   0  0  0  0  0  0  0  0  0  0  0  0
  -15.5816   -2.7348    0.0000 N   0  0  0  0  0  0  0  0  0  0  0  0
    2.5956   -2.7031    0.0000 N   0  0  0  0  0  0  0  0  0  0  0  0
    1.2990    0.7500    0.0000 C   0  0  0  0  0  0  0  0  0  0  0  0
  -14.2971    0.7228    0.0000 C   0  0  0  0  0  0  0  0  0  0  0  0
  -12.9903   -1.5227    0.0000 C   0  0  0  0  0  0  0  0  0  0  0  0
    0.0000   -1.5000    0.0000 C   0  0  0  0  0  0  0  0  0  0  0  0
    3.6375   -0.9049    0.0000 N   0  0  0  0  0  0  0  0  0  0  0  0
  -16.6298   -0.9402    0.0000 N   0  0  0  0  0  0  0  0  0  0  0  0
   -1.2990    0.7500    0.0000 C   0  0  0  0  0  0  0  0  0  0  0  0
  -11.6990    0.7318    0.0000 C   0  0  0  0  0  0  0  0  0  0  0  0
    0.0000    1.5000    0.0000 C   0  0  0  0  0  0  0  0  0  0  0  0
  -13.0006    1.4773    0.0000 C   0  0  0  0  0  0  0  0  0  0  0  0
   -1.2990   -0.7500    0.0000 C   0  0  0  0  0  0  0  0  0  0  0  0
  -11.6938   -0.7682    0.0000 C   0  0  0  0  0  0  0  0  0  0  0  0
   -2.6003    1.4977    0.0000 O   0  0  0  0  0  0  0  0  0  0  0  0
  -10.4003    1.4841    0.0000 O   0  0  0  0  0  0  0  0  0  0  0  0
   -9.0990    0.7364    0.0000 C   0  0  0  0  0  0  0  0  0  0  0  0
   -3.8990    0.7455    0.0000 C   0  0  0  0  0  0  0  0  0  0  0  0
   -5.2003    1.4932    0.0000 C   0  0  0  0  0  0  0  0  0  0  0  0
   -7.8003    1.4887    0.0000 C   0  0  0  0  0  0  0  0  0  0  0  0
   -6.4990    0.7409    0.0000 C   0  0  0  0  0  0  0  0  0  0  0  0
  2  3  1  0
  1  4  1  0
  1  5  2  0
  2  6  2  0
  3  7  2  0
  4  8  2  0
  4  9  1  0
  3 10  1  0
  2 11  1  0
  1 12  1  0
  7 15  1  0
 13 15  2  0
  8 16  1  0
 14 16  2  0
 10 17  2  0
 13 17  1  0
  9 18  2  0
 14 18  1  0
 13 19  1  0
 14 20  1  0
 20 21  1  0
 19 22  1  0
 22 23  1  0
 21 24  1  0
 23 25  1  0
 24 25  1  0
M  END
>  <Classification>  (2) 
1

>  <pchembl>  (2) 
5.92

>  <InChI_steorem>  (2) 
InChI=1S/C19H24N4O2/c20-18(21)14-4-8-16(9-5-14)24-12-2-1-3-13-25-17-10-6-15(7-11-17)19(22)23/h4-11H,1-3,12-13H2,(H3,20,21)(H3,22,23)

>  <source>  (2) 
ChEMBL25

>  <source_id>  (2) 
25

>  <optional_reference>  (2) 
10.1021/jm301302s

>  <optional_origin>  (2) 
None

>  <target>  (2) 
OCT2

$$$$

     RDKit          2D

 25 26  0  0  0  0  0  0  0  0999 V2000
    2.7771   -1.0106    0.0000 C   0  0  0  0  0  0  0  0  0  0  0  0
    1.7946   -2.1834    0.0000 C   0  0  0  0  0  0  0  0  0  0  0  0
    3.2929   -2.4200    0.0000 C   0  0  0  0  0  0  0  0  0  0  0  0
    5.2871   -4.0883    0.0000 N   0  0  0  0  0  0  0  0  0  0  0  0
    4.7712   -2.6789    0.0000 C   0  0  0  0  0  0  0  0  0  0  0  0
    1.2990   -0.7500    0.0000 C   0  0  0  0  0  0  0  0  0  0  0  0
    3.7424    0.1386    0.0000 C   0  0  0  0  0  0  0  0  0  0  0  0
    1.2990    0.7500    0.0000 N   0  0  0  0  0  0  0  0  0  0  0  0
    2.2052   -3.3109    0.0000 O   0  0  0  0  0  0  0  0  0  0  0  0
    0.6127   -1.9756    0.0000 N   0  0  0  0  0  0  0  0  0  0  0  0
    6.7654   -4.3473    0.0000 C   0  0  0  0  0  0  0  0  0  0  0  0
    4.3216   -5.2375    0.0000 C   0  0  0  0  0  0  0  0  0  0  0  0
    0.0000    1.5000    0.0000 C   0  0  0  0  0  0  0  0  0  0  0  0
    0.0000   -1.5000    0.0000 C   0  0  0  0  0  0  0  0  0  0  0  0
    5.2195   -0.1226    0.0000 C   0  0  0  0  0  0  0  0  0  0  0  0
    3.2302    1.5484    0.0000 C   0  0  0  0  0  0  0  0  0  0  0  0
    7.1778   -5.4742    0.0000 C   0  0  0  0  0  0  0  0  0  0  0  0
    3.1399   -5.0291    0.0000 C   0  0  0  0  0  0  0  0  0  0  0  0
    4.7318   -6.3652    0.0000 C   0  0  0  0  0  0  0  0  0  0  0  0
    7.5354   -3.4269    0.0000 C   0  0  0  0  0  0  0  0  0  0  0  0
   -1.2990    0.7500    0.0000 C   0  0  0  0  0  0  0  0  0  0  0  0
    6.1843    1.0259    0.0000 C   0  0  0  0  0  0  0  0  0  0  0  0
    4.1949    2.6970    0.0000 C   0  0  0  0  0  0  0  0  0  0  0  0
   -1.2990   -0.7500    0.0000 C   0  0  0  0  0  0  0  0  0  0  0  0
    5.6720    2.4357    0.0000 C   0  0  0  0  0  0  0  0  0  0  0  0
  2  1  1  0
  3  1  1  0
  4  5  1  0
  5  3  1  0
  6  1  1  0
  7  1  1  0
  8  6  2  0
  9  2  2  0
 10  2  1  0
 11  4  1  0
 12  4  1  0
 13  8  1  0
 14  6  1  0
 15  7  2  0
 16  7  1  0
 17 11  1  0
 18 12  1  0
 19 12  1  0
 20 11  1  0
 21 13  2  0
 22 15  1  0
 23 16  2  0
 24 14  2  0
 25 22  2  0
 24 21  1  0
 23 25  1  0
M  END
>  <Classification>  (3) 
1

>  <pchembl>  (3) 
5.54

>  <InChI_steorem>  (3) 
InChI=1S/C21H29N3O/c1-16(2)24(17(3)4)15-13-21(20(22)25,18-10-6-5-7-11-18)19-12-8-9-14-23-19/h5-12,14,16-17H,13,15H2,1-4H3,(H2,22,25)

>  <source>  (3) 
ChEMBL25

>  <source_id>  (3) 
25

>  <optional_reference>  (3) 
10.1021/jm2001629

>  <optional_origin>  (3) 
None

>  <target>  (3) 
OCT2

$$$$

     RDKit          2D

 22 25  0  0  0  0  0  0  0  0999 V2000
    2.0440    1.7885    0.0000 C   0  0  0  0  0  0  0  0  0  0  0  0
    2.0440    0.3467    0.0000 C   0  0  0  0  0  0  0  0  0  0  0  0
    0.8030   -0.3650    0.0000 C   0  0  0  0  0  0  0  0  0  0  0  0
   -0.4380    0.3285    0.0000 C   0  0  0  0  0  0  0  0  0  0  0  0
   -1.6790   -0.3832    0.0000 C   0  0  0  0  0  0  0  0  0  0  0  0
   -1.6790   -1.8250    0.0000 C   0  0  0  0  0  0  0  0  0  0  0  0
    0.8030    2.5185    0.0000 C   0  0  0  0  0  0  0  0  0  0  0  0
   -0.4562    1.7885    0.0000 C   0  0  0  0  0  0  0  0  0  0  0  0
    0.8212   -1.8067    0.0000 C   0  0  0  0  0  0  0  0  0  0  0  0
    4.5625    0.3285    0.0000 C   0  0  0  0  0  0  0  0  0  0  0  0
   -2.9565    0.3102    0.0000 C   0  0  0  0  0  0  0  0  0  0  0  0
    3.3032    2.5367    0.0000 C   0  0  0  0  0  0  0  0  0  0  0  0
   -0.4197   -2.5550    0.0000 C   0  0  0  0  0  0  0  0  0  0  0  0
   -2.9382   -2.5732    0.0000 C   0  0  0  0  0  0  0  0  0  0  0  0
    4.5625    1.8067    0.0000 C   0  0  0  0  0  0  0  0  0  0  0  0
   -4.1792   -1.8432    0.0000 C   0  0  0  0  0  0  0  0  0  0  0  0
   -4.1792   -0.4015    0.0000 C   0  0  0  0  0  0  0  0  0  0  0  0
    2.0413    2.9885    0.0000 C   0  0  0  0  0  0  0  0  0  0  0  0
    3.3371    1.3372    0.0000 O   0  0  0  0  0  0  0  0  0  0  0  0
   -5.2209   -2.4390    0.0000 O   0  0  0  0  0  0  0  0  0  0  0  0
    4.5984    3.2544    0.0000 C   0  0  0  0  0  0  0  0  0  0  0  0
    5.6339    3.8610    0.0000 C   0  0  0  0  0  0  0  0  0  0  0  0
  2  1  1  0
  3  2  1  0
  4  8  1  0
  5  4  1  0
  6  5  2  0
  7  1  1  0
  8  7  1  0
  9  3  1  0
 10  2  1  0
 11  5  1  0
 12  1  1  0
 13  9  1  0
 14  6  1  0
 15 12  1  0
 16 17  1  0
 17 11  2  0
  1 18  1  0
 12 19  1  0
 20 16  1  0
 10 15  1  0
  3  4  1  0
  6 13  1  0
 14 16  2  0
 12 21  1  0
 21 22  3  0
M  END
>  <Classification>  (4) 
1

>  <pchembl>  (4) 
5.66

>  <InChI_steorem>  (4) 
InChI=1S/C20H24O2/c1-3-20(22)11-9-18-17-6-4-13-12-14(21)5-7-15(13)16(17)8-10-19(18,20)2/h1,5,7,12,16-18,21-22H,4,6,8-11H2,2H3

>  <source>  (4) 
ChEMBL25

>  <source_id>  (4) 
25

>  <optional_reference>  (4) 
10.1021/jm301302s

>  <optional_origin>  (4) 
None

>  <target>  (4) 
OCT2

$$$$

     RDKit          2D

 11 11  0  0  0  0  0  0  0  0999 V2000
    6.7792   -8.5667    0.0000 C   0  0  0  0  0  0  0  0  0  0  0  0
    6.7875   -7.7417    0.0000 N   0  0  0  0  0  0  0  0  0  0  0  0
    6.0667   -8.9792    0.0000 N   0  0  0  0  0  0  0  0  0  0  0  0
    5.3542   -8.5667    0.0000 C   0  0  0  0  0  0  0  0  0  0  0  0
    4.6417   -8.9792    0.0000 C   0  0  0  0  0  0  0  0  0  0  0  0
    7.5000   -8.9792    0.0000 N   0  0  0  0  0  0  0  0  0  0  0  0
    3.9292   -8.5667    0.0000 C   0  0  0  0  0  0  0  0  0  0  0  0
    3.2167   -8.9792    0.0000 Cl  0  0  0  0  0  0  0  0  0  0  0  0
    4.6417   -7.3292    0.0000 C   0  0  0  0  0  0  0  0  0  0  0  0
    5.3542   -7.7417    0.0000 C   0  0  0  0  0  0  0  0  0  0  0  0
    3.9292   -7.7417    0.0000 C   0  0  0  0  0  0  0  0  0  0  0  0
  2  1  2  0
  3  1  1  0
  4  3  1  0
  5  4  2  0
  6  1  1  0
  7  5  1  0
  8  7  1  0
  9 10  2  0
 10  4  1  0
 11  9  1  0
  7 11  2  0
M  END
>  <Classification>  (5) 
0

>  <pchembl>  (5) 
4.22

>  <InChI_steorem>  (5) 
InChI=1S/C7H8ClN3/c8-5-2-1-3-6(4-5)11-7(9)10/h1-4H,(H4,9,10,11)

>  <source>  (5) 
ChEMBL25

>  <source_id>  (5) 
25

>  <optional_reference>  (5) 
10.1016/j.bmcl.2017.08.008

>  <optional_origin>  (5) 
None

>  <target>  (5) 
OCT2

$$$$

     RDKit          2D

 11 11  0  0  0  0  0  0  0  0999 V2000
    6.7792   -8.5667    0.0000 C   0  0  0  0  0  0  0  0  0  0  0  0
    6.7875   -7.7417    0.0000 N   0  0  0  0  0  0  0  0  0  0  0  0
    6.0667   -8.9792    0.0000 N   0  0  0  0  0  0  0  0  0  0  0  0
    7.5000   -8.9792    0.0000 N   0  0  0  0  0  0  0  0  0  0  0  0
    5.3542   -8.5667    0.0000 C   0  0  0  0  0  0  0  0  0  0  0  0
    3.9292   -7.7417    0.0000 C   0  0  0  0  0  0  0  0  0  0  0  0
    3.2167   -7.3292    0.0000 Cl  0  0  0  0  0  0  0  0  0  0  0  0
    5.3542   -7.7417    0.0000 C   0  0  0  0  0  0  0  0  0  0  0  0
    4.6417   -8.9792    0.0000 C   0  0  0  0  0  0  0  0  0  0  0  0
    4.6417   -7.3292    0.0000 C   0  0  0  0  0  0  0  0  0  0  0  0
    3.9292   -8.5667    0.0000 C   0  0  0  0  0  0  0  0  0  0  0  0
  2  1  2  0
  3  1  1  0
  4  1  1  0
  5  3  1  0
  6 11  1  0
  7  6  1  0
  8  5  2  0
  9  5  1  0
 10  8  1  0
 11  9  2  0
 10  6  2  0
M  END
>  <Classification>  (6) 
0

>  <pchembl>  (6) 
4.72

>  <InChI_steorem>  (6) 
InChI=1S/C7H8ClN3/c8-5-1-3-6(4-2-5)11-7(9)10/h1-4H,(H4,9,10,11)

>  <source>  (6) 
ChEMBL25

>  <source_id>  (6) 
25

>  <optional_reference>  (6) 
10.1016/j.bmcl.2017.08.008

>  <optional_origin>  (6) 
None

>  <target>  (6) 
OCT2

$$$$

     RDKit          2D

 11 11  0  0  0  0  0  0  0  0999 V2000
    6.7792   -8.5667    0.0000 C   0  0  0  0  0  0  0  0  0  0  0  0
    6.7875   -7.7417    0.0000 N   0  0  0  0  0  0  0  0  0  0  0  0
    6.0667   -8.9792    0.0000 N   0  0  0  0  0  0  0  0  0  0  0  0
    7.5000   -8.9792    0.0000 N   0  0  0  0  0  0  0  0  0  0  0  0
    5.3542   -8.5667    0.0000 C   0  0  0  0  0  0  0  0  0  0  0  0
    3.9292   -7.7417    0.0000 C   0  0  0  0  0  0  0  0  0  0  0  0
    3.2167   -7.3292    0.0000 F   0  0  0  0  0  0  0  0  0  0  0  0
    5.3542   -7.7417    0.0000 C   0  0  0  0  0  0  0  0  0  0  0  0
    4.6417   -8.9792    0.0000 C   0  0  0  0  0  0  0  0  0  0  0  0
    4.6417   -7.3292    0.0000 C   0  0  0  0  0  0  0  0  0  0  0  0
    3.9292   -8.5667    0.0000 C   0  0  0  0  0  0  0  0  0  0  0  0
  2  1  2  0
  3  1  1  0
  4  1  1  0
  5  3  1  0
  6 11  1  0
  7  6  1  0
  8  5  2  0
  9  5  1  0
 10  8  1  0
 11  9  2  0
  6 10  2  0
M  END
>  <Classification>  (7) 
0

>  <pchembl>  (7) 
4.32

>  <InChI_steorem>  (7) 
InChI=1S/C7H8FN3/c8-5-1-3-6(4-2-5)11-7(9)10/h1-4H,(H4,9,10,11)

>  <source>  (7) 
ChEMBL25

>  <source_id>  (7) 
25

>  <optional_reference>  (7) 
10.1016/j.bmcl.2017.08.008

>  <optional_origin>  (7) 
None

>  <target>  (7) 
OCT2

$$$$

     RDKit          2D

 20 20  0  0  0  0  0  0  0  0999 V2000
   15.7733    4.4099    0.0000 S   0  0  0  0  0  0  0  0  0  0  0  0
    5.3817    0.7500    0.0000 S   0  0  0  0  0  0  0  0  0  0  0  0
    9.3921    2.9851    0.0000 S   0  0  0  0  0  0  0  0  0  0  0  0
   16.9390    3.4660    0.0000 O   0  0  0  0  0  0  0  0  0  0  0  0
   16.8153    5.4890    0.0000 O   0  0  0  0  0  0  0  0  0  0  0  0
    5.3817    3.1771    0.0000 N   0  0  0  0  0  0  0  0  0  0  0  0
   14.5598    3.5283    0.0000 N   0  0  0  0  0  0  0  0  0  0  0  0
    3.0000    1.9635    0.0000 N   0  0  0  0  0  0  0  0  0  0  0  0
   14.7892    5.5420    0.0000 N   0  0  0  0  0  0  0  0  0  0  0  0
   13.0327    5.6301    0.0000 N   0  0  0  0  0  0  0  0  0  0  0  0
    0.7500    3.2626    0.0000 N   0  0  0  0  0  0  0  0  0  0  0  0
    3.0000    4.5616    0.0000 N   0  0  0  0  0  0  0  0  0  0  0  0
    4.5000    1.9635    0.0000 C   0  0  0  0  0  0  0  0  0  0  0  0
    6.8083    2.7135    0.0000 C   0  0  0  0  0  0  0  0  0  0  0  0
    6.8083    1.2135    0.0000 C   0  0  0  0  0  0  0  0  0  0  0  0
   13.1895    4.1384    0.0000 C   0  0  0  0  0  0  0  0  0  0  0  0
    8.0218    3.5952    0.0000 C   0  0  0  0  0  0  0  0  0  0  0  0
   11.9760    3.2567    0.0000 C   0  0  0  0  0  0  0  0  0  0  0  0
    2.2500    3.2626    0.0000 C   0  0  0  0  0  0  0  0  0  0  0  0
   10.6056    3.8668    0.0000 C   0  0  0  0  0  0  0  0  0  0  0  0
  1  4  2  0
  1  5  2  0
  1  7  1  0
  1  9  1  0
  2 13  1  0
  2 15  1  0
  3 17  1  0
  3 20  1  0
  6 13  2  0
  6 14  1  0
  7 16  2  3
  8 13  1  0
  8 19  2  3
 10 16  1  0
 11 19  1  0
 12 19  1  0
 14 15  2  0
 14 17  1  0
 16 18  1  0
 18 20  1  0
M  END
>  <Classification>  (8) 
0

>  <pchembl>  (8) 
4.44

>  <InChI_steorem>  (8) 
InChI=1S/C8H15N7O2S3/c9-6(15-20(12,16)17)1-2-18-3-5-4-19-8(13-5)14-7(10)11/h4H,1-3H2,(H2,9,15)(H2,12,16,17)(H4,10,11,13,14)

>  <source>  (8) 
ChEMBL25

>  <source_id>  (8) 
25

>  <optional_reference>  (8) 
10.1021/jm301302s

>  <optional_origin>  (8) 
None

>  <target>  (8) 
OCT2

$$$$

     RDKit          2D

 41 45  0  0  0  0  0  0  0  0999 V2000
    3.7459    4.5851    0.0000 S   0  0  0  0  0  0  0  0  0  0  0  0
   11.1586    2.1766    0.0000 O   0  0  0  0  0  0  0  0  0  0  0  0
    2.3551    4.0232    0.0000 O   0  0  0  0  0  0  0  0  0  0  0  0
    4.1845    3.1507    0.0000 O   0  0  0  0  0  0  0  0  0  0  0  0
    5.7533    2.3557    0.0000 O   0  0  0  0  0  0  0  0  0  0  0  0
   20.4710    6.1699    0.0000 O   0  0  0  0  0  0  0  0  0  0  0  0
   19.1720    8.4199    0.0000 O   0  0  0  0  0  0  0  0  0  0  0  0
   12.5492    8.8834    0.0000 N   0  0  0  0  0  0  0  0  0  0  0  0
    5.2131    4.8970    0.0000 N   0  0  0  0  0  0  0  0  0  0  0  0
   17.8729    6.1699    0.0000 N   0  0  0  0  0  0  0  0  0  0  0  0
   13.9758    6.9199    0.0000 C   0  0  0  0  0  0  0  0  0  0  0  0
   13.9758    8.4199    0.0000 C   0  0  0  0  0  0  0  0  0  0  0  0
   12.5492    6.4563    0.0000 C   0  0  0  0  0  0  0  0  0  0  0  0
   11.6675    7.6699    0.0000 C   0  0  0  0  0  0  0  0  0  0  0  0
   10.6185    4.7179    0.0000 C   0  0  0  0  0  0  0  0  0  0  0  0
   12.0857    5.0298    0.0000 C   0  0  0  0  0  0  0  0  0  0  0  0
   15.2748    6.1699    0.0000 C   0  0  0  0  0  0  0  0  0  0  0  0
   16.5739    6.9199    0.0000 C   0  0  0  0  0  0  0  0  0  0  0  0
   15.2748    9.1699    0.0000 C   0  0  0  0  0  0  0  0  0  0  0  0
   10.1549    3.2913    0.0000 C   0  0  0  0  0  0  0  0  0  0  0  0
    7.6840    4.0941    0.0000 C   0  0  0  0  0  0  0  0  0  0  0  0
    3.0649    5.9216    0.0000 C   0  0  0  0  0  0  0  0  0  0  0  0
    6.2168    3.7823    0.0000 C   0  0  0  0  0  0  0  0  0  0  0  0
   16.5739    8.4199    0.0000 C   0  0  0  0  0  0  0  0  0  0  0  0
    8.6877    2.9794    0.0000 C   0  0  0  0  0  0  0  0  0  0  0  0
    9.6148    5.8326    0.0000 C   0  0  0  0  0  0  0  0  0  0  0  0
    8.1476    5.5207    0.0000 C   0  0  0  0  0  0  0  0  0  0  0  0
    1.5670    6.0001    0.0000 C   0  0  0  0  0  0  0  0  0  0  0  0
   12.0857   10.3100    0.0000 C   0  0  0  0  0  0  0  0  0  0  0  0
    3.8819    7.1796    0.0000 C   0  0  0  0  0  0  0  0  0  0  0  0
   19.1720    6.9199    0.0000 C   0  0  0  0  0  0  0  0  0  0  0  0
    0.8860    7.3366    0.0000 C   0  0  0  0  0  0  0  0  0  0  0  0
    3.2009    8.5161    0.0000 C   0  0  0  0  0  0  0  0  0  0  0  0
    1.7029    8.5946    0.0000 C   0  0  0  0  0  0  0  0  0  0  0  0
    0.7500    4.7421    0.0000 C   0  0  0  0  0  0  0  0  0  0  0  0
   21.7700    6.9199    0.0000 C   0  0  0  0  0  0  0  0  0  0  0  0
   10.6951    0.7500    0.0000 C   0  0  0  0  0  0  0  0  0  0  0  0
   21.9268    8.4117    0.0000 C   0  0  0  0  0  0  0  0  0  0  0  0
   23.1404    6.3098    0.0000 C   0  0  0  0  0  0  0  0  0  0  0  0
   23.3941    8.7235    0.0000 C   0  0  0  0  0  0  0  0  0  0  0  0
   24.1441    7.4245    0.0000 C   0  0  0  0  0  0  0  0  0  0  0  0
  1  3  2  0
  1  4  2  0
  1  9  1  0
  1 22  1  0
  2 20  1  0
  2 37  1  0
  5 23  2  0
  6 31  1  0
  6 36  1  0
  7 31  2  0
  8 12  1  0
  8 14  1  0
  8 29  1  0
  9 23  1  0
 10 18  1  0
 10 31  1  0
 11 12  2  0
 11 13  1  0
 11 17  1  0
 12 19  1  0
 13 14  2  0
 13 16  1  0
 15 16  1  0
 15 20  2  0
 15 26  1  0
 17 18  2  0
 18 24  1  0
 19 24  2  0
 20 25  1  0
 21 23  1  0
 21 25  2  0
 21 27  1  0
 22 28  2  0
 22 30  1  0
 26 27  2  0
 28 32  1  0
 28 35  1  0
 30 33  2  0
 32 34  2  0
 33 34  1  0
 36 38  1  0
 36 39  1  0
 38 40  1  0
 39 41  1  0
 40 41  1  0
M  END
>  <Classification>  (9) 
1

>  <pchembl>  (9) 
5.01

>  <InChI_steorem>  (9) 
InChI=1S/C31H33N3O6S/c1-20-8-4-7-11-29(20)41(37,38)33-30(35)22-13-12-21(28(17-22)39-3)16-23-19-34(2)27-15-14-24(18-26(23)27)32-31(36)40-25-9-5-6-10-25/h4,7-8,11-15,17-19,25H,5-6,9-10,16H2,1-3H3,(H,32,36)(H,33,35)

>  <source>  (9) 
ChEMBL25

>  <source_id>  (9) 
25

>  <optional_reference>  (9) 
10.1021/jm301302s

>  <optional_origin>  (9) 
None

>  <target>  (9) 
OCT2

$$$$

     RDKit          2D

 24 27  0  0  0  0  0  0  0  0999 V2000
   -4.1755    3.1377    0.0000 N   0  0  0  0  0  0  0  0  0  0  0  0
   -4.8900    2.7252    0.0000 C   0  0  0  0  0  0  0  0  0  0  0  0
   -4.3066    2.1419    0.0000 C   0  0  0  0  0  0  0  0  0  0  0  0
   -3.5922    2.5544    0.0000 C   0  0  0  0  0  0  0  0  0  0  0  0
   -2.7953    2.3408    0.0000 C   0  0  0  0  0  0  0  0  0  0  0  0
   -3.2078    3.0553    0.0000 C   0  0  0  0  0  0  0  0  0  0  0  0
   -4.1755    3.9627    0.0000 C   0  0  0  0  0  0  0  0  0  0  0  0
   -3.3505    3.9627    0.0000 C   0  0  0  0  0  0  0  0  0  0  0  0
   -5.6045    2.3127    0.0000 C   0  0  0  0  0  0  0  0  0  0  0  0
   -5.6045    1.4877    0.0000 C   0  0  0  0  0  0  0  0  0  0  0  0
   -6.3189    1.0752    0.0000 C   0  0  0  0  0  0  0  0  0  0  0  0
   -6.3189    0.2502    0.0000 C   0  0  0  0  0  0  0  0  0  0  0  0
   -5.6045   -0.1623    0.0000 N   0  0  0  0  0  0  0  0  0  0  0  0
   -4.8900    0.2502    0.0000 C   0  0  0  0  0  0  0  0  0  0  0  0
   -4.8900    1.0752    0.0000 C   0  0  0  0  0  0  0  0  0  0  0  0
   -7.0334    1.4877    0.0000 C   0  0  0  0  0  0  0  0  0  0  0  0
   -7.7479    1.0753    0.0000 C   0  0  0  0  0  0  0  0  0  0  0  0
   -7.7479    0.2503    0.0000 C   0  0  0  0  0  0  0  0  0  0  0  0
   -7.0334   -0.1623    0.0000 C   0  0  0  0  0  0  0  0  0  0  0  0
   -6.4014    2.0992    0.0000 O   0  0  0  0  0  0  0  0  0  0  0  0
   -8.4624    1.4878    0.0000 O   0  0  0  0  0  0  0  0  0  0  0  0
   -9.1768    1.0753    0.0000 C   0  0  0  0  0  0  0  0  0  0  0  0
   -2.7953    1.5158    0.0000 C   0  0  0  0  0  0  0  0  0  0  0  0
   -2.0808    1.1033    0.0000 C   0  0  0  0  0  0  0  0  0  0  0  0
  1  2  1  0
  2  3  1  0
  3  4  1  0
  4  5  1  0
  5  6  1  0
  6  1  1  0
  1  7  1  0
  7  8  1  0
  4  8  1  0
  2  9  1  0
  9 10  1  0
 10 11  2  0
 15 10  1  0
 12 13  2  0
 13 14  1  0
 14 15  2  0
 11 16  1  0
 12 11  1  0
 19 12  1  0
 16 17  2  0
 17 18  1  0
 18 19  2  0
  9 20  1  0
 17 21  1  0
 21 22  1  0
  5 23  1  0
 23 24  2  0
M  END
>  <Classification>  (10) 
1

>  <pchembl>  (10) 
5.47

>  <InChI_steorem>  (10) 
InChI=1S/C20H24N2O2/c1-3-13-12-22-9-7-14(13)10-19(22)20(23)16-6-8-21-18-5-4-15(24-2)11-17(16)18/h3-6,8,11,13-14,19-20,23H,1,7,9-10,12H2,2H3

>  <source>  (10) 
ChEMBL25

>  <source_id>  (10) 
25

>  <optional_reference>  (10) 
10.1089/dna.1997.16.871

>  <optional_origin>  (10) 
None

>  <target>  (10) 
OCT2

$$$$

     RDKit          2D

 14 14  0  0  0  0  0  0  0  0999 V2000
   10.6675   -4.2551    0.0000 C   0  0  0  0  0  0  0  0  0  0  0  0
   10.6663   -5.0747    0.0000 C   0  0  0  0  0  0  0  0  0  0  0  0
   11.3744   -5.4836    0.0000 C   0  0  0  0  0  0  0  0  0  0  0  0
   12.0840   -5.0742    0.0000 C   0  0  0  0  0  0  0  0  0  0  0  0
   12.0812   -4.2515    0.0000 C   0  0  0  0  0  0  0  0  0  0  0  0
   11.3726   -3.8463    0.0000 C   0  0  0  0  0  0  0  0  0  0  0  0
   11.3701   -3.0291    0.0000 N   0  0  0  0  0  0  0  0  0  0  0  0
   12.0766   -2.6184    0.0000 C   0  0  0  0  0  0  0  0  0  0  0  0
   12.0742   -1.8012    0.0000 N   0  0  0  0  0  0  0  0  0  0  0  0
   12.7856   -3.0249    0.0000 N   0  0  0  0  0  0  0  0  0  0  0  0
   11.3742   -6.3008    0.0000 C   0  0  0  0  0  0  0  0  0  0  0  0
   10.6664   -6.7093    0.0000 C   0  0  0  0  0  0  0  0  0  0  0  0
   12.0818   -6.7096    0.0000 C   0  0  0  0  0  0  0  0  0  0  0  0
   11.3664   -7.1153    0.0000 C   0  0  0  0  0  0  0  0  0  0  0  0
  1  2  2  0
  2  3  1  0
  3  4  2  0
  4  5  1  0
  5  6  2  0
  6  1  1  0
  6  7  1  0
  7  8  2  3
  8  9  1  0
  8 10  1  0
  3 11  1  0
 11 12  1  0
 11 13  1  0
 11 14  1  0
M  END
>  <Classification>  (11) 
1

>  <pchembl>  (11) 
5.08

>  <InChI_steorem>  (11) 
InChI=1S/C11H17N3/c1-11(2,3)8-4-6-9(7-5-8)14-10(12)13/h4-7H,1-3H3,(H4,12,13,14)

>  <source>  (11) 
ChEMBL25

>  <source_id>  (11) 
25

>  <optional_reference>  (11) 
10.1016/j.bmcl.2017.08.008

>  <optional_origin>  (11) 
None

>  <target>  (11) 
OCT2

$$$$

     RDKit          2D

 11 11  0  0  0  0  0  0  0  0999 V2000
   17.6012   -3.5164    0.0000 C   0  0  0  0  0  0  0  0  0  0  0  0
   17.6001   -4.3359    0.0000 C   0  0  0  0  0  0  0  0  0  0  0  0
   18.3081   -4.7449    0.0000 C   0  0  0  0  0  0  0  0  0  0  0  0
   19.0178   -4.3354    0.0000 C   0  0  0  0  0  0  0  0  0  0  0  0
   19.0149   -3.5128    0.0000 C   0  0  0  0  0  0  0  0  0  0  0  0
   18.3063   -3.1075    0.0000 C   0  0  0  0  0  0  0  0  0  0  0  0
   18.3039   -2.2903    0.0000 N   0  0  0  0  0  0  0  0  0  0  0  0
   19.0104   -1.8796    0.0000 C   0  0  0  0  0  0  0  0  0  0  0  0
   19.0079   -1.0624    0.0000 N   0  0  0  0  0  0  0  0  0  0  0  0
   19.7193   -2.2861    0.0000 N   0  0  0  0  0  0  0  0  0  0  0  0
   18.3079   -5.5621    0.0000 I   0  0  0  0  0  0  0  0  0  0  0  0
  1  2  2  0
  2  3  1  0
  3  4  2  0
  4  5  1  0
  5  6  2  0
  6  1  1  0
  6  7  1  0
  7  8  2  3
  8  9  1  0
  8 10  1  0
  3 11  1  0
M  END
>  <Classification>  (12) 
1

>  <pchembl>  (12) 
5.36

>  <InChI_steorem>  (12) 
InChI=1S/C7H8IN3/c8-5-1-3-6(4-2-5)11-7(9)10/h1-4H,(H4,9,10,11)

>  <source>  (12) 
ChEMBL25

>  <source_id>  (12) 
25

>  <optional_reference>  (12) 
10.1016/j.bmcl.2017.08.008

>  <optional_origin>  (12) 
None

>  <target>  (12) 
OCT2

$$$$

     RDKit          2D

 18 20  0  0  0  0  0  0  0  0999 V2000
   -2.8875    4.0018    0.0000 C   0  0  0  0  0  0  0  0  0  0  0  0
   -3.5549    3.5168    0.0000 C   0  0  0  0  0  0  0  0  0  0  0  0
   -3.3000    2.7323    0.0000 C   0  0  0  0  0  0  0  0  0  0  0  0
   -2.4750    2.7323    0.0000 C   0  0  0  0  0  0  0  0  0  0  0  0
   -2.2201    3.5168    0.0000 C   0  0  0  0  0  0  0  0  0  0  0  0
   -3.8520    2.1191    0.0000 C   0  0  0  0  0  0  0  0  0  0  0  0
   -4.6590    2.2907    0.0000 C   0  0  0  0  0  0  0  0  0  0  0  0
   -4.9140    3.0753    0.0000 C   0  0  0  0  0  0  0  0  0  0  0  0
   -4.3619    3.6884    0.0000 C   0  0  0  0  0  0  0  0  0  0  0  0
   -1.9230    2.1192    0.0000 C   0  0  0  0  0  0  0  0  0  0  0  0
   -1.1160    2.2907    0.0000 C   0  0  0  0  0  0  0  0  0  0  0  0
   -0.8610    3.0754    0.0000 C   0  0  0  0  0  0  0  0  0  0  0  0
   -1.4131    3.6885    0.0000 C   0  0  0  0  0  0  0  0  0  0  0  0
   -2.8875    4.8268    0.0000 N   0  0  0  0  0  0  0  0  0  0  0  0
   -2.1730    5.2393    0.0000 C   0  0  0  0  0  0  0  0  0  0  0  0
   -3.6020    5.2393    0.0000 C   0  0  0  0  0  0  0  0  0  0  0  0
   -2.1730    6.0643    0.0000 C   0  0  0  0  0  0  0  0  0  0  0  0
   -1.4586    6.4768    0.0000 Cl  0  0  0  0  0  0  0  0  0  0  0  0
  1  2  1  0
  3  4  1  0
  1  5  1  0
  2  9  2  0
  2  3  1  0
  3  6  2  0
  6  7  1  0
  7  8  2  0
  8  9  1  0
  4 10  2  0
  5  4  1  0
  5 13  2  0
 10 11  1  0
 11 12  2  0
 12 13  1  0
  1 14  1  0
 14 15  1  0
 14 16  1  0
 15 17  1  0
 17 18  1  0
M  END
>  <Classification>  (13) 
1

>  <pchembl>  (13) 
7.0

>  <InChI_steorem>  (13) 
InChI=1S/C16H16ClN/c1-18(11-10-17)16-14-8-4-2-6-12(14)13-7-3-5-9-15(13)16/h2-9,16H,10-11H2,1H3

>  <source>  (13) 
ChEMBL25

>  <source_id>  (13) 
25

>  <optional_reference>  (13) 
10.1038/sj.bjp.0704785

>  <optional_origin>  (13) 
None

>  <target>  (13) 
OCT2

$$$$

     RDKit          2D

 21 20  0  0  0  0  0  0  0  0999 V2000
   -3.9039    0.6039    0.0000 C   0  0  0  0  0  0  0  0  0  0  0  0
   -3.0789    0.6039    0.0000 C   0  0  0  0  0  0  0  0  0  0  0  0
   -2.6664   -0.1105    0.0000 C   0  0  0  0  0  0  0  0  0  0  0  0
   -1.8414   -0.1105    0.0000 C   0  0  0  0  0  0  0  0  0  0  0  0
   -1.4289   -0.8250    0.0000 C   0  0  0  0  0  0  0  0  0  0  0  0
   -0.6039   -0.8250    0.0000 N   0  0  0  0  0  0  0  0  0  0  0  0
    0.2211   -0.8250    0.0000 C   0  0  0  0  0  0  0  0  0  0  0  0
    0.6336   -1.5395    0.0000 C   0  0  0  0  0  0  0  0  0  0  0  0
    1.4586   -1.5395    0.0000 C   0  0  0  0  0  0  0  0  0  0  0  0
    1.8711   -2.2539    0.0000 C   0  0  0  0  0  0  0  0  0  0  0  0
    2.6961   -2.2539    0.0000 C   0  0  0  0  0  0  0  0  0  0  0  0
   -0.6039   -1.6500    0.0000 C   0  0  0  0  0  0  0  0  0  0  0  0
    0.1105   -2.0625    0.0000 C   0  0  0  0  0  0  0  0  0  0  0  0
    0.1105   -2.8875    0.0000 C   0  0  0  0  0  0  0  0  0  0  0  0
    0.8250   -3.3000    0.0000 C   0  0  0  0  0  0  0  0  0  0  0  0
    0.8250   -4.1250    0.0000 C   0  0  0  0  0  0  0  0  0  0  0  0
   -0.6039    0.0000    0.0000 C   0  0  0  0  0  0  0  0  0  0  0  0
    0.1105    0.4125    0.0000 C   0  0  0  0  0  0  0  0  0  0  0  0
    0.8250    0.0000    0.0000 C   0  0  0  0  0  0  0  0  0  0  0  0
    1.5395    0.4125    0.0000 C   0  0  0  0  0  0  0  0  0  0  0  0
    2.2539    0.0000    0.0000 C   0  0  0  0  0  0  0  0  0  0  0  0
  1  2  1  0
  2  3  1  0
  3  4  1  0
  4  5  1  0
  5  6  1  0
  6  7  1  0
  7  8  1  0
  8  9  1  0
  9 10  1  0
 10 11  1  0
  6 12  1  0
 12 13  1  0
 13 14  1  0
 14 15  1  0
 15 16  1  0
  6 17  1  0
 17 18  1  0
 18 19  1  0
 19 20  1  0
 20 21  1  0
M  CHG  1   6   1
M  END
>  <Classification>  (14) 
1

>  <pchembl>  (14) 
5.82

>  <InChI_steorem>  (14) 
InChI=1S/C20H44N/c1-5-9-13-17-21(18-14-10-6-2,19-15-11-7-3)20-16-12-8-4/h5-20H2,1-4H3

>  <source>  (14) 
ChEMBL25

>  <source_id>  (14) 
25

>  <optional_reference>  (14) 
10.1089/dna.1997.16.871

>  <optional_origin>  (14) 
None

>  <target>  (14) 
OCT2

$$$$

     RDKit          2D

 21 22  0  0  0  0  0  0  0  0999 V2000
   -2.9475    1.9430    0.0000 C   0  0  0  0  0  0  0  0  0  0  0  0
   -2.2191    2.3303    0.0000 C   0  0  0  0  0  0  0  0  0  0  0  0
   -1.5194    1.8931    0.0000 C   0  0  0  0  0  0  0  0  0  0  0  0
   -1.5482    1.0686    0.0000 N   0  0  0  0  0  0  0  0  0  0  0  0
   -2.2767    0.6813    0.0000 C   0  0  0  0  0  0  0  0  0  0  0  0
   -2.9763    1.1185    0.0000 C   0  0  0  0  0  0  0  0  0  0  0  0
   -0.7252    1.0111    0.0000 C   0  0  0  0  0  0  0  0  0  0  0  0
   -1.1357    0.3541    0.0000 C   0  0  0  0  0  0  0  0  0  0  0  0
   -0.3107    0.3541    0.0000 C   0  0  0  0  0  0  0  0  0  0  0  0
    0.1018   -0.3603    0.0000 C   0  0  0  0  0  0  0  0  0  0  0  0
    0.9268   -0.3603    0.0000 C   0  0  0  0  0  0  0  0  0  0  0  0
    1.3393    0.3541    0.0000 C   0  0  0  0  0  0  0  0  0  0  0  0
    0.9268    1.0686    0.0000 C   0  0  0  0  0  0  0  0  0  0  0  0
    1.3393   -1.0748    0.0000 C   0  0  0  0  0  0  0  0  0  0  0  0
    2.1643   -1.0748    0.0000 C   0  0  0  0  0  0  0  0  0  0  0  0
    2.5768   -1.7893    0.0000 C   0  0  0  0  0  0  0  0  0  0  0  0
    2.1643   -2.5037    0.0000 C   0  0  0  0  0  0  0  0  0  0  0  0
    1.3393   -2.5037    0.0000 C   0  0  0  0  0  0  0  0  0  0  0  0
    0.9268   -1.7893    0.0000 C   0  0  0  0  0  0  0  0  0  0  0  0
    2.1643    0.3541    0.0000 C   0  0  0  0  0  0  0  0  0  0  0  0
   -0.3107   -1.0748    0.0000 O   0  0  0  0  0  0  0  0  0  0  0  0
  1  2  1  0
  2  3  1  0
  3  4  1  0
  4  5  1  0
  5  6  1  0
  1  6  1  0
  4  7  1  0
  8  9  1  0
  9 10  1  0
 10 11  1  0
 11 12  1  0
 12 13  1  0
 14 15  2  0
 15 16  1  0
 16 17  2  0
 17 18  1  0
 18 19  2  0
 14 19  1  0
 11 14  1  0
 12 20  1  0
 10 21  1  0
  4  8  1  0
M  CHG  1   4   1
M  END
>  <Classification>  (15) 
1

>  <pchembl>  (15) 
5.32

>  <InChI_steorem>  (15) 
InChI=1S/C19H32NO/c1-16(2)19(17-10-6-4-7-11-17)18(21)12-15-20(3)13-8-5-9-14-20/h4,6-7,10-11,16,18-19,21H,5,8-9,12-15H2,1-3H3

>  <source>  (15) 
ChEMBL25

>  <source_id>  (15) 
25

>  <optional_reference>  (15) 
10.1089/dna.1997.16.871

>  <optional_origin>  (15) 
None

>  <target>  (15) 
OCT2

$$$$

     RDKit          2D

 27 30  0  0  0  0  0  0  0  0999 V2000
  -14.9973    3.1821    0.0000 C   0  0  0  0  0  0  0  0  0  0  0  0
  -15.7118    2.7696    0.0000 C   0  0  0  0  0  0  0  0  0  0  0  0
  -15.7118    1.9446    0.0000 C   0  0  0  0  0  0  0  0  0  0  0  0
  -14.9973    1.5321    0.0000 N   0  0  0  0  0  0  0  0  0  0  0  0
  -14.2828    1.9446    0.0000 C   0  0  0  0  0  0  0  0  0  0  0  0
  -14.2828    2.7696    0.0000 C   0  0  0  0  0  0  0  0  0  0  0  0
  -16.4263    1.5321    0.0000 C   0  0  0  0  0  0  0  0  0  0  0  0
  -17.1408    1.9447    0.0000 C   0  0  0  0  0  0  0  0  0  0  0  0
  -17.1408    2.7697    0.0000 C   0  0  0  0  0  0  0  0  0  0  0  0
  -16.4263    3.1822    0.0000 C   0  0  0  0  0  0  0  0  0  0  0  0
  -13.5684    1.5321    0.0000 C   0  0  0  0  0  0  0  0  0  0  0  0
  -12.8539    1.9446    0.0000 C   0  0  0  0  0  0  0  0  0  0  0  0
  -12.1394    1.5321    0.0000 N   0  0  0  0  0  0  0  0  0  0  0  0
  -11.4249    1.9447    0.0000 C   0  0  0  0  0  0  0  0  0  0  0  0
  -11.4249    2.7697    0.0000 N   0  0  0  0  0  0  0  0  0  0  0  0
  -12.1394    3.1821    0.0000 C   0  0  0  0  0  0  0  0  0  0  0  0
  -12.8539    2.7696    0.0000 C   0  0  0  0  0  0  0  0  0  0  0  0
  -10.7105    1.5322    0.0000 C   0  0  0  0  0  0  0  0  0  0  0  0
  -10.7105    0.7071    0.0000 C   0  0  0  0  0  0  0  0  0  0  0  0
   -9.9960    0.2946    0.0000 C   0  0  0  0  0  0  0  0  0  0  0  0
   -9.2815    0.7071    0.0000 C   0  0  0  0  0  0  0  0  0  0  0  0
   -9.2815    1.5322    0.0000 C   0  0  0  0  0  0  0  0  0  0  0  0
   -9.9960    1.9447    0.0000 C   0  0  0  0  0  0  0  0  0  0  0  0
  -12.1394    4.0071    0.0000 C   0  0  0  0  0  0  0  0  0  0  0  0
  -12.1394    0.7071    0.0000 C   0  0  0  0  0  0  0  0  0  0  0  0
  -14.9973    0.7071    0.0000 C   0  0  0  0  0  0  0  0  0  0  0  0
  -14.2829    0.2946    0.0000 C   0  0  0  0  0  0  0  0  0  0  0  0
  1  2  2  0
  1  6  1  0
  3  4  2  0
  4  5  1  0
  5  6  2  0
  2 10  1  0
  2  3  1  0
  3  7  1  0
  7  8  2  0
  8  9  1  0
  9 10  2  0
  5 11  1  0
 11 12  1  0
 12 13  1  0
 17 12  1  0
 13 14  1  0
 14 15  2  0
 15 16  1  0
 16 17  2  0
 14 18  1  0
 18 19  2  0
 18 23  1  0
 19 20  1  0
 20 21  2  0
 21 22  1  0
 22 23  2  0
 16 24  1  0
 13 25  1  0
  4 26  1  0
 26 27  1  0
M  CHG  1   4   1
M  END
>  <Classification>  (16) 
1

>  <pchembl>  (16) 
6.68

>  <InChI_steorem>  (16) 
InChI=1S/C24H26N3/c1-4-27-21(15-14-19-10-8-9-13-23(19)27)17-22-16-18(2)25-24(26(22)3)20-11-6-5-7-12-20/h5-16,22H,4,17H2,1-3H3

>  <source>  (16) 
ChEMBL25

>  <source_id>  (16) 
25

>  <optional_reference>  (16) 
10.1089/dna.1997.16.871

>  <optional_origin>  (16) 
None

>  <target>  (16) 
OCT2

$$$$

     RDKit          2D

 34 38  0  0  0  0  0  0  0  0999 V2000
    4.9354   -1.7689    0.0000 C   0  0  0  0  0  0  0  0  0  0  0  0
    5.4203   -2.4364    0.0000 N   0  0  0  0  0  0  0  0  0  0  0  0
    5.4203   -1.1015    0.0000 N   0  0  0  0  0  0  0  0  0  0  0  0
    6.2049   -2.1814    0.0000 C   0  0  0  0  0  0  0  0  0  0  0  0
    6.2049   -1.3564    0.0000 C   0  0  0  0  0  0  0  0  0  0  0  0
    5.1653   -3.2210    0.0000 C   0  0  0  0  0  0  0  0  0  0  0  0
    4.6555   -4.7903    0.0000 N   0  0  0  0  0  0  0  0  0  0  0  0
    4.1104   -1.7689    0.0000 O   0  0  0  0  0  0  0  0  0  0  0  0
    4.3584   -3.3925    0.0000 C   0  0  0  0  0  0  0  0  0  0  0  0
    5.7174   -3.8341    0.0000 C   0  0  0  0  0  0  0  0  0  0  0  0
    5.2497   -7.5857    0.0000 C   0  0  0  0  0  0  0  0  0  0  0  0
    4.9947   -8.3703    0.0000 C   0  0  0  0  0  0  0  0  0  0  0  0
    6.0566   -7.4142    0.0000 C   0  0  0  0  0  0  0  0  0  0  0  0
    4.1034   -4.1772    0.0000 C   0  0  0  0  0  0  0  0  0  0  0  0
    5.4624   -4.6187    0.0000 C   0  0  0  0  0  0  0  0  0  0  0  0
    6.6087   -8.0273    0.0000 C   0  0  0  0  0  0  0  0  0  0  0  0
    4.1877   -8.5418    0.0000 C   0  0  0  0  0  0  0  0  0  0  0  0
    5.5467   -8.9834    0.0000 C   0  0  0  0  0  0  0  0  0  0  0  0
    6.3116   -6.6295    0.0000 C   0  0  0  0  0  0  0  0  0  0  0  0
    7.6706   -7.0711    0.0000 C   0  0  0  0  0  0  0  0  0  0  0  0
    4.4848   -9.9395    0.0000 C   0  0  0  0  0  0  0  0  0  0  0  0
    7.1185   -6.4580    0.0000 C   0  0  0  0  0  0  0  0  0  0  0  0
    5.2918   -9.7680    0.0000 C   0  0  0  0  0  0  0  0  0  0  0  0
    7.4156   -7.8557    0.0000 C   0  0  0  0  0  0  0  0  0  0  0  0
    3.9328   -9.3265    0.0000 C   0  0  0  0  0  0  0  0  0  0  0  0
    4.2299  -10.7242    0.0000 F   0  0  0  0  0  0  0  0  0  0  0  0
    8.4775   -6.8996    0.0000 F   0  0  0  0  0  0  0  0  0  0  0  0
    4.4005   -5.5749    0.0000 C   0  0  0  0  0  0  0  0  0  0  0  0
    6.9194   -2.5939    0.0000 C   0  0  0  0  0  0  0  0  0  0  0  0
    6.9194   -0.9439    0.0000 C   0  0  0  0  0  0  0  0  0  0  0  0
    4.9526   -6.1880    0.0000 C   0  0  0  0  0  0  0  0  0  0  0  0
    4.6976   -6.9726    0.0000 C   0  0  0  0  0  0  0  0  0  0  0  0
    7.6338   -2.1814    0.0000 C   0  0  0  0  0  0  0  0  0  0  0  0
    7.6338   -1.3564    0.0000 C   0  0  0  0  0  0  0  0  0  0  0  0
  2  1  1  0
  3  1  1  0
  4  2  1  0
  5  3  1  0
  6  2  1  0
  7 15  1  0
  8  1  2  0
  9  6  1  0
 10  6  1  0
 11 32  1  0
 12 11  1  0
 13 11  1  0
 14  9  1  0
 15 10  1  0
 16 13  2  0
 17 12  2  0
 18 12  1  0
 19 13  1  0
 20 22  1  0
 21 23  1  0
 22 19  2  0
 23 18  2  0
 24 16  1  0
 25 17  1  0
 26 21  1  0
 27 20  1  0
 28  7  1  0
 29  4  2  0
 30  5  2  0
 31 28  1  0
 32 31  1  0
 33 29  1  0
 34 30  1  0
  4  5  1  0
 33 34  2  0
 14  7  1  0
 24 20  2  0
 25 21  2  0
M  END
>  <Classification>  (17) 
0

>  <pchembl>  (17) 
4.47

>  <InChI_steorem>  (17) 
InChI=1S/C28H29F2N3O/c29-22-11-7-20(8-12-22)25(21-9-13-23(30)14-10-21)4-3-17-32-18-15-24(16-19-32)33-27-6-2-1-5-26(27)31-28(33)34/h1-2,5-14,24-25H,3-4,15-19H2,(H,31,34)

>  <source>  (17) 
ChEMBL25

>  <source_id>  (17) 
25

>  <optional_reference>  (17) 
10.1021/jm301302s

>  <optional_origin>  (17) 
None

>  <target>  (17) 
OCT2

$$$$

     RDKit          2D

 17 17  0  0  0  0  0  0  0  0999 V2000
    9.6839   -2.6934    0.0000 C   0  0  0  0  0  0  0  0  0  0  0  0
    8.4905   -2.8193    0.0000 N   0  0  0  0  0  0  0  0  0  0  0  0
    7.8797   -4.1902    0.0000 C   0  0  0  0  0  0  0  0  0  0  0  0
    6.3873   -4.3492    0.0000 N   0  0  0  0  0  0  0  0  0  0  0  0
    5.7780   -5.7208    0.0000 C   0  0  0  0  0  0  0  0  0  0  0  0
    4.2856   -5.8798    0.0000 C   0  0  0  0  0  0  0  0  0  0  0  0
    3.6763   -7.2514    0.0000 S   0  0  0  0  0  0  0  0  0  0  0  0
    2.1839   -7.4104    0.0000 C   0  0  0  0  0  0  0  0  0  0  0  0
    1.5756   -8.7796    0.0000 C   0  0  0  0  0  0  0  0  0  0  0  0
    2.3293  -10.0765    0.0000 N   0  0  0  0  0  0  0  0  0  0  0  0
    1.3289  -11.1941    0.0000 C   0  0  0  0  0  0  0  0  0  0  0  0
   -0.0432  -10.5880    0.0000 N   0  0  0  0  0  0  0  0  0  0  0  0
    0.1093   -9.0957    0.0000 C   0  0  0  0  0  0  0  0  0  0  0  0
   -0.7848   -8.2953    0.0000 C   0  0  0  0  0  0  0  0  0  0  0  0
    8.7644   -5.4025    0.0000 N   0  0  0  0  0  0  0  0  0  0  0  0
   10.2567   -5.2435    0.0000 C   0  0  0  0  0  0  0  0  0  0  0  0
   11.4500   -5.1163    0.0000 N   0  0  0  0  0  0  0  0  0  0  0  0
  1  2  1  0
  2  3  1  0
  3  4  2  3
  4  5  1  0
  5  6  1  0
  6  7  1  0
  7  8  1  0
  8  9  1  0
  9 10  1  0
 10 11  2  0
 11 12  1  0
 12 13  1  0
 13  9  2  0
 13 14  1  0
  3 15  1  0
 15 16  1  0
 16 17  3  0
M  END
>  <Classification>  (18) 
0

>  <pchembl>  (18) 
4.24

>  <InChI_steorem>  (18) 
InChI=1S/C10H16N6S/c1-8-9(16-7-15-8)5-17-4-3-13-10(12-2)14-6-11/h7H,3-5H2,1-2H3,(H,15,16)(H2,12,13,14)

>  <source>  (18) 
ChEMBL25

>  <source_id>  (18) 
25

>  <optional_reference>  (18) 
10.1016/j.ejphar.2004.09.032

>  <optional_origin>  (18) 
None

>  <target>  (18) 
OCT2

$$$$

     RDKit          2D

 30 34  0  0  0  0  0  0  0  0999 V2000
    2.3383   -1.3500    0.0000 Cl  0  0  0  0  0  0  0  0  0  0  0  0
    1.2990   -0.7500    0.0000 C   0  0  0  0  0  0  0  0  0  0  0  0
    1.2990    0.7500    0.0000 C   0  0  0  0  0  0  0  0  0  0  0  0
    0.0000    1.5000    0.0000 C   0  0  0  0  0  0  0  0  0  0  0  0
   -1.2990    0.7500    0.0000 C   0  0  0  0  0  0  0  0  0  0  0  0
   -2.7248    1.2135    0.0000 N   0  0  0  0  0  0  0  0  0  0  0  0
   -3.1884    2.6408    0.0000 C   0  0  0  0  0  0  0  0  0  0  0  0
   -2.2738    3.8234    0.0000 C   0  0  0  0  0  0  0  0  0  0  0  0
   -2.8433    5.2111    0.0000 C   0  0  0  0  0  0  0  0  0  0  0  0
   -4.3298    5.4117    0.0000 N   0  0  0  0  0  0  0  0  0  0  0  0
   -4.9025    6.7990    0.0000 C   0  0  0  0  0  0  0  0  0  0  0  0
   -6.3901    6.9976    0.0000 C   0  0  0  0  0  0  0  0  0  0  0  0
   -6.9628    8.3849    0.0000 C   0  0  0  0  0  0  0  0  0  0  0  0
   -8.4505    8.5835    0.0000 N   0  0  0  0  0  0  0  0  0  0  0  0
   -9.4613    7.4925    0.0000 C   0  0  0  0  0  0  0  0  0  0  0  0
   -9.2355    6.3139    0.0000 O   0  0  0  0  0  0  0  0  0  0  0  0
  -10.8152    8.1382    0.0000 N   0  0  0  0  0  0  0  0  0  0  0  0
  -10.6194    9.6245    0.0000 C   0  0  0  0  0  0  0  0  0  0  0  0
  -11.5936   10.7650    0.0000 C   0  0  0  0  0  0  0  0  0  0  0  0
  -11.0930   12.1790    0.0000 C   0  0  0  0  0  0  0  0  0  0  0  0
   -9.6182   12.4525    0.0000 C   0  0  0  0  0  0  0  0  0  0  0  0
   -8.6439   11.3120    0.0000 C   0  0  0  0  0  0  0  0  0  0  0  0
   -9.1445    9.8980    0.0000 C   0  0  0  0  0  0  0  0  0  0  0  0
   -5.2468    4.2247    0.0000 C   0  0  0  0  0  0  0  0  0  0  0  0
   -4.6773    2.8370    0.0000 C   0  0  0  0  0  0  0  0  0  0  0  0
   -3.6065    0.0000    0.0000 C   0  0  0  0  0  0  0  0  0  0  0  0
   -4.8065    0.0000    0.0000 O   0  0  0  0  0  0  0  0  0  0  0  0
   -2.7248   -1.2135    0.0000 N   0  0  0  0  0  0  0  0  0  0  0  0
   -1.2990   -0.7500    0.0000 C   0  0  0  0  0  0  0  0  0  0  0  0
    0.0000   -1.5000    0.0000 C   0  0  0  0  0  0  0  0  0  0  0  0
  1  2  1  0
  2  3  2  0
  3  4  1  0
  4  5  2  0
  5  6  1  0
  6  7  1  0
  7  8  1  0
  8  9  1  0
  9 10  1  0
 10 11  1  0
 11 12  1  0
 12 13  1  0
 13 14  1  0
 14 15  1  0
 15 16  2  0
 15 17  1  0
 17 18  1  0
 18 19  2  0
 19 20  1  0
 20 21  2  0
 21 22  1  0
 22 23  2  0
 23 14  1  0
 23 18  1  0
 10 24  1  0
 24 25  1  0
 25  7  1  0
  6 26  1  0
 26 27  2  0
 26 28  1  0
 28 29  1  0
 29  5  1  0
 29 30  2  0
 30  2  1  0
M  END
>  <Classification>  (19) 
1

>  <pchembl>  (19) 
5.1

>  <InChI_steorem>  (19) 
InChI=1S/C22H24ClN5O2/c23-15-6-7-20-18(14-15)25-22(30)28(20)16-8-12-26(13-9-16)10-3-11-27-19-5-2-1-4-17(19)24-21(27)29/h1-2,4-7,14,16H,3,8-13H2,(H,24,29)(H,25,30)

>  <source>  (19) 
ChEMBL25

>  <source_id>  (19) 
25

>  <optional_reference>  (19) 
10.1021/jm301302s

>  <optional_origin>  (19) 
None

>  <target>  (19) 
OCT2

$$$$

     RDKit          2D

 30 34  0  0  0  0  0  0  0  0999 V2000
    2.3383   -1.3500    0.0000 C   0  0  0  0  0  0  0  0  0  0  0  0
    1.2990   -0.7500    0.0000 C   0  0  0  0  0  0  0  0  0  0  0  0
    1.2990    0.7500    0.0000 C   0  0  0  0  0  0  0  0  0  0  0  0
    2.5972    1.5031    0.0000 C   0  0  0  0  0  0  0  0  0  0  0  0
    2.5951    3.0039    0.0000 C   0  0  0  0  0  0  0  0  0  0  0  0
    3.8933    3.7570    0.0000 N   0  0  0  0  0  0  0  0  0  0  0  0
    3.8933    5.2571    0.0000 C   0  0  0  0  0  0  0  0  0  0  0  0
    5.1924    6.0071    0.0000 C   0  0  0  0  0  0  0  0  0  0  0  0
    6.4914    5.2571    0.0000 C   0  0  0  0  0  0  0  0  0  0  0  0
    6.4915    3.7571    0.0000 C   0  0  0  0  0  0  0  0  0  0  0  0
    5.1925    3.0071    0.0000 C   0  0  0  0  0  0  0  0  0  0  0  0
    7.7911    6.0075    0.0000 C   0  0  0  0  0  0  0  0  0  0  0  0
    9.1416    5.3847    0.0000 N   0  0  0  0  0  0  0  0  0  0  0  0
   10.1469    6.4980    0.0000 O   0  0  0  0  0  0  0  0  0  0  0  0
    9.3989    7.7973    0.0000 C   0  0  0  0  0  0  0  0  0  0  0  0
    9.8644    9.2232    0.0000 C   0  0  0  0  0  0  0  0  0  0  0  0
    8.8623   10.3393    0.0000 C   0  0  0  0  0  0  0  0  0  0  0  0
    9.2347   11.4801    0.0000 F   0  0  0  0  0  0  0  0  0  0  0  0
    7.3946   10.0295    0.0000 C   0  0  0  0  0  0  0  0  0  0  0  0
    6.9291    8.6036    0.0000 C   0  0  0  0  0  0  0  0  0  0  0  0
    7.9312    7.4874    0.0000 C   0  0  0  0  0  0  0  0  0  0  0  0
    0.0000    1.5000    0.0000 C   0  0  0  0  0  0  0  0  0  0  0  0
    0.0000    2.7000    0.0000 O   0  0  0  0  0  0  0  0  0  0  0  0
   -1.2990    0.7500    0.0000 N   0  0  0  0  0  0  0  0  0  0  0  0
   -2.5981    1.5000    0.0000 C   0  0  0  0  0  0  0  0  0  0  0  0
   -3.8971    0.7500    0.0000 C   0  0  0  0  0  0  0  0  0  0  0  0
   -3.8971   -0.7500    0.0000 C   0  0  0  0  0  0  0  0  0  0  0  0
   -2.5981   -1.5000    0.0000 C   0  0  0  0  0  0  0  0  0  0  0  0
   -1.2990   -0.7500    0.0000 C   0  0  0  0  0  0  0  0  0  0  0  0
    0.0000   -1.5000    0.0000 N   0  0  0  0  0  0  0  0  0  0  0  0
  1  2  1  0
  2  3  2  0
  3  4  1  0
  4  5  1  0
  5  6  1  0
  6  7  1  0
  7  8  1  0
  8  9  1  0
  9 10  1  0
 10 11  1  0
 11  6  1  0
  9 12  1  0
 12 13  2  0
 13 14  1  0
 14 15  1  0
 15 16  2  0
 16 17  1  0
 17 18  1  0
 17 19  2  0
 19 20  1  0
 20 21  2  0
 21 12  1  0
 21 15  1  0
  3 22  1  0
 22 23  2  0
 22 24  1  0
 24 25  1  0
 25 26  1  0
 26 27  1  0
 27 28  1  0
 28 29  1  0
 29 24  1  0
 29 30  2  0
 30  2  1  0
M  END
>  <Classification>  (20) 
0

>  <pchembl>  (20) 
4.96

>  <InChI_steorem>  (20) 
InChI=1S/C23H27FN4O2/c1-15-18(23(29)28-10-3-2-4-21(28)25-15)9-13-27-11-7-16(8-12-27)22-19-6-5-17(24)14-20(19)30-26-22/h5-6,14,16H,2-4,7-13H2,1H3

>  <source>  (20) 
ChEMBL25

>  <source_id>  (20) 
25

>  <optional_reference>  (20) 
10.1021/jm301302s

>  <optional_origin>  (20) 
None

>  <target>  (20) 
OCT2

$$$$

     RDKit          2D

 29 30  0  0  0  0  0  0  0  0999 V2000
    6.2253   -8.1139    0.0000 C   0  0  0  0  0  0  0  0  0  0  0  0
    5.1873   -7.5117    0.0000 N   0  0  0  0  0  0  0  0  0  0  0  0
    4.1470   -8.1099    0.0000 C   0  0  0  0  0  0  0  0  0  0  0  0
    5.1894   -6.0109    0.0000 C   0  0  0  0  0  0  0  0  0  0  0  0
    6.2297   -5.4127    0.0000 O   0  0  0  0  0  0  0  0  0  0  0  0
    3.8912   -5.2578    0.0000 C   0  0  0  0  0  0  0  0  0  0  0  0
    3.8933   -3.7570    0.0000 O   0  0  0  0  0  0  0  0  0  0  0  0
    2.5951   -3.0039    0.0000 C   0  0  0  0  0  0  0  0  0  0  0  0
    1.5548   -3.6021    0.0000 O   0  0  0  0  0  0  0  0  0  0  0  0
    2.5973   -1.5031    0.0000 C   0  0  0  0  0  0  0  0  0  0  0  0
    1.2990   -0.7500    0.0000 C   0  0  0  0  0  0  0  0  0  0  0  0
    1.2990    0.7500    0.0000 C   0  0  0  0  0  0  0  0  0  0  0  0
    0.0000    1.5000    0.0000 C   0  0  0  0  0  0  0  0  0  0  0  0
   -1.2990    0.7500    0.0000 C   0  0  0  0  0  0  0  0  0  0  0  0
   -2.6003    1.4977    0.0000 O   0  0  0  0  0  0  0  0  0  0  0  0
   -3.8990    0.7455    0.0000 C   0  0  0  0  0  0  0  0  0  0  0  0
   -3.8969   -0.4545    0.0000 O   0  0  0  0  0  0  0  0  0  0  0  0
   -5.2003    1.4932    0.0000 C   0  0  0  0  0  0  0  0  0  0  0  0
   -6.4994    0.7432    0.0000 C   0  0  0  0  0  0  0  0  0  0  0  0
   -7.7985    1.4932    0.0000 C   0  0  0  0  0  0  0  0  0  0  0  0
   -7.7985    2.9932    0.0000 C   0  0  0  0  0  0  0  0  0  0  0  0
   -9.0967    3.7462    0.0000 N   0  0  0  0  0  0  0  0  0  0  0  0
   -9.0947    5.2471    0.0000 C   0  0  0  0  0  0  0  0  0  0  0  0
  -10.1327    5.8492    0.0000 N   0  0  0  0  0  0  0  0  0  0  0  0
   -8.0544    5.8453    0.0000 N   0  0  0  0  0  0  0  0  0  0  0  0
   -6.4995    3.7432    0.0000 C   0  0  0  0  0  0  0  0  0  0  0  0
   -5.2004    2.9933    0.0000 C   0  0  0  0  0  0  0  0  0  0  0  0
   -1.2990   -0.7500    0.0000 C   0  0  0  0  0  0  0  0  0  0  0  0
    0.0000   -1.5000    0.0000 C   0  0  0  0  0  0  0  0  0  0  0  0
  1  2  1  0
  2  3  1  0
  2  4  1  0
  4  5  2  0
  4  6  1  0
  6  7  1  0
  7  8  1  0
  8  9  2  0
  8 10  1  0
 10 11  1  0
 11 12  2  0
 12 13  1  0
 13 14  2  0
 14 15  1  0
 15 16  1  0
 16 17  2  0
 16 18  1  0
 18 19  2  0
 19 20  1  0
 20 21  2  0
 21 22  1  0
 22 23  1  0
 23 24  2  0
 23 25  1  0
 21 26  1  0
 26 27  2  0
 27 18  1  0
 14 28  1  0
 28 29  2  0
 29 11  1  0
M  END
>  <Classification>  (21) 
0

>  <pchembl>  (21) 
4.78

>  <InChI_steorem>  (21) 
InChI=1S/C20H22N4O5/c1-24(2)17(25)12-28-18(26)11-13-3-9-16(10-4-13)29-19(27)14-5-7-15(8-6-14)23-20(21)22/h3-10H,11-12H2,1-2H3,(H4,21,22,23)

>  <source>  (21) 
ChEMBL25

>  <source_id>  (21) 
25

>  <optional_reference>  (21) 
10.1021/jm301302s

>  <optional_origin>  (21) 
None

>  <target>  (21) 
OCT2

$$$$

     RDKit          2D

 23 26  0  0  0  0  0  0  0  0999 V2000
    1.7486   -0.5188    0.0000 C   0  0  0  0  0  0  0  0  0  0  0  0
    2.5607   -0.3736    0.0000 C   0  0  0  0  0  0  0  0  0  0  0  0
    2.8410    0.4023    0.0000 C   0  0  0  0  0  0  0  0  0  0  0  0
    3.6531    0.5475    0.0000 O   0  0  0  0  0  0  0  0  0  0  0  0
    2.3092    1.0330    0.0000 C   0  0  0  0  0  0  0  0  0  0  0  0
    1.4971    0.8878    0.0000 C   0  0  0  0  0  0  0  0  0  0  0  0
    0.9653    1.5185    0.0000 C   0  0  0  0  0  0  0  0  0  0  0  0
    0.1531    1.3733    0.0000 C   0  0  0  0  0  0  0  0  0  0  0  0
   -0.1272    0.5974    0.0000 C   0  0  0  0  0  0  0  0  0  0  0  0
    0.4047   -0.0334    0.0000 C   0  0  0  0  0  0  0  0  0  0  0  0
    1.2168    0.1119    0.0000 C   0  0  0  0  0  0  0  0  0  0  0  0
    0.1244   -0.8093    0.0000 C   0  0  0  0  0  0  0  0  0  0  0  0
   -0.6878   -0.9545    0.0000 C   0  0  0  0  0  0  0  0  0  0  0  0
   -1.2196   -0.3238    0.0000 C   0  0  0  0  0  0  0  0  0  0  0  0
   -0.9393    0.4521    0.0000 C   0  0  0  0  0  0  0  0  0  0  0  0
   -1.5906    0.9585    0.0000 C   0  0  0  0  0  0  0  0  0  0  0  0
   -2.2735    0.4955    0.0000 C   0  0  0  0  0  0  0  0  0  0  0  0
   -2.0441   -0.2970    0.0000 C   0  0  0  0  0  0  0  0  0  0  0  0
   -1.5795   -1.0662    0.0000 C   0  0  0  0  0  0  0  0  0  0  0  0
    0.9365   -0.6641    0.0000 C   0  0  0  0  0  0  0  0  0  0  0  0
   -2.5505   -0.9483    0.0000 C   0  0  0  0  0  0  0  0  0  0  0  0
   -2.2396   -1.7125    0.0000 O   0  0  0  0  0  0  0  0  0  0  0  0
   -3.3677   -0.8355    0.0000 C   0  0  0  0  0  0  0  0  0  0  0  0
  1  2  1  0
  1 11  1  0
  2  3  1  0
  3  4  2  0
  3  5  1  0
  5  6  2  0
  6  7  1  0
 11  6  1  0
  7  8  1  0
  9  8  1  0
  9 10  1  0
 15  9  1  0
 11 10  1  0
 10 12  1  0
 11 20  1  0
 12 13  1  0
 13 14  1  0
 14 15  1  0
 14 18  1  0
 14 19  1  0
 15 16  1  0
 16 17  1  0
 17 18  1  0
 18 21  1  0
 21 22  2  0
 21 23  1  0
M  END
>  <Classification>  (22) 
0

>  <pchembl>  (22) 
4.57

>  <InChI_steorem>  (22) 
InChI=1S/C21H30O2/c1-13(22)17-6-7-18-16-5-4-14-12-15(23)8-10-20(14,2)19(16)9-11-21(17,18)3/h12,16-19H,4-11H2,1-3H3

>  <source>  (22) 
ChEMBL25

>  <source_id>  (22) 
25

>  <optional_reference>  (22) 
10.1038/sj.bjp.0704785

>  <optional_origin>  (22) 
None

>  <target>  (22) 
OCT2

$$$$

     RDKit          2D

 25 28  0  0  0  0  0  0  0  0999 V2000
    1.9288   -0.4166    0.0000 C   0  0  0  0  0  0  0  0  0  0  0  0
    2.7409   -0.2714    0.0000 C   0  0  0  0  0  0  0  0  0  0  0  0
    3.0212    0.5046    0.0000 C   0  0  0  0  0  0  0  0  0  0  0  0
    2.4894    1.1353    0.0000 C   0  0  0  0  0  0  0  0  0  0  0  0
    1.6773    0.9900    0.0000 C   0  0  0  0  0  0  0  0  0  0  0  0
    1.1455    1.6208    0.0000 C   0  0  0  0  0  0  0  0  0  0  0  0
    0.3333    1.4755    0.0000 C   0  0  0  0  0  0  0  0  0  0  0  0
    0.0530    0.6996    0.0000 C   0  0  0  0  0  0  0  0  0  0  0  0
    0.5849    0.0689    0.0000 C   0  0  0  0  0  0  0  0  0  0  0  0
    1.3970    0.2141    0.0000 C   0  0  0  0  0  0  0  0  0  0  0  0
    0.3046   -0.7070    0.0000 C   0  0  0  0  0  0  0  0  0  0  0  0
   -0.5076   -0.8522    0.0000 C   0  0  0  0  0  0  0  0  0  0  0  0
   -1.0394   -0.2215    0.0000 C   0  0  0  0  0  0  0  0  0  0  0  0
   -0.7591    0.5544    0.0000 C   0  0  0  0  0  0  0  0  0  0  0  0
   -1.4104    1.0608    0.0000 C   0  0  0  0  0  0  0  0  0  0  0  0
   -2.0932    0.5978    0.0000 C   0  0  0  0  0  0  0  0  0  0  0  0
   -1.8639   -0.1947    0.0000 C   0  0  0  0  0  0  0  0  0  0  0  0
   -1.3992   -0.9639    0.0000 C   0  0  0  0  0  0  0  0  0  0  0  0
    1.1167   -0.5618    0.0000 C   0  0  0  0  0  0  0  0  0  0  0  0
   -2.3703   -0.8460    0.0000 C   0  0  0  0  0  0  0  0  0  0  0  0
   -3.1875   -0.7332    0.0000 C   0  0  0  0  0  0  0  0  0  0  0  0
    3.8333    0.6498    0.0000 O   0  0  0  0  0  0  0  0  0  0  0  0
    0.8364   -1.3377    0.0000 O   0  0  0  0  0  0  0  0  0  0  0  0
   -2.0594   -1.6102    0.0000 O   0  0  0  0  0  0  0  0  0  0  0  0
   -3.6939   -1.3845    0.0000 O   0  0  0  0  0  0  0  0  0  0  0  0
  1  2  1  0
  1 10  1  0
  2  3  1  0
  3  4  1  0
  3 22  2  0
  4  5  2  0
  5  6  1  0
 10  5  1  0
  6  7  1  0
  8  7  1  0
  8  9  1  0
 14  8  1  0
 10  9  1  0
  9 11  1  0
 10 19  1  0
 11 12  1  0
 11 23  1  0
 12 13  1  0
 13 14  1  0
 13 17  1  0
 13 18  1  0
 14 15  1  0
 15 16  1  0
 16 17  1  0
 17 20  1  0
 20 21  1  0
 20 24  2  0
 21 25  1  0
M  END
>  <Classification>  (23) 
0

>  <pchembl>  (23) 
4.47

>  <InChI_steorem>  (23) 
InChI=1S/C21H30O4/c1-20-8-7-13(23)9-12(20)3-4-14-15-5-6-16(18(25)11-22)21(15,2)10-17(24)19(14)20/h9,14-17,19,22,24H,3-8,10-11H2,1-2H3

>  <source>  (23) 
ChEMBL25

>  <source_id>  (23) 
25

>  <optional_reference>  (23) 
10.1038/sj.bjp.0704785

>  <optional_origin>  (23) 
None

>  <target>  (23) 
OCT2

$$$$

     RDKit          2D

 31 35  0  0  0  0  0  0  0  0999 V2000
    5.2167   -4.4667    0.0000 N   0  0  0  0  0  0  0  0  0  0  0  0
    6.2542   -5.1542    0.0000 C   0  0  0  0  0  0  0  0  0  0  0  0
    4.8417   -5.0417    0.0000 C   0  0  0  0  0  0  0  0  0  0  0  0
    5.8500   -5.7542    0.0000 C   0  0  0  0  0  0  0  0  0  0  0  0
    5.9417   -4.5083    0.0000 C   0  0  0  0  0  0  0  0  0  0  0  0
    4.1417   -4.8250    0.0000 C   0  0  0  0  0  0  0  0  0  0  0  0
    5.1417   -5.7000    0.0000 C   0  0  0  0  0  0  0  0  0  0  0  0
    4.1417   -4.1167    0.0000 C   0  0  0  0  0  0  0  0  0  0  0  0
    3.5625   -5.1917    0.0000 N   0  0  0  0  0  0  0  0  0  0  0  0
    6.1667   -6.3917    0.0000 C   0  0  0  0  0  0  0  0  0  0  0  0
    2.3167   -3.7667    0.0000 C   0  0  0  0  0  0  0  0  0  0  0  0
    4.8417   -3.9042    0.0000 C   0  0  0  0  0  0  0  0  0  0  0  0
    2.9250   -4.1292    0.0000 C   0  0  0  0  0  0  0  0  0  0  0  0
    6.8750   -6.4417    0.0000 C   0  0  0  0  0  0  0  0  0  0  0  0
    3.5625   -3.7417    0.0000 C   0  0  0  0  0  0  0  0  0  0  0  0
    2.9250   -4.8250    0.0000 C   0  0  0  0  0  0  0  0  0  0  0  0
    6.9542   -5.2042    0.0000 C   0  0  0  0  0  0  0  0  0  0  0  0
    7.2667   -5.8500    0.0000 O   0  0  0  0  0  0  0  0  0  0  0  0
    1.7000   -4.1292    0.0000 C   0  0  0  0  0  0  0  0  0  0  0  0
    6.3125   -3.9167    0.0000 O   0  0  0  0  0  0  0  0  0  0  0  0
    2.3167   -3.0667    0.0000 C   0  0  0  0  0  0  0  0  0  0  0  0
    7.2500   -6.9917    0.0000 O   0  0  0  0  0  0  0  0  0  0  0  0
    2.3167   -5.1917    0.0000 C   0  0  0  0  0  0  0  0  0  0  0  0
    1.7000   -4.8250    0.0000 C   0  0  0  0  0  0  0  0  0  0  0  0
    5.4167   -6.3250    0.0000 O   0  0  0  0  0  0  0  0  0  0  0  0
    2.9167   -2.7292    0.0000 N   0  0  0  0  0  0  0  0  0  0  0  0
    6.4375   -7.0667    0.0000 C   0  0  0  0  0  0  0  0  0  0  0  0
    1.0792   -3.7667    0.0000 O   0  0  0  0  0  0  0  0  0  0  0  0
    3.5167   -3.0875    0.0000 C   0  0  0  0  0  0  0  0  0  0  0  0
    2.9167   -2.0167    0.0000 C   0  0  0  0  0  0  0  0  0  0  0  0
    6.0417   -7.6667    0.0000 C   0  0  0  0  0  0  0  0  0  0  0  0
  2  5  1  0
  3  1  1  0
  4  2  2  0
  5  1  1  0
  6  3  1  0
  7  3  2  0
  8 12  1  0
  9  6  2  0
 10  4  1  0
 11 13  2  0
 12  1  1  0
 13 15  1  0
 14 18  1  0
 15  8  2  0
 16  9  1  0
 17  2  1  0
 18 17  1  0
 19 11  1  0
 20  5  2  0
 21 11  1  0
 22 14  2  0
 23 16  2  0
 24 23  1  0
 25 10  1  0
 26 21  1  0
 10 27  1  0
 28 19  1  0
 29 26  1  0
 30 26  1  0
 31 27  1  0
  8  6  1  0
  4  7  1  0
 13 16  1  0
 10 14  1  0
 19 24  2  0
M  END
>  <Classification>  (24) 
0

>  <pchembl>  (24) 
4.21

>  <InChI_steorem>  (24) 
InChI=1S/C23H23N3O5/c1-4-23(30)16-8-18-20-12(9-26(18)21(28)15(16)11-31-22(23)29)7-13-14(10-25(2)3)19(27)6-5-17(13)24-20/h5-8,27,30H,4,9-11H2,1-3H3

>  <source>  (24) 
ChEMBL25

>  <source_id>  (24) 
25

>  <optional_reference>  (24) 
10.1021/jm301302s

>  <optional_origin>  (24) 
None

>  <target>  (24) 
OCT2

$$$$

     RDKit          2D

 34 35  0  0  0  0  0  0  0  0999 V2000
    1.1417   -4.2500    0.0000 C   0  0  0  0  0  0  0  0  0  0  0  0
    9.1125   -3.9417    0.0000 C   0  0  0  0  0  0  0  0  0  0  0  0
    8.4917   -4.2917    0.0000 N   0  0  0  0  0  0  0  0  0  0  0  0
    1.7625   -3.8792    0.0000 N   0  0  0  0  0  0  0  0  0  0  0  0
    2.3667   -4.2500    0.0000 C   0  0  0  0  0  0  0  0  0  0  0  0
    7.8875   -3.9375    0.0000 C   0  0  0  0  0  0  0  0  0  0  0  0
    0.5375   -3.8792    0.0000 N   0  0  0  0  0  0  0  0  0  0  0  0
    9.7125   -4.3042    0.0000 N   0  0  0  0  0  0  0  0  0  0  0  0
    1.1417   -4.9500    0.0000 N   0  0  0  0  0  0  0  0  0  0  0  0
    9.1167   -3.2292    0.0000 N   0  0  0  0  0  0  0  0  0  0  0  0
    7.8917   -3.2167    0.0000 N   0  0  0  0  0  0  0  0  0  0  0  0
    2.3667   -4.9542    0.0000 N   0  0  0  0  0  0  0  0  0  0  0  0
    2.9917   -3.9000    0.0000 N   0  0  0  0  0  0  0  0  0  0  0  0
    7.2667   -4.2792    0.0000 N   0  0  0  0  0  0  0  0  0  0  0  0
   -0.0833   -4.2167    0.0000 C   0  0  0  0  0  0  0  0  0  0  0  0
   10.3500   -3.9417    0.0000 C   0  0  0  0  0  0  0  0  0  0  0  0
   -1.3208   -4.9375    0.0000 C   0  0  0  0  0  0  0  0  0  0  0  0
   11.5792   -3.2542    0.0000 C   0  0  0  0  0  0  0  0  0  0  0  0
   -1.9333   -5.2667    0.0000 Cl  0  0  0  0  0  0  0  0  0  0  0  0
   12.1792   -2.9000    0.0000 Cl  0  0  0  0  0  0  0  0  0  0  0  0
   -0.6958   -3.8750    0.0000 C   0  0  0  0  0  0  0  0  0  0  0  0
   -0.0833   -4.9375    0.0000 C   0  0  0  0  0  0  0  0  0  0  0  0
   10.3500   -3.2417    0.0000 C   0  0  0  0  0  0  0  0  0  0  0  0
   10.9417   -4.3125    0.0000 C   0  0  0  0  0  0  0  0  0  0  0  0
   -0.7083   -5.2917    0.0000 C   0  0  0  0  0  0  0  0  0  0  0  0
   -1.3125   -4.2167    0.0000 C   0  0  0  0  0  0  0  0  0  0  0  0
   10.9542   -2.8875    0.0000 C   0  0  0  0  0  0  0  0  0  0  0  0
   11.5667   -3.9542    0.0000 C   0  0  0  0  0  0  0  0  0  0  0  0
    3.6125   -4.2583    0.0000 C   0  0  0  0  0  0  0  0  0  0  0  0
    6.6542   -3.9167    0.0000 C   0  0  0  0  0  0  0  0  0  0  0  0
    6.0167   -4.2750    0.0000 C   0  0  0  0  0  0  0  0  0  0  0  0
    4.2167   -3.9000    0.0000 C   0  0  0  0  0  0  0  0  0  0  0  0
    4.8375   -4.2750    0.0000 C   0  0  0  0  0  0  0  0  0  0  0  0
    5.4125   -3.9167    0.0000 C   0  0  0  0  0  0  0  0  0  0  0  0
  2  3  1  0
  3  6  1  0
  4  1  1  0
  5  4  1  0
  6 14  1  0
  7  1  1  0
  8  2  1  0
  9  1  2  0
 10  2  2  0
 11  6  2  0
 12  5  2  0
 13  5  1  0
 14 30  1  0
 15  7  1  0
 16  8  1  0
 17 25  2  0
 18 28  2  0
 19 17  1  0
 20 18  1  0
 21 15  1  0
 22 15  2  0
 23 16  1  0
 24 16  2  0
 25 22  1  0
 26 21  2  0
 27 23  2  0
 28 24  1  0
 29 13  1  0
 30 31  1  0
 31 34  1  0
 32 29  1  0
 33 32  1  0
 34 33  1  0
 26 17  1  0
 27 18  1  0
M  END
>  <Classification>  (25) 
1

>  <pchembl>  (25) 
6.4

>  <InChI_steorem>  (25) 
InChI=1S/C22H30Cl2N10/c23-15-5-9-17(10-6-15)31-21(27)33-19(25)29-13-3-1-2-4-14-30-20(26)34-22(28)32-18-11-7-16(24)8-12-18/h5-12H,1-4,13-14H2,(H5,25,27,29,31,33)(H5,26,28,30,32,34)

>  <source>  (25) 
ChEMBL25

>  <source_id>  (25) 
25

>  <optional_reference>  (25) 
10.1021/jm301302s

>  <optional_origin>  (25) 
None

>  <target>  (25) 
OCT2

$$$$

     RDKit          2D

 43 49  0  0  0  0  0  0  0  0999 V2000
    4.1667   -6.3875    0.0000 N   0  0  0  0  0  0  0  0  0  0  0  0
    5.1667   -7.1000    0.0000 C   0  0  0  0  0  0  0  0  0  0  0  0
    3.7625   -6.9583    0.0000 C   0  0  0  0  0  0  0  0  0  0  0  0
    4.7542   -7.6750    0.0000 C   0  0  0  0  0  0  0  0  0  0  0  0
    4.8792   -6.4542    0.0000 C   0  0  0  0  0  0  0  0  0  0  0  0
    3.0917   -6.7458    0.0000 C   0  0  0  0  0  0  0  0  0  0  0  0
    3.0875   -6.0458    0.0000 C   0  0  0  0  0  0  0  0  0  0  0  0
    4.0542   -7.6042    0.0000 C   0  0  0  0  0  0  0  0  0  0  0  0
    2.4917   -7.1000    0.0000 N   0  0  0  0  0  0  0  0  0  0  0  0
    5.0375   -8.3167    0.0000 C   0  0  0  0  0  0  0  0  0  0  0  0
    3.7500   -5.8208    0.0000 C   0  0  0  0  0  0  0  0  0  0  0  0
   -0.5625   -6.0750    0.0000 C   0  0  0  0  0  0  0  0  0  0  0  0
    2.4792   -5.7042    0.0000 C   0  0  0  0  0  0  0  0  0  0  0  0
   -1.1750   -5.7208    0.0000 N   0  0  0  0  0  0  0  0  0  0  0  0
    5.7417   -8.3917    0.0000 C   0  0  0  0  0  0  0  0  0  0  0  0
    1.8792   -6.0583    0.0000 C   0  0  0  0  0  0  0  0  0  0  0  0
    1.8833   -6.7583    0.0000 C   0  0  0  0  0  0  0  0  0  0  0  0
    5.8708   -7.1708    0.0000 C   0  0  0  0  0  0  0  0  0  0  0  0
    6.1583   -7.8167    0.0000 O   0  0  0  0  0  0  0  0  0  0  0  0
   -3.0125   -4.6667    0.0000 N   0  0  0  0  0  0  0  0  0  0  0  0
    0.0500   -5.7208    0.0000 O   0  0  0  0  0  0  0  0  0  0  0  0
   -2.4042   -5.0208    0.0000 C   0  0  0  0  0  0  0  0  0  0  0  0
    5.2917   -5.8792    0.0000 O   0  0  0  0  0  0  0  0  0  0  0  0
    1.2708   -5.7125    0.0000 C   0  0  0  0  0  0  0  0  0  0  0  0
   -2.4000   -5.7292    0.0000 C   0  0  0  0  0  0  0  0  0  0  0  0
   -1.7917   -4.6625    0.0000 C   0  0  0  0  0  0  0  0  0  0  0  0
   -1.7875   -6.0792    0.0000 C   0  0  0  0  0  0  0  0  0  0  0  0
   -1.1750   -5.0167    0.0000 C   0  0  0  0  0  0  0  0  0  0  0  0
   -0.5625   -6.7833    0.0000 O   0  0  0  0  0  0  0  0  0  0  0  0
    0.6667   -6.0708    0.0000 C   0  0  0  0  0  0  0  0  0  0  0  0
    6.0333   -9.0375    0.0000 O   0  0  0  0  0  0  0  0  0  0  0  0
    1.2875   -7.1125    0.0000 C   0  0  0  0  0  0  0  0  0  0  0  0
    4.4000   -8.6125    0.0000 O   0  0  0  0  0  0  0  0  0  0  0  0
    0.6792   -6.7708    0.0000 C   0  0  0  0  0  0  0  0  0  0  0  0
    4.9708   -9.0250    0.0000 C   0  0  0  0  0  0  0  0  0  0  0  0
    2.4750   -4.9958    0.0000 C   0  0  0  0  0  0  0  0  0  0  0  0
   -3.6250   -5.0250    0.0000 C   0  0  0  0  0  0  0  0  0  0  0  0
   -3.0167   -3.9625    0.0000 C   0  0  0  0  0  0  0  0  0  0  0  0
    4.3292   -9.3208    0.0000 C   0  0  0  0  0  0  0  0  0  0  0  0
    3.0833   -4.6333    0.0000 C   0  0  0  0  0  0  0  0  0  0  0  0
   -3.6333   -3.6125    0.0000 C   0  0  0  0  0  0  0  0  0  0  0  0
   -4.2375   -4.6792    0.0000 C   0  0  0  0  0  0  0  0  0  0  0  0
   -4.2458   -3.9708    0.0000 C   0  0  0  0  0  0  0  0  0  0  0  0
  2  5  1  0
  3  1  1  0
  4  8  1  0
  5  1  1  0
  6  3  1  0
  7 11  1  0
  8  3  2  0
  9  6  2  0
 10  4  1  0
 11  1  1  0
 12 21  1  0
 13  7  2  0
 14 12  1  0
 15 10  1  0
 16 13  1  0
 17  9  1  0
 18  2  1  0
 19 18  1  0
 20 22  1  0
 21 30  1  0
 22 26  1  0
 23  5  2  0
 24 16  2  0
 25 27  1  0
 26 28  1  0
 27 14  1  0
 28 14  1  0
 29 12  2  0
 30 24  1  0
 31 15  2  0
 32 17  2  0
 33 10  1  0
 34 32  1  0
 10 35  1  0
 36 13  1  0
 37 20  1  0
 38 20  1  0
 39 35  1  0
 40 36  1  0
 41 38  1  0
 42 37  1  0
 43 41  1  0
  7  6  1  0
  4  2  2  0
 16 17  1  0
 15 19  1  0
 34 30  2  0
 22 25  1  0
 43 42  1  0
M  END
>  <Classification>  (26) 
1

>  <pchembl>  (26) 
5.57

>  <InChI_steorem>  (26) 
InChI=1S/C33H38N4O6/c1-3-22-23-16-21(43-32(40)36-14-10-20(11-15-36)35-12-6-5-7-13-35)8-9-27(23)34-29-24(22)18-37-28(29)17-26-25(30(37)38)19-42-31(39)33(26,41)4-2/h8-9,16-17,20,41H,3-7,10-15,18-19H2,1-2H3

>  <source>  (26) 
ChEMBL25

>  <source_id>  (26) 
25

>  <optional_reference>  (26) 
10.1021/jm301302s

>  <optional_origin>  (26) 
None

>  <target>  (26) 
OCT2

$$$$

     RDKit          2D

 43 50  0  0  0  0  0  0  0  0999 V2000
    8.1792   -7.9042    0.0000 C   0  0  0  0  0  0  0  0  0  0  0  0
    7.9667   -8.5625    0.0000 N   0  0  0  0  0  0  0  0  0  0  0  0
    7.6000   -7.4750    0.0000 O   0  0  0  0  0  0  0  0  0  0  0  0
    7.0250   -7.9000    0.0000 C   0  0  0  0  0  0  0  0  0  0  0  0
    7.2542   -8.5625    0.0000 C   0  0  0  0  0  0  0  0  0  0  0  0
    9.1125   -8.9375    0.0000 C   0  0  0  0  0  0  0  0  0  0  0  0
    8.4292   -9.0750    0.0000 C   0  0  0  0  0  0  0  0  0  0  0  0
    9.3250   -8.2750    0.0000 N   0  0  0  0  0  0  0  0  0  0  0  0
    5.1875   -9.7000    0.0000 C   0  0  0  0  0  0  0  0  0  0  0  0
    5.1875  -11.1250    0.0000 C   0  0  0  0  0  0  0  0  0  0  0  0
    8.8625   -7.7625    0.0000 C   0  0  0  0  0  0  0  0  0  0  0  0
    5.8042  -10.0542    0.0000 C   0  0  0  0  0  0  0  0  0  0  0  0
    4.5750  -10.0625    0.0000 C   0  0  0  0  0  0  0  0  0  0  0  0
    6.4167   -7.5750    0.0000 N   0  0  0  0  0  0  0  0  0  0  0  0
    6.4167   -9.7000    0.0000 N   0  0  0  0  0  0  0  0  0  0  0  0
    5.8042   -8.6375    0.0000 C   0  0  0  0  0  0  0  0  0  0  0  0
    4.5750  -10.7625    0.0000 C   0  0  0  0  0  0  0  0  0  0  0  0
    5.8042   -7.9292    0.0000 C   0  0  0  0  0  0  0  0  0  0  0  0
    5.8042  -10.7625    0.0000 C   0  0  0  0  0  0  0  0  0  0  0  0
    5.1875   -8.9917    0.0000 C   0  0  0  0  0  0  0  0  0  0  0  0
    4.8917  -11.8375    0.0000 C   0  0  0  0  0  0  0  0  0  0  0  0
    4.1875  -11.8375    0.0000 N   0  0  0  0  0  0  0  0  0  0  0  0
    6.4167   -8.9917    0.0000 C   0  0  0  0  0  0  0  0  0  0  0  0
    3.9542  -11.1250    0.0000 C   0  0  0  0  0  0  0  0  0  0  0  0
    8.0750   -9.7000    0.0000 C   0  0  0  0  0  0  0  0  0  0  0  0
    9.5875   -9.4625    0.0000 O   0  0  0  0  0  0  0  0  0  0  0  0
    8.3625   -7.2167    0.0000 O   0  0  0  0  0  0  0  0  0  0  0  0
    6.8417   -9.1375    0.0000 O   0  0  0  0  0  0  0  0  0  0  0  0
    5.1875   -7.5750    0.0000 O   0  0  0  0  0  0  0  0  0  0  0  0
    9.9500   -7.9917    0.0000 C   0  0  0  0  0  0  0  0  0  0  0  0
    7.0250   -7.1000    0.0000 C   0  0  0  0  0  0  0  0  0  0  0  0
    3.9542   -9.7000    0.0000 C   0  0  0  0  0  0  0  0  0  0  0  0
    7.0292  -10.0542    0.0000 C   0  0  0  0  0  0  0  0  0  0  0  0
    8.4250  -10.3125    0.0000 C   0  0  0  0  0  0  0  0  0  0  0  0
    9.2000   -7.1625    0.0000 C   0  0  0  0  0  0  0  0  0  0  0  0
    9.8792   -7.3042    0.0000 C   0  0  0  0  0  0  0  0  0  0  0  0
    3.3417  -10.0625    0.0000 C   0  0  0  0  0  0  0  0  0  0  0  0
    3.3417  -10.7625    0.0000 C   0  0  0  0  0  0  0  0  0  0  0  0
    8.0750  -10.9250    0.0000 C   0  0  0  0  0  0  0  0  0  0  0  0
    9.1375  -10.3125    0.0000 C   0  0  0  0  0  0  0  0  0  0  0  0
    9.4875  -10.9250    0.0000 C   0  0  0  0  0  0  0  0  0  0  0  0
    8.4250  -11.5375    0.0000 C   0  0  0  0  0  0  0  0  0  0  0  0
    9.1375  -11.5375    0.0000 C   0  0  0  0  0  0  0  0  0  0  0  0
  2  1  1  0
  3  1  1  0
  4  3  1  0
  5  2  1  0
  6  8  1  0
  7  2  1  0
  8 11  1  0
  9 20  1  0
 10 19  1  0
 11  1  1  0
 12 15  1  0
 13  9  1  0
 14  4  1  0
 15 23  1  0
 16 18  1  0
 17 13  2  0
 18 14  1  0
 19 12  1  0
 20 16  1  0
 21 10  2  0
 22 24  1  0
 23 16  1  0
 24 17  1  0
  7 25  1  0
 26  6  2  0
  1 27  1  0
 28  5  2  0
 29 18  2  0
 30  8  1  0
  4 31  1  0
 32 13  1  0
 33 15  1  0
 34 25  1  0
 35 11  1  0
 36 35  1  0
 37 32  2  0
 38 37  1  0
 39 34  2  0
 40 34  1  0
 41 40  2  0
 42 39  1  0
 43 41  1  0
  6  7  1  0
  5  4  1  0
 36 30  1  0
 43 42  2  0
 12  9  1  0
 10 17  1  0
 38 24  2  0
 21 22  1  0
M  END
>  <Classification>  (27) 
0

>  <pchembl>  (27) 
4.3

>  <InChI_steorem>  (27) 
InChI=1S/C33H37N5O5/c1-32(35-29(39)21-15-23-22-10-6-11-24-28(22)20(17-34-24)16-25(23)36(2)18-21)31(41)38-26(14-19-8-4-3-5-9-19)30(40)37-13-7-12-27(37)33(38,42)43-32/h3-6,8-11,17,21,23,25-27,34,42H,7,12-16,18H2,1-2H3,(H,35,39)

>  <source>  (27) 
ChEMBL25

>  <source_id>  (27) 
25

>  <optional_reference>  (27) 
10.1021/jm301302s

>  <optional_origin>  (27) 
None

>  <target>  (27) 
OCT2

$$$$

     RDKit          2D

 21 23  0  0  0  0  0  0  0  0999 V2000
    5.6542   -5.9250    0.0000 N   0  0  0  0  0  0  0  0  0  0  0  0
    6.3000   -5.6167    0.0000 C   0  0  0  0  0  0  0  0  0  0  0  0
    5.0167   -5.6042    0.0000 C   0  0  0  0  0  0  0  0  0  0  0  0
    6.4667   -4.9292    0.0000 C   0  0  0  0  0  0  0  0  0  0  0  0
    4.8750   -4.9042    0.0000 C   0  0  0  0  0  0  0  0  0  0  0  0
    6.0417   -4.3792    0.0000 C   0  0  0  0  0  0  0  0  0  0  0  0
    5.3292   -4.3625    0.0000 C   0  0  0  0  0  0  0  0  0  0  0  0
    5.6500   -6.6167    0.0000 C   0  0  0  0  0  0  0  0  0  0  0  0
    5.0250   -6.9667    0.0000 C   0  0  0  0  0  0  0  0  0  0  0  0
    4.3875   -8.0250    0.0000 N   0  0  0  0  0  0  0  0  0  0  0  0
    4.5042   -6.0750    0.0000 C   0  0  0  0  0  0  0  0  0  0  0  0
    6.8167   -6.1125    0.0000 C   0  0  0  0  0  0  0  0  0  0  0  0
    5.0042   -7.6792    0.0000 C   0  0  0  0  0  0  0  0  0  0  0  0
    4.2000   -4.6917    0.0000 C   0  0  0  0  0  0  0  0  0  0  0  0
    7.1542   -4.7292    0.0000 C   0  0  0  0  0  0  0  0  0  0  0  0
    4.3792   -8.7375    0.0000 C   0  0  0  0  0  0  0  0  0  0  0  0
    3.7792   -7.6625    0.0000 C   0  0  0  0  0  0  0  0  0  0  0  0
    3.8250   -5.8542    0.0000 C   0  0  0  0  0  0  0  0  0  0  0  0
    7.4917   -5.9167    0.0000 C   0  0  0  0  0  0  0  0  0  0  0  0
    7.6667   -5.2292    0.0000 C   0  0  0  0  0  0  0  0  0  0  0  0
    3.6750   -5.1542    0.0000 C   0  0  0  0  0  0  0  0  0  0  0  0
  2  1  1  0
  3  1  1  0
  4  2  2  0
  5  3  2  0
  6  4  1  0
  7  5  1  0
  8  1  1  0
  9  8  1  0
 10 13  1  0
 11  3  1  0
 12  2  1  0
 13  9  1  0
 14  5  1  0
 15  4  1  0
 16 10  1  0
 17 10  1  0
 18 11  2  0
 19 12  2  0
 20 19  1  0
 21 18  1  0
  7  6  1  0
 21 14  2  0
 20 15  2  0
M  END
>  <Classification>  (28) 
1

>  <pchembl>  (28) 
6.22

>  <InChI_steorem>  (28) 
InChI=1S/C19H24N2/c1-20(2)14-7-15-21-18-10-5-3-8-16(18)12-13-17-9-4-6-11-19(17)21/h3-6,8-11H,7,12-15H2,1-2H3

>  <source>  (28) 
ChEMBL25

>  <source_id>  (28) 
25

>  <optional_reference>  (28) 
10.1021/jm2001629

>  <optional_origin>  (28) 
None

>  <target>  (28) 
OCT2

$$$$

     RDKit          2D

 17 17  0  0  0  0  0  0  0  0999 V2000
    4.6042   -7.0542    0.0000 C   0  0  0  0  0  0  0  0  0  0  0  0
    3.9792   -7.4042    0.0000 C   0  0  0  0  0  0  0  0  0  0  0  0
    4.6167   -6.3542    0.0000 O   0  0  0  0  0  0  0  0  0  0  0  0
    5.2042   -7.4292    0.0000 N   0  0  0  0  0  0  0  0  0  0  0  0
    3.3750   -7.0417    0.0000 C   0  0  0  0  0  0  0  0  0  0  0  0
    3.9667   -8.1167    0.0000 C   0  0  0  0  0  0  0  0  0  0  0  0
    2.7292   -8.0917    0.0000 C   0  0  0  0  0  0  0  0  0  0  0  0
    7.0667   -7.1042    0.0000 N   0  0  0  0  0  0  0  0  0  0  0  0
    2.1125   -8.4375    0.0000 N   0  0  0  0  0  0  0  0  0  0  0  0
    3.3417   -8.4625    0.0000 C   0  0  0  0  0  0  0  0  0  0  0  0
    2.7417   -7.3792    0.0000 C   0  0  0  0  0  0  0  0  0  0  0  0
    5.8292   -7.0875    0.0000 C   0  0  0  0  0  0  0  0  0  0  0  0
    6.4417   -7.4500    0.0000 C   0  0  0  0  0  0  0  0  0  0  0  0
    7.6792   -7.4792    0.0000 C   0  0  0  0  0  0  0  0  0  0  0  0
    7.0792   -6.3917    0.0000 C   0  0  0  0  0  0  0  0  0  0  0  0
    8.3042   -7.1292    0.0000 C   0  0  0  0  0  0  0  0  0  0  0  0
    7.7042   -6.0542    0.0000 C   0  0  0  0  0  0  0  0  0  0  0  0
  2  1  1  0
  3  1  2  0
  4  1  1  0
  5  2  2  0
  6  2  1  0
  7 10  1  0
  8 13  1  0
  9  7  1  0
 10  6  2  0
 11  5  1  0
 12  4  1  0
 13 12  1  0
 14  8  1  0
 15  8  1  0
 16 14  1  0
 17 15  1  0
  7 11  2  0
M  END
>  <Classification>  (29) 
0

>  <pchembl>  (29) 
4.3

>  <InChI_steorem>  (29) 
InChI=1S/C13H21N3O/c1-3-16(4-2)10-9-15-13(17)11-5-7-12(14)8-6-11/h5-8H,3-4,9-10,14H2,1-2H3,(H,15,17)

>  <source>  (29) 
ChEMBL25

>  <source_id>  (29) 
25

>  <optional_reference>  (29) 
10.1089/dna.1997.16.871

>  <optional_origin>  (29) 
None

>  <target>  (29) 
OCT2

$$$$

     RDKit          2D

 28 31  0  0  0  0  0  0  0  0999 V2000
    0.9375   -1.9792    0.0000 C   0  0  0  0  0  0  0  0  0  0  0  0
    0.9292   -2.6917    0.0000 N   0  0  0  0  0  0  0  0  0  0  0  0
   -0.3208   -2.6750    0.0000 C   0  0  0  0  0  0  0  0  0  0  0  0
    0.2875   -3.0417    0.0000 C   0  0  0  0  0  0  0  0  0  0  0  0
    0.3042   -1.6167    0.0000 N   0  0  0  0  0  0  0  0  0  0  0  0
   -0.3208   -1.9625    0.0000 C   0  0  0  0  0  0  0  0  0  0  0  0
    3.3917   -0.5917    0.0000 C   0  0  0  0  0  0  0  0  0  0  0  0
    1.5542   -1.6417    0.0000 N   0  0  0  0  0  0  0  0  0  0  0  0
    2.7792   -0.9542    0.0000 N   0  0  0  0  0  0  0  0  0  0  0  0
   -0.9500   -3.0167    0.0000 C   0  0  0  0  0  0  0  0  0  0  0  0
    4.0125   -0.9292    0.0000 C   0  0  0  0  0  0  0  0  0  0  0  0
   -0.9250   -1.5917    0.0000 C   0  0  0  0  0  0  0  0  0  0  0  0
   -1.5833   -2.6542    0.0000 C   0  0  0  0  0  0  0  0  0  0  0  0
   -1.5708   -1.9417    0.0000 C   0  0  0  0  0  0  0  0  0  0  0  0
    4.2417   -1.5917    0.0000 O   0  0  0  0  0  0  0  0  0  0  0  0
    1.5417   -0.9500    0.0000 C   0  0  0  0  0  0  0  0  0  0  0  0
    2.1667   -2.0000    0.0000 C   0  0  0  0  0  0  0  0  0  0  0  0
    2.1667   -0.5792    0.0000 C   0  0  0  0  0  0  0  0  0  0  0  0
    2.7792   -1.6375    0.0000 C   0  0  0  0  0  0  0  0  0  0  0  0
    3.4042    0.0875    0.0000 O   0  0  0  0  0  0  0  0  0  0  0  0
    4.5792   -0.5125    0.0000 C   0  0  0  0  0  0  0  0  0  0  0  0
    4.9417   -1.5917    0.0000 C   0  0  0  0  0  0  0  0  0  0  0  0
    5.1542   -0.9292    0.0000 C   0  0  0  0  0  0  0  0  0  0  0  0
    0.2667   -3.7542    0.0000 N   0  0  0  0  0  0  0  0  0  0  0  0
   -2.2000   -2.9917    0.0000 O   0  0  0  0  0  0  0  0  0  0  0  0
   -2.1833   -1.5792    0.0000 O   0  0  0  0  0  0  0  0  0  0  0  0
   -2.7958   -1.9125    0.0000 C   0  0  0  0  0  0  0  0  0  0  0  0
   -2.7958   -2.6542    0.0000 C   0  0  0  0  0  0  0  0  0  0  0  0
  2  1  2  0
  3  6  1  0
  4  2  1  0
  5  1  1  0
  6  5  2  0
  7  9  1  0
  8  1  1  0
  9 19  1  0
 10  3  1  0
 11  7  1  0
 12  6  1  0
 13 14  1  0
 14 12  2  0
 15 11  1  0
 16  8  1  0
 17  8  1  0
 18 16  1  0
 19 17  1  0
 20  7  2  0
 21 11  2  0
 22 15  1  0
 23 21  1  0
 24  4  1  0
 25 13  1  0
 26 14  1  0
 27 26  1  0
 28 25  1  0
  3  4  2  0
  9 18  1  0
 10 13  2  0
 22 23  2  0
M  END
>  <Classification>  (30) 
0

>  <pchembl>  (30) 
4.87

>  <InChI_steorem>  (30) 
InChI=1S/C19H21N5O4/c1-26-15-10-12-13(11-16(15)27-2)21-19(22-17(12)20)24-7-5-23(6-8-24)18(25)14-4-3-9-28-14/h3-4,9-11H,5-8H2,1-2H3,(H2,20,21,22)

>  <source>  (30) 
ChEMBL25

>  <source_id>  (30) 
25

>  <optional_reference>  (30) 
10.1021/jm301302s

>  <optional_origin>  (30) 
None

>  <target>  (30) 
OCT2

$$$$

     RDKit          2D

 32 34  0  0  0  0  0  0  0  0999 V2000
    3.7667   -0.4542    0.0000 C   0  0  0  0  0  0  0  0  0  0  0  0
    3.7667   -1.1667    0.0000 C   0  0  0  0  0  0  0  0  0  0  0  0
    2.5292   -0.4542    0.0000 C   0  0  0  0  0  0  0  0  0  0  0  0
    2.5292   -1.1667    0.0000 C   0  0  0  0  0  0  0  0  0  0  0  0
    3.1500   -0.0958    0.0000 C   0  0  0  0  0  0  0  0  0  0  0  0
    3.1500   -1.5292    0.0000 C   0  0  0  0  0  0  0  0  0  0  0  0
    4.3792   -1.5292    0.0000 C   0  0  0  0  0  0  0  0  0  0  0  0
    4.3792   -0.0958    0.0000 C   0  0  0  0  0  0  0  0  0  0  0  0
    1.9167   -0.0958    0.0000 C   0  0  0  0  0  0  0  0  0  0  0  0
    1.9167   -1.5292    0.0000 C   0  0  0  0  0  0  0  0  0  0  0  0
    3.1500    0.6083    0.0000 O   0  0  0  0  0  0  0  0  0  0  0  0
    3.1500   -2.2375    0.0000 O   0  0  0  0  0  0  0  0  0  0  0  0
    4.9917   -0.4542    0.0000 C   0  0  0  0  0  0  0  0  0  0  0  0
    4.9917   -1.1667    0.0000 C   0  0  0  0  0  0  0  0  0  0  0  0
    1.3042   -0.4542    0.0000 C   0  0  0  0  0  0  0  0  0  0  0  0
    1.3042   -1.1667    0.0000 C   0  0  0  0  0  0  0  0  0  0  0  0
    4.3792    0.6083    0.0000 N   0  0  0  0  0  0  0  0  0  0  0  0
    4.3792   -2.2375    0.0000 N   0  0  0  0  0  0  0  0  0  0  0  0
    1.9167    0.6083    0.0000 O   0  0  0  0  0  0  0  0  0  0  0  0
    1.9167   -2.2375    0.0000 O   0  0  0  0  0  0  0  0  0  0  0  0
    6.2292    0.9625    0.0000 N   0  0  0  0  0  0  0  0  0  0  0  0
    6.2292   -2.5917    0.0000 N   0  0  0  0  0  0  0  0  0  0  0  0
    8.0750   -2.2375    0.0000 O   0  0  0  0  0  0  0  0  0  0  0  0
    8.0750    0.6083    0.0000 O   0  0  0  0  0  0  0  0  0  0  0  0
    4.9917    0.9625    0.0000 C   0  0  0  0  0  0  0  0  0  0  0  0
    4.9917   -2.5917    0.0000 C   0  0  0  0  0  0  0  0  0  0  0  0
    5.6125   -2.2375    0.0000 C   0  0  0  0  0  0  0  0  0  0  0  0
    5.6125    0.6083    0.0000 C   0  0  0  0  0  0  0  0  0  0  0  0
    6.8417   -2.2375    0.0000 C   0  0  0  0  0  0  0  0  0  0  0  0
    6.8417    0.6083    0.0000 C   0  0  0  0  0  0  0  0  0  0  0  0
    7.4625   -2.5917    0.0000 C   0  0  0  0  0  0  0  0  0  0  0  0
    7.4625    0.9625    0.0000 C   0  0  0  0  0  0  0  0  0  0  0  0
  2  1  2  0
  3  5  1  0
  4  3  2  0
  5  1  1  0
  6  2  1  0
  7  2  1  0
  8  1  1  0
  9  3  1  0
 10  4  1  0
 11  5  2  0
 12  6  2  0
 13  8  2  0
 14 13  1  0
 15  9  2  0
 16 15  1  0
 17  8  1  0
 18  7  1  0
 19  9  1  0
 20 10  1  0
 21 28  1  0
 22 27  1  0
 23 31  1  0
 24 32  1  0
 25 17  1  0
 26 18  1  0
 27 26  1  0
 28 25  1  0
 29 22  1  0
 30 21  1  0
 31 29  1  0
 32 30  1  0
  4  6  1  0
 14  7  2  0
 16 10  2  0
M  END
>  <Classification>  (31) 
0

>  <pchembl>  (31) 
4.13

>  <InChI_steorem>  (31) 
InChI=1S/C22H28N4O6/c27-11-9-23-5-7-25-13-1-2-14(26-8-6-24-10-12-28)18-17(13)21(31)19-15(29)3-4-16(30)20(19)22(18)32/h1-4,23-30H,5-12H2

>  <source>  (31) 
ChEMBL25

>  <source_id>  (31) 
25

>  <optional_reference>  (31) 
10.1021/jm301302s

>  <optional_origin>  (31) 
None

>  <target>  (31) 
OCT2

$$$$

     RDKit          2D

 28 31  0  0  0  0  0  0  0  0999 V2000
    3.1292   -5.0917    0.0000 N   0  0  0  0  0  0  0  0  0  0  0  0
    2.7792   -4.4792    0.0000 C   0  0  0  0  0  0  0  0  0  0  0  0
    2.7625   -5.7042    0.0000 C   0  0  0  0  0  0  0  0  0  0  0  0
    8.1417   -3.9292    0.0000 C   0  0  0  0  0  0  0  0  0  0  0  0
    7.4292   -3.9417    0.0000 N   0  0  0  0  0  0  0  0  0  0  0  0
    1.7000   -5.0917    0.0000 C   0  0  0  0  0  0  0  0  0  0  0  0
    2.0667   -4.4750    0.0000 C   0  0  0  0  0  0  0  0  0  0  0  0
    2.0500   -5.7125    0.0000 C   0  0  0  0  0  0  0  0  0  0  0  0
    6.0042   -3.9292    0.0000 N   0  0  0  0  0  0  0  0  0  0  0  0
    8.4917   -4.5625    0.0000 N   0  0  0  0  0  0  0  0  0  0  0  0
    8.5125   -3.3167    0.0000 N   0  0  0  0  0  0  0  0  0  0  0  0
    3.1625   -3.8625    0.0000 O   0  0  0  0  0  0  0  0  0  0  0  0
    3.1167   -6.3417    0.0000 O   0  0  0  0  0  0  0  0  0  0  0  0
    7.0792   -3.3167    0.0000 C   0  0  0  0  0  0  0  0  0  0  0  0
    7.0625   -4.5417    0.0000 C   0  0  0  0  0  0  0  0  0  0  0  0
    6.3667   -3.3042    0.0000 C   0  0  0  0  0  0  0  0  0  0  0  0
    6.3542   -4.5417    0.0000 C   0  0  0  0  0  0  0  0  0  0  0  0
    3.8417   -5.1042    0.0000 C   0  0  0  0  0  0  0  0  0  0  0  0
    9.5750   -3.9625    0.0000 C   0  0  0  0  0  0  0  0  0  0  0  0
    5.2792   -3.9417    0.0000 C   0  0  0  0  0  0  0  0  0  0  0  0
    9.2042   -4.5750    0.0000 C   0  0  0  0  0  0  0  0  0  0  0  0
    9.2167   -3.3417    0.0000 C   0  0  0  0  0  0  0  0  0  0  0  0
    1.2792   -4.5167    0.0000 C   0  0  0  0  0  0  0  0  0  0  0  0
    1.2750   -5.6542    0.0000 C   0  0  0  0  0  0  0  0  0  0  0  0
    4.2167   -4.5000    0.0000 C   0  0  0  0  0  0  0  0  0  0  0  0
    4.9167   -4.5000    0.0000 C   0  0  0  0  0  0  0  0  0  0  0  0
    0.6125   -4.7292    0.0000 C   0  0  0  0  0  0  0  0  0  0  0  0
    0.6125   -5.4250    0.0000 C   0  0  0  0  0  0  0  0  0  0  0  0
  2  1  1  0
  3  1  1  0
  4  5  1  0
  5 15  1  0
  6  8  1  0
  7  2  1  0
  8  3  1  0
  9 20  1  0
 10  4  2  0
 11  4  1  0
 12  2  2  0
 13  3  2  0
 14 16  1  0
 15 17  1  0
 16  9  1  0
 17  9  1  0
 18  1  1  0
 19 22  1  0
 20 26  1  0
 21 10  1  0
 22 11  2  0
 23  6  1  0
 24  6  1  0
 25 18  1  0
 26 25  1  0
 27 23  1  0
 28 24  1  0
  6  7  1  0
 28 27  1  0
  5 14  1  0
 19 21  2  0
M  END
>  <Classification>  (32) 
0

>  <pchembl>  (32) 
4.92

>  <InChI_steorem>  (32) 
InChI=1S/C21H31N5O2/c27-18-16-21(6-1-2-7-21)17-19(28)26(18)11-4-3-10-24-12-14-25(15-13-24)20-22-8-5-9-23-20/h5,8-9H,1-4,6-7,10-17H2

>  <source>  (32) 
ChEMBL25

>  <source_id>  (32) 
25

>  <optional_reference>  (32) 
10.1021/jm301302s

>  <optional_origin>  (32) 
None

>  <target>  (32) 
OCT2

$$$$

     RDKit          2D

 19 22  0  0  0  0  0  0  0  0999 V2000
    5.9000   -0.9542    0.0000 N   0  0  0  0  0  0  0  0  0  0  0  0
    6.6042   -1.1042    0.0000 C   0  0  0  0  0  0  0  0  0  0  0  0
    5.8250   -0.2417    0.0000 C   0  0  0  0  0  0  0  0  0  0  0  0
    6.4833    0.0542    0.0000 N   0  0  0  0  0  0  0  0  0  0  0  0
    5.3458   -1.4083    0.0000 C   0  0  0  0  0  0  0  0  0  0  0  0
    6.9208   -1.7500    0.0000 C   0  0  0  0  0  0  0  0  0  0  0  0
    6.9667   -0.4833    0.0000 C   0  0  0  0  0  0  0  0  0  0  0  0
    5.3458   -2.1208    0.0000 C   0  0  0  0  0  0  0  0  0  0  0  0
    6.6125   -2.4000    0.0000 C   0  0  0  0  0  0  0  0  0  0  0  0
    5.9125   -2.5667    0.0000 C   0  0  0  0  0  0  0  0  0  0  0  0
    5.2042    0.1125    0.0000 N   0  0  0  0  0  0  0  0  0  0  0  0
    4.7333   -1.0542    0.0000 C   0  0  0  0  0  0  0  0  0  0  0  0
    7.6292   -1.6875    0.0000 C   0  0  0  0  0  0  0  0  0  0  0  0
    4.7333   -2.4750    0.0000 C   0  0  0  0  0  0  0  0  0  0  0  0
    7.0208   -2.9875    0.0000 C   0  0  0  0  0  0  0  0  0  0  0  0
    4.1208   -1.4125    0.0000 C   0  0  0  0  0  0  0  0  0  0  0  0
    8.0417   -2.2750    0.0000 C   0  0  0  0  0  0  0  0  0  0  0  0
    7.7375   -2.9292    0.0000 C   0  0  0  0  0  0  0  0  0  0  0  0
    4.1208   -2.1208    0.0000 C   0  0  0  0  0  0  0  0  0  0  0  0
  2  1  1  0
  3  1  1  0
  4  3  2  0
  5  1  1  0
  6  2  1  0
  7  2  1  0
  8  5  2  0
  9  6  2  0
 10  8  1  0
 11  3  1  0
 12  5  1  0
 13  6  1  0
 14  8  1  0
 15  9  1  0
 16 12  2  0
 17 13  2  0
 18 17  1  0
 19 14  2  0
  4  7  1  0
  9 10  1  0
 19 16  1  0
 18 15  2  0
M  END
>  <Classification>  (33) 
1

>  <pchembl>  (33) 
5.37

>  <InChI_steorem>  (33) 
InChI=1S/C16H15N3/c17-16-18-10-15-13-7-3-1-5-11(13)9-12-6-2-4-8-14(12)19(15)16/h1-8,15H,9-10H2,(H2,17,18)

>  <source>  (33) 
ChEMBL25

>  <source_id>  (33) 
25

>  <optional_reference>  (33) 
10.1021/jm301302s

>  <optional_origin>  (33) 
None

>  <target>  (33) 
OCT2

$$$$

     RDKit          2D

 21 22  0  0  0  0  0  0  0  0999 V2000
    5.9792   -7.3417    0.0000 N   0  0  0  0  0  0  0  0  0  0  0  0
    5.9667   -6.6292    0.0000 C   0  0  0  0  0  0  0  0  0  0  0  0
    5.3542   -7.6917    0.0000 C   0  0  0  0  0  0  0  0  0  0  0  0
    4.7667   -7.3417    0.0000 C   0  0  0  0  0  0  0  0  0  0  0  0
    4.1542   -7.7042    0.0000 O   0  0  0  0  0  0  0  0  0  0  0  0
    6.5875   -6.2875    0.0000 C   0  0  0  0  0  0  0  0  0  0  0  0
    3.5292   -7.3417    0.0000 C   0  0  0  0  0  0  0  0  0  0  0  0
    7.8250   -7.6917    0.0000 Cl  0  0  0  0  0  0  0  0  0  0  0  0
    6.5875   -7.6917    0.0000 C   0  0  0  0  0  0  0  0  0  0  0  0
    7.2125   -7.3417    0.0000 C   0  0  0  0  0  0  0  0  0  0  0  0
    5.3667   -8.4042    0.0000 C   0  0  0  0  0  0  0  0  0  0  0  0
    6.5875   -5.5750    0.0000 C   0  0  0  0  0  0  0  0  0  0  0  0
    7.2042   -6.6292    0.0000 C   0  0  0  0  0  0  0  0  0  0  0  0
    2.9125   -7.7125    0.0000 C   0  0  0  0  0  0  0  0  0  0  0  0
    3.5292   -6.6542    0.0000 C   0  0  0  0  0  0  0  0  0  0  0  0
    2.2917   -7.3542    0.0000 C   0  0  0  0  0  0  0  0  0  0  0  0
    7.2042   -5.2250    0.0000 C   0  0  0  0  0  0  0  0  0  0  0  0
    7.8250   -6.2792    0.0000 C   0  0  0  0  0  0  0  0  0  0  0  0
    2.9042   -6.2917    0.0000 C   0  0  0  0  0  0  0  0  0  0  0  0
    2.2917   -6.6542    0.0000 C   0  0  0  0  0  0  0  0  0  0  0  0
    7.8292   -5.5750    0.0000 C   0  0  0  0  0  0  0  0  0  0  0  0
  2  1  1  0
  3  1  1  0
  4  3  1  0
  5  4  1  0
  6  2  1  0
  7  5  1  0
  8 10  1  0
  9  1  1  0
 10  9  1  0
 11  3  1  0
 12  6  2  0
 13  6  1  0
 14  7  2  0
 15  7  1  0
 16 14  1  0
 17 12  1  0
 18 13  2  0
 19 15  2  0
 20 16  2  0
 21 17  2  0
 21 18  1  0
 20 19  1  0
M  END
>  <Classification>  (34) 
1

>  <pchembl>  (34) 
5.31

>  <InChI_steorem>  (34) 
InChI=1S/C18H22ClNO/c1-16(15-21-18-10-6-3-7-11-18)20(13-12-19)14-17-8-4-2-5-9-17/h2-11,16H,12-15H2,1H3

>  <source>  (34) 
ChEMBL25

>  <source_id>  (34) 
25

>  <optional_reference>  (34) 
10.1038/sj.bjp.0704785

>  <optional_origin>  (34) 
None

>  <target>  (34) 
OCT2

$$$$

     RDKit          2D

 45 51  0  0  0  0  0  0  0  0999 V2000
   -0.7875   -0.1292    0.0000 C   0  0  0  0  0  0  0  0  0  0  0  0
   -1.4708   -0.1292    0.0000 C   0  0  0  0  0  0  0  0  0  0  0  0
   -0.4458   -0.7125    0.0000 C   0  0  0  0  0  0  0  0  0  0  0  0
    0.2292   -0.7167    0.0000 N   0  0  0  0  0  0  0  0  0  0  0  0
   -0.6000   -4.4458    0.0000 C   0  0  0  0  0  0  0  0  0  0  0  0
   -1.8083    0.4583    0.0000 C   0  0  0  0  0  0  0  0  0  0  0  0
   -0.4458    0.4625    0.0000 C   0  0  0  0  0  0  0  0  0  0  0  0
   -1.1958   -4.1042    0.0000 C   0  0  0  0  0  0  0  0  0  0  0  0
    1.1542   -4.1042    0.0000 O   0  0  0  0  0  0  0  0  0  0  0  0
    0.5667   -4.4417    0.0000 C   0  0  0  0  0  0  0  0  0  0  0  0
   -1.7792   -4.4458    0.0000 N   0  0  0  0  0  0  0  0  0  0  0  0
   -2.2083   -1.1667    0.0000 O   0  0  0  0  0  0  0  0  0  0  0  0
   -0.0208   -4.1042    0.0000 C   0  0  0  0  0  0  0  0  0  0  0  0
   -0.6000   -5.1292    0.0000 C   0  0  0  0  0  0  0  0  0  0  0  0
    1.1542   -3.4167    0.0000 C   0  0  0  0  0  0  0  0  0  0  0  0
   -1.4708    1.0500    0.0000 C   0  0  0  0  0  0  0  0  0  0  0  0
   -0.7833    1.0500    0.0000 C   0  0  0  0  0  0  0  0  0  0  0  0
    0.5667   -5.1292    0.0000 C   0  0  0  0  0  0  0  0  0  0  0  0
   -0.0208   -5.4667    0.0000 C   0  0  0  0  0  0  0  0  0  0  0  0
   -0.4250   -1.8417    0.0000 C   0  0  0  0  0  0  0  0  0  0  0  0
    0.5750   -0.1292    0.0000 C   0  0  0  0  0  0  0  0  0  0  0  0
    1.7417   -3.0792    0.0000 C   0  0  0  0  0  0  0  0  0  0  0  0
   -0.8500   -3.5167    0.0000 C   0  0  0  0  0  0  0  0  0  0  0  0
    0.5667   -3.0875    0.0000 C   0  0  0  0  0  0  0  0  0  0  0  0
    0.2292    0.4625    0.0000 C   0  0  0  0  0  0  0  0  0  0  0  0
   -1.7792   -5.1292    0.0000 C   0  0  0  0  0  0  0  0  0  0  0  0
    0.5542   -2.4042    0.0000 C   0  0  0  0  0  0  0  0  0  0  0  0
   -1.1958   -5.4667    0.0000 C   0  0  0  0  0  0  0  0  0  0  0  0
   -1.8708   -1.7542    0.0000 C   0  0  0  0  0  0  0  0  0  0  0  0
    1.7375   -2.4042    0.0000 C   0  0  0  0  0  0  0  0  0  0  0  0
   -2.4875    0.4583    0.0000 O   0  0  0  0  0  0  0  0  0  0  0  0
   -1.1875   -2.9375    0.0000 C   0  0  0  0  0  0  0  0  0  0  0  0
    1.1500   -2.0667    0.0000 C   0  0  0  0  0  0  0  0  0  0  0  0
   -1.8083    1.6458    0.0000 O   0  0  0  0  0  0  0  0  0  0  0  0
    0.8250   -1.0500    0.0000 C   0  0  0  0  0  0  0  0  0  0  0  0
    0.2292   -1.4000    0.0000 C   0  0  0  0  0  0  0  0  0  0  0  0
    1.1625   -5.4667    0.0000 O   0  0  0  0  0  0  0  0  0  0  0  0
    2.3292   -3.4167    0.0000 O   0  0  0  0  0  0  0  0  0  0  0  0
   -1.1875   -1.7542    0.0000 C   0  0  0  0  0  0  0  0  0  0  0  0
   -2.2083   -2.3417    0.0000 C   0  0  0  0  0  0  0  0  0  0  0  0
   -0.8458   -2.3417    0.0000 C   0  0  0  0  0  0  0  0  0  0  0  0
   -1.8708   -2.9292    0.0000 C   0  0  0  0  0  0  0  0  0  0  0  0
   -2.3875   -4.1000    0.0000 C   0  0  0  0  0  0  0  0  0  0  0  0
   -2.4875    1.6458    0.0000 C   0  0  0  0  0  0  0  0  0  0  0  0
    1.7500   -5.1292    0.0000 C   0  0  0  0  0  0  0  0  0  0  0  0
  2  1  1  0
  3  1  1  0
  4  3  1  0
  5 13  1  0
  6  2  2  0
  7  1  2  0
  8 23  1  0
  9 15  1  0
 10  9  1  0
 11  8  1  0
 12  2  1  0
 13 10  2  0
 14 19  1  0
 15 24  1  0
 16 17  2  0
 17  7  1  0
 18 10  1  0
 19 18  2  0
 20  3  1  0
 21 25  1  0
 22 30  1  0
 23 32  1  0
 24 27  2  0
 25  7  1  0
 26 11  1  0
 27 20  1  0
 28 14  1  0
 29 12  1  0
 30 33  2  0
 31  6  1  0
 32 41  2  0
 33 27  1  0
 34 16  1  0
 35  4  1  0
 36  4  1  0
 37 18  1  0
 38 22  1  0
 39 29  2  0
 40 29  1  0
 41 39  1  0
 42 40  2  0
 43 11  1  0
 44 34  1  0
 45 37  1  0
  4 21  1  0
  6 16  1  0
 42 32  1  0
 15 22  2  0
  8  5  1  0
  5 14  2  0
 26 28  1  0
M  CHG  1   4   1
M  END
>  <Classification>  (35) 
0

>  <pchembl>  (35) 
4.1

>  <InChI_steorem>  (35) 
InChI=1S/C37H40N2O6/c1-38-14-12-24-19-32(42-4)33-21-27(24)28(38)16-22-6-9-26(10-7-22)44-37-35-25(20-34(43-5)36(37)41)13-15-39(2,3)29(35)17-23-8-11-30(40)31(18-23)45-33/h6-11,18-21,28-29H,12-17H2,1-5H3,(H-,40,41)

>  <source>  (35) 
ChEMBL25

>  <source_id>  (35) 
25

>  <optional_reference>  (35) 
10.1021/jm301302s

>  <optional_origin>  (35) 
None

>  <target>  (35) 
OCT2

$$$$

     RDKit          2D

 10 10  0  0  0  0  0  0  0  0999 V2000
    5.4072  -14.4499    0.0000 N   0  0  0  0  0  0  0  0  0  0  0  0
    6.1173  -14.0399    0.0000 C   0  0  0  0  0  0  0  0  0  0  0  0
    6.8274  -14.4499    0.0000 N   0  0  0  0  0  0  0  0  0  0  0  0
    6.1173  -13.2199    0.0000 N   0  0  0  0  0  0  0  0  0  0  0  0
    4.6971  -14.0399    0.0000 C   0  0  0  0  0  0  0  0  0  0  0  0
    3.9870  -14.4499    0.0000 C   0  0  0  0  0  0  0  0  0  0  0  0
    3.2770  -14.0399    0.0000 C   0  0  0  0  0  0  0  0  0  0  0  0
    3.2770  -13.2199    0.0000 C   0  0  0  0  0  0  0  0  0  0  0  0
    3.9870  -12.8100    0.0000 C   0  0  0  0  0  0  0  0  0  0  0  0
    4.6971  -13.2199    0.0000 C   0  0  0  0  0  0  0  0  0  0  0  0
  1  2  1  0
  2  3  1  0
  2  4  2  0
  5  6  2  0
  6  7  1  0
  7  8  2  0
  8  9  1  0
  9 10  2  0
  5 10  1  0
  1  5  1  0
M  END
>  <Classification>  (36) 
0

>  <pchembl>  (36) 
4.05

>  <InChI_steorem>  (36) 
InChI=1S/C7H9N3/c8-7(9)10-6-4-2-1-3-5-6/h1-5H,(H4,8,9,10)

>  <source>  (36) 
ChEMBL25

>  <source_id>  (36) 
25

>  <optional_reference>  (36) 
10.1016/j.bmcl.2017.08.008

>  <optional_origin>  (36) 
None

>  <target>  (36) 
OCT2

$$$$

     RDKit          2D

 11 11  0  0  0  0  0  0  0  0999 V2000
    4.8301    4.0000    0.0000 C   0  0  0  0  0  0  0  0  0  0  0  0
    3.0981    4.0000    0.0000 C   0  0  0  0  0  0  0  0  0  0  0  0
    3.9641    2.5000    0.0000 C   0  0  0  0  0  0  0  0  0  0  0  0
    2.2321    3.5000    0.0000 C   0  0  0  0  0  0  0  0  0  0  0  0
    3.0981    2.0000    0.0000 C   0  0  0  0  0  0  0  0  0  0  0  0
    3.9641    3.5000    0.0000 C   0  0  0  0  0  0  0  0  0  0  0  0
    2.2321    2.5000    0.0000 C   0  0  0  0  0  0  0  0  0  0  0  0
    1.3660    1.0000    0.0000 C   0  0  0  0  0  0  0  0  0  0  0  0
    2.2321    0.5000    0.0000 N   0  0  0  0  0  0  0  0  0  0  0  0
    0.5000    0.5000    0.0000 N   0  0  0  0  0  0  0  0  0  0  0  0
    1.3660    2.0000    0.0000 N   0  0  0  0  0  0  0  0  0  0  0  0
  1  6  1  0
  2  4  2  0
  2  6  1  0
  3  5  1  0
  3  6  2  0
  4  7  1  0
  5  7  2  0
  7 11  1  0
  8  9  2  0
  8 10  1  0
  8 11  1  0
M  END
>  <Classification>  (37) 
1

>  <pchembl>  (37) 
5.03

>  <InChI_steorem>  (37) 
InChI=1S/C8H11N3/c1-6-2-4-7(5-3-6)11-8(9)10/h2-5H,1H3,(H4,9,10,11)

>  <source>  (37) 
ChEMBL25

>  <source_id>  (37) 
25

>  <optional_reference>  (37) 
10.1016/j.bmcl.2017.08.008

>  <optional_origin>  (37) 
None

>  <target>  (37) 
OCT2

$$$$

     RDKit          2D

 13 14  0  0  0  0  0  0  0  0999 V2000
    4.3292  -10.6000    0.0000 N   0  0  0  0  0  0  0  0  0  0  0  0
    5.9750  -10.6000    0.0000 C   0  0  0  0  0  0  0  0  0  0  0  0
    4.7375  -11.3125    0.0000 C   0  0  0  0  0  0  0  0  0  0  0  0
    4.7375   -9.8833    0.0000 C   0  0  0  0  0  0  0  0  0  0  0  0
    5.5625   -9.8833    0.0000 C   0  0  0  0  0  0  0  0  0  0  0  0
    5.5625  -11.3125    0.0000 C   0  0  0  0  0  0  0  0  0  0  0  0
    6.8000  -10.6000    0.0000 C   0  0  0  0  0  0  0  0  0  0  0  0
    3.5042  -10.6000    0.0000 C   0  0  0  0  0  0  0  0  0  0  0  0
    7.2125  -11.3125    0.0000 C   0  0  0  0  0  0  0  0  0  0  0  0
    7.2125   -9.8833    0.0000 C   0  0  0  0  0  0  0  0  0  0  0  0
    8.0333   -9.8833    0.0000 C   0  0  0  0  0  0  0  0  0  0  0  0
    8.0333  -11.3125    0.0000 C   0  0  0  0  0  0  0  0  0  0  0  0
    8.4458  -10.6000    0.0000 C   0  0  0  0  0  0  0  0  0  0  0  0
  2  5  1  0
  3  1  2  0
  4  1  1  0
  5  4  2  0
  6  3  1  0
  7  2  1  0
  8  1  1  0
  9  7  2  0
 10  7  1  0
 11 10  2  0
 12  9  1  0
 13 12  2  0
  6  2  2  0
 13 11  1  0
M  CHG  1   1   1
M  END
>  <Classification>  (38) 
1

>  <pchembl>  (38) 
5.62

>  <InChI_steorem>  (38) 
InChI=1S/C12H12N/c1-13-9-7-12(8-10-13)11-5-3-2-4-6-11/h2-10H,1H3

>  <source>  (38) 
ChEMBL25

>  <source_id>  (38) 
25

>  <optional_reference>  (38) 
10.1089/dna.1997.16.871

>  <optional_origin>  (38) 
None

>  <target>  (38) 
OCT2

$$$$

     RDKit          2D

 19 20  0  0  0  0  0  0  0  0999 V2000
    0.6769   -2.1276    0.0000 Cl  0  0  0  0  0  0  0  0  0  0  0  0
    0.6769    2.8224    0.0000 Cl  0  0  0  0  0  0  0  0  0  0  0  0
   -2.1810   -2.1276    0.0000 Cl  0  0  0  0  0  0  0  0  0  0  0  0
    2.1058    0.3474    0.0000 Cl  0  0  0  0  0  0  0  0  0  0  0  0
   -0.7521    0.3474    0.0000 S   0  0  0  0  0  0  0  0  0  0  0  0
    0.6769   -0.4776    0.0000 O   0  0  0  0  0  0  0  0  0  0  0  0
   -0.7521    1.9974    0.0000 O   0  0  0  0  0  0  0  0  0  0  0  0
   -0.7521   -0.4776    0.0000 C   0  0  0  0  0  0  0  0  0  0  0  0
   -0.0376    0.7599    0.0000 C   0  0  0  0  0  0  0  0  0  0  0  0
   -0.0376   -0.8901    0.0000 C   0  0  0  0  0  0  0  0  0  0  0  0
   -0.0376    1.5849    0.0000 C   0  0  0  0  0  0  0  0  0  0  0  0
   -0.0376   -1.7151    0.0000 C   0  0  0  0  0  0  0  0  0  0  0  0
    0.6769    1.9974    0.0000 C   0  0  0  0  0  0  0  0  0  0  0  0
   -1.4665   -0.8901    0.0000 C   0  0  0  0  0  0  0  0  0  0  0  0
    0.6769    0.3474    0.0000 C   0  0  0  0  0  0  0  0  0  0  0  0
   -1.4665   -1.7151    0.0000 C   0  0  0  0  0  0  0  0  0  0  0  0
    1.3913    0.7599    0.0000 C   0  0  0  0  0  0  0  0  0  0  0  0
   -0.7521   -2.1276    0.0000 C   0  0  0  0  0  0  0  0  0  0  0  0
    1.3913    1.5849    0.0000 C   0  0  0  0  0  0  0  0  0  0  0  0
  1 12  1  0
  2 13  1  0
  3 16  1  0
  4 17  1  0
  5  8  1  0
  5  9  1  0
  6 10  1  0
  7 11  1  0
  8 10  2  0
  8 14  1  0
  9 11  2  0
  9 15  1  0
 10 12  1  0
 11 13  1  0
 12 18  2  0
 13 19  2  0
 14 16  2  0
 15 17  2  0
 16 18  1  0
 17 19  1  0
M  END
>  <Classification>  (39) 
1

>  <pchembl>  (39) 
5.72

>  <InChI_steorem>  (39) 
InChI=1S/C12H6Cl4O2S/c13-5-1-7(15)11(17)9(3-5)19-10-4-6(14)2-8(16)12(10)18/h1-4,17-18H

>  <source>  (39) 
ChEMBL25

>  <source_id>  (39) 
25

>  <optional_reference>  (39) 
10.1021/jm301302s

>  <optional_origin>  (39) 
None

>  <target>  (39) 
OCT2

$$$$

     RDKit          2D

 20 21  0  0  0  0  0  0  0  0999 V2000
    0.2583   -3.5917    0.0000 C   0  0  0  0  0  0  0  0  0  0  0  0
    0.8833   -3.2250    0.0000 C   0  0  0  0  0  0  0  0  0  0  0  0
    0.2583   -4.2917    0.0000 C   0  0  0  0  0  0  0  0  0  0  0  0
    0.8833   -2.5417    0.0000 C   0  0  0  0  0  0  0  0  0  0  0  0
    1.4875   -3.5792    0.0000 O   0  0  0  0  0  0  0  0  0  0  0  0
    3.3208   -3.2375    0.0000 N   0  0  0  0  0  0  0  0  0  0  0  0
    2.1000   -3.2250    0.0000 C   0  0  0  0  0  0  0  0  0  0  0  0
   -0.3625   -3.2292    0.0000 C   0  0  0  0  0  0  0  0  0  0  0  0
    2.7167   -3.5750    0.0000 C   0  0  0  0  0  0  0  0  0  0  0  0
    0.8917   -4.6500    0.0000 C   0  0  0  0  0  0  0  0  0  0  0  0
   -0.3458   -4.6500    0.0000 C   0  0  0  0  0  0  0  0  0  0  0  0
    1.4792   -2.1667    0.0000 C   0  0  0  0  0  0  0  0  0  0  0  0
    0.2542   -2.1667    0.0000 C   0  0  0  0  0  0  0  0  0  0  0  0
    3.9375   -3.5750    0.0000 C   0  0  0  0  0  0  0  0  0  0  0  0
    3.3208   -2.5208    0.0000 C   0  0  0  0  0  0  0  0  0  0  0  0
   -0.9625   -3.5792    0.0000 C   0  0  0  0  0  0  0  0  0  0  0  0
    1.4792   -1.4583    0.0000 C   0  0  0  0  0  0  0  0  0  0  0  0
   -0.9625   -4.3083    0.0000 C   0  0  0  0  0  0  0  0  0  0  0  0
    0.2542   -1.4542    0.0000 C   0  0  0  0  0  0  0  0  0  0  0  0
    0.8625   -1.1083    0.0000 C   0  0  0  0  0  0  0  0  0  0  0  0
  2  1  1  0
  3  1  2  0
  4  2  1  0
  5  2  1  0
  6  9  1  0
  7  5  1  0
  8  1  1  0
  9  7  1  0
 10  3  1  0
 11  3  1  0
 12  4  2  0
 13  4  1  0
 14  6  1  0
 15  6  1  0
 16  8  2  0
 17 12  1  0
 18 16  1  0
 19 13  2  0
 20 19  1  0
 18 11  2  0
 20 17  2  0
M  END
>  <Classification>  (40) 
1

>  <pchembl>  (40) 
5.6

>  <InChI_steorem>  (40) 
InChI=1S/C18H23NO/c1-15-9-7-8-12-17(15)18(20-14-13-19(2)3)16-10-5-4-6-11-16/h4-12,18H,13-14H2,1-3H3

>  <source>  (40) 
ChEMBL25

>  <source_id>  (40) 
25

>  <optional_reference>  (40) 
10.1021/jm2001629

>  <optional_origin>  (40) 
None

>  <target>  (40) 
OCT2

$$$$

     RDKit          2D

 22 25  0  0  0  0  0  0  0  0999 V2000
    3.1316   -3.0987    0.0000 O   0  0  0  0  0  0  0  0  0  0  0  0
    1.6382   -0.7829    0.0000 N   0  0  0  0  0  0  0  0  0  0  0  0
    5.2763   -1.8684    0.0000 N   0  0  0  0  0  0  0  0  0  0  0  0
    6.1710   -0.8750    0.0000 N   0  0  0  0  0  0  0  0  0  0  0  0
    2.4276   -1.8684    0.0000 C   0  0  0  0  0  0  0  0  0  0  0  0
    2.4276   -1.0460    0.0000 C   0  0  0  0  0  0  0  0  0  0  0  0
    1.6382   -2.1184    0.0000 C   0  0  0  0  0  0  0  0  0  0  0  0
    1.1513   -1.4539    0.0000 C   0  0  0  0  0  0  0  0  0  0  0  0
    3.1316   -2.2763    0.0000 C   0  0  0  0  0  0  0  0  0  0  0  0
    3.8487   -1.8684    0.0000 C   0  0  0  0  0  0  0  0  0  0  0  0
    3.1316   -0.6250    0.0000 C   0  0  0  0  0  0  0  0  0  0  0  0
    1.3026   -2.8750    0.0000 C   0  0  0  0  0  0  0  0  0  0  0  0
    3.8487   -1.0460    0.0000 C   0  0  0  0  0  0  0  0  0  0  0  0
    0.3289   -1.5395    0.0000 C   0  0  0  0  0  0  0  0  0  0  0  0
    4.5592   -2.2763    0.0000 C   0  0  0  0  0  0  0  0  0  0  0  0
    1.3816    0.0000    0.0000 C   0  0  0  0  0  0  0  0  0  0  0  0
    0.4802   -2.9605    0.0000 C   0  0  0  0  0  0  0  0  0  0  0  0
    0.0000   -2.2961    0.0000 C   0  0  0  0  0  0  0  0  0  0  0  0
    5.3684   -1.0460    0.0000 C   0  0  0  0  0  0  0  0  0  0  0  0
    6.0329   -2.1974    0.0000 C   0  0  0  0  0  0  0  0  0  0  0  0
    6.5789   -1.5921    0.0000 C   0  0  0  0  0  0  0  0  0  0  0  0
    4.7500   -0.4868    0.0000 C   0  0  0  0  0  0  0  0  0  0  0  0
  1  9  2  0
  2  6  1  0
  2  8  1  0
  2 16  1  0
  3 15  1  0
  3 19  1  0
  3 20  1  0
  4 19  2  0
  4 21  1  0
  5  6  2  0
  5  7  1  0
  5  9  1  0
  6 11  1  0
  7  8  2  0
  7 12  1  0
  8 14  1  0
  9 10  1  0
 10 13  1  0
 10 15  1  0
 11 13  1  0
 12 17  2  0
 14 18  2  0
 17 18  1  0
 19 22  1  0
 20 21  2  0
M  END
>  <Classification>  (41) 
1

>  <pchembl>  (41) 
6.05

>  <InChI_steorem>  (41) 
InChI=1S/C18H19N3O/c1-12-19-9-10-21(12)11-13-7-8-16-17(18(13)22)14-5-3-4-6-15(14)20(16)2/h3-6,9-10,13H,7-8,11H2,1-2H3

>  <source>  (41) 
ChEMBL25

>  <source_id>  (41) 
25

>  <optional_reference>  (41) 
10.1021/jm2001629

>  <optional_origin>  (41) 
None

>  <target>  (41) 
OCT2

$$$$

     RDKit          2D

 23 23  0  0  0  0  0  0  0  0999 V2000
    6.6366    0.8429    0.0000 O   0  0  0  0  0  0  0  0  0  0  0  0
    3.7788   -1.6321    0.0000 O   0  0  0  0  0  0  0  0  0  0  0  0
    3.0643   -0.3946    0.0000 O   0  0  0  0  0  0  0  0  0  0  0  0
    7.3511   -0.3946    0.0000 O   0  0  0  0  0  0  0  0  0  0  0  0
   11.6379    0.4304    0.0000 N   0  0  0  0  0  0  0  0  0  0  0  0
   13.0669    0.4304    0.0000 N   0  0  0  0  0  0  0  0  0  0  0  0
   12.3524    1.6679    0.0000 N   0  0  0  0  0  0  0  0  0  0  0  0
    4.4932   -0.3946    0.0000 C   0  0  0  0  0  0  0  0  0  0  0  0
    5.9222    0.4304    0.0000 C   0  0  0  0  0  0  0  0  0  0  0  0
    3.7788   -0.8071    0.0000 C   0  0  0  0  0  0  0  0  0  0  0  0
    4.4932    0.4304    0.0000 C   0  0  0  0  0  0  0  0  0  0  0  0
    5.2077   -0.8071    0.0000 C   0  0  0  0  0  0  0  0  0  0  0  0
    5.2077    0.8429    0.0000 C   0  0  0  0  0  0  0  0  0  0  0  0
    5.9222   -0.3946    0.0000 C   0  0  0  0  0  0  0  0  0  0  0  0
    7.3511    0.4304    0.0000 C   0  0  0  0  0  0  0  0  0  0  0  0
    8.0656    0.8429    0.0000 C   0  0  0  0  0  0  0  0  0  0  0  0
    3.0643   -2.0446    0.0000 C   0  0  0  0  0  0  0  0  0  0  0  0
    8.7801    0.4304    0.0000 C   0  0  0  0  0  0  0  0  0  0  0  0
    9.4945    0.8429    0.0000 C   0  0  0  0  0  0  0  0  0  0  0  0
    3.0643   -2.8696    0.0000 C   0  0  0  0  0  0  0  0  0  0  0  0
   10.2090    0.4304    0.0000 C   0  0  0  0  0  0  0  0  0  0  0  0
   10.9235    0.8429    0.0000 C   0  0  0  0  0  0  0  0  0  0  0  0
   12.3524    0.8429    0.0000 C   0  0  0  0  0  0  0  0  0  0  0  0
  1  9  1  0
  1 15  1  0
  2 10  1  0
  2 17  1  0
  3 10  2  0
  4 15  2  0
  5 22  1  0
  5 23  2  3
  6 23  1  0
 23  7  1  0
  8 10  1  0
  8 11  2  0
  8 12  1  0
  9 13  2  0
  9 14  1  0
 11 13  1  0
 12 14  2  0
 15 16  1  0
 16 18  1  0
 17 20  1  0
 18 19  1  0
 19 21  1  0
 21 22  1  0
M  END
>  <Classification>  (42) 
1

>  <pchembl>  (42) 
6.05

>  <InChI_steorem>  (42) 
InChI=1S/C16H23N3O4/c1-2-22-15(21)12-7-9-13(10-8-12)23-14(20)6-4-3-5-11-19-16(17)18/h7-10H,2-6,11H2,1H3,(H4,17,18,19)

>  <source>  (42) 
ChEMBL25

>  <source_id>  (42) 
25

>  <optional_reference>  (42) 
10.1021/jm301302s

>  <optional_origin>  (42) 
None

>  <target>  (42) 
OCT2

$$$$

     RDKit          2D

 23 26  0  0  0  0  0  0  0  0999 V2000
    1.0803   -8.6470    0.0000 C   0  0  0  0  0  0  0  0  0  0  0  0
    1.5695   -9.3106    0.0000 N   0  0  0  0  0  0  0  0  0  0  0  0
    1.0851   -9.9791    0.0000 N   0  0  0  0  0  0  0  0  0  0  0  0
    0.2955   -8.9086    0.0000 C   0  0  0  0  0  0  0  0  0  0  0  0
    1.0996   -7.8235    0.0000 C   0  0  0  0  0  0  0  0  0  0  0  0
    2.3737   -4.6892    0.0000 N   0  0  0  0  0  0  0  0  0  0  0  0
    0.3003   -9.7321    0.0000 C   0  0  0  0  0  0  0  0  0  0  0  0
    1.8215   -7.4263    0.0000 N   0  0  0  0  0  0  0  0  0  0  0  0
    2.7370   -5.4013    0.0000 C   0  0  0  0  0  0  0  0  0  0  0  0
    2.1896   -5.3530    0.0000 C   0  0  0  0  0  0  0  0  0  0  0  0
    1.8262   -6.6028    0.0000 C   0  0  0  0  0  0  0  0  0  0  0  0
    1.9765   -5.9730    0.0000 C   0  0  0  0  0  0  0  0  0  0  0  0
    1.4582   -5.8954    0.0000 C   0  0  0  0  0  0  0  0  0  0  0  0
    0.3924   -7.4021    0.0000 O   0  0  0  0  0  0  0  0  0  0  0  0
    1.3467  -10.7639    0.0000 C   0  0  0  0  0  0  0  0  0  0  0  0
   -0.4166   -8.4920    0.0000 C   0  0  0  0  0  0  0  0  0  0  0  0
    2.3592   -3.8657    0.0000 C   0  0  0  0  0  0  0  0  0  0  0  0
   -0.4166  -10.1439    0.0000 C   0  0  0  0  0  0  0  0  0  0  0  0
    2.7952   -6.0796    0.0000 C   0  0  0  0  0  0  0  0  0  0  0  0
    3.3474   -6.1619    0.0000 C   0  0  0  0  0  0  0  0  0  0  0  0
    2.8048   -6.7772    0.0000 C   0  0  0  0  0  0  0  0  0  0  0  0
   -1.1287   -8.9086    0.0000 C   0  0  0  0  0  0  0  0  0  0  0  0
   -1.1287   -9.7273    0.0000 C   0  0  0  0  0  0  0  0  0  0  0  0
  2  1  2  0
  3  2  1  0
  4  1  1  0
  5  1  1  0
 10  6  1  0
  7  4  2  0
  8  5  1  0
 10 13  1  0
 11  8  1  0
 12 11  1  0
 13 11  1  0
 14  5  2  0
 15  3  1  0
 16  4  1  0
 17  6  1  0
 18  7  1  0
 10 19  1  0
  9 20  1  0
 21 19  1  0
 22 16  2  0
 23 18  2  0
  3  7  1  0
 23 22  1  0
  9  6  1  0
 21 20  1  0
  9 12  1  0
M  END
>  <Classification>  (43) 
1

>  <pchembl>  (43) 
5.37

>  <InChI_steorem>  (43) 
InChI=1S/C18H24N4O/c1-21-13-6-5-7-14(21)11-12(10-13)19-18(23)17-15-8-3-4-9-16(15)22(2)20-17/h3-4,8-9,12-14H,5-7,10-11H2,1-2H3,(H,19,23)

>  <source>  (43) 
ChEMBL25

>  <source_id>  (43) 
25

>  <optional_reference>  (43) 
10.1021/jm301302s

>  <optional_origin>  (43) 
None

>  <target>  (43) 
OCT2

$$$$

     RDKit          2D

 29 30  0  0  0  0  0  0  0  0999 V2000
    1.2990   -0.7500    0.0000 C   0  0  0  0  0  0  0  0  0  0  0  0
    1.2990    0.7500    0.0000 N   0  0  0  0  0  0  0  0  0  0  0  0
    0.0000   -1.5000    0.0000 N   0  0  0  0  0  0  0  0  0  0  0  0
    0.0000    1.5000    0.0000 C   0  0  0  0  0  0  0  0  0  0  0  0
   -1.2990   -0.7500    0.0000 C   0  0  0  0  0  0  0  0  0  0  0  0
   -1.2990    0.7500    0.0000 C   0  0  0  0  0  0  0  0  0  0  0  0
   -9.1229   12.7318    0.0000 N   0  0  0  0  0  0  0  0  0  0  0  0
   -7.8190   11.9885    0.0000 C   0  0  0  0  0  0  0  0  0  0  0  0
    2.3383   -1.3500    0.0000 O   0  0  0  0  0  0  0  0  0  0  0  0
   -9.1292   13.9317    0.0000 O   0  0  0  0  0  0  0  0  0  0  0  0
  -10.1592   12.1267    0.0000 O   0  0  0  0  0  0  0  0  0  0  0  0
   -2.3383   -1.3500    0.0000 O   0  0  0  0  0  0  0  0  0  0  0  0
   -0.0031    3.0008    0.0000 N   0  0  0  0  0  0  0  0  0  0  0  0
    2.3383    1.3500    0.0000 C   0  0  0  0  0  0  0  0  0  0  0  0
    0.0000   -2.7000    0.0000 C   0  0  0  0  0  0  0  0  0  0  0  0
   -6.5226   12.7430    0.0000 C   0  0  0  0  0  0  0  0  0  0  0  0
   -7.8138   10.4885    0.0000 C   0  0  0  0  0  0  0  0  0  0  0  0
   -2.6078    5.9988    0.0000 N   0  0  0  0  0  0  0  0  0  0  0  0
   -5.2210   11.9975    0.0000 C   0  0  0  0  0  0  0  0  0  0  0  0
   -6.5122    9.7430    0.0000 C   0  0  0  0  0  0  0  0  0  0  0  0
   -5.2157   10.4975    0.0000 C   0  0  0  0  0  0  0  0  0  0  0  0
   -1.3039    3.7494    0.0000 C   0  0  0  0  0  0  0  0  0  0  0  0
   -6.2473    5.3991    0.0000 O   0  0  0  0  0  0  0  0  0  0  0  0
   -3.9118    8.2481    0.0000 C   0  0  0  0  0  0  0  0  0  0  0  0
   -1.3070    5.2502    0.0000 C   0  0  0  0  0  0  0  0  0  0  0  0
   -2.6109    7.4996    0.0000 C   0  0  0  0  0  0  0  0  0  0  0  0
   -3.9149    9.7490    0.0000 C   0  0  0  0  0  0  0  0  0  0  0  0
   -3.9078    5.2487    0.0000 C   0  0  0  0  0  0  0  0  0  0  0  0
   -5.2078    5.9987    0.0000 C   0  0  0  0  0  0  0  0  0  0  0  0
  1  2  1  0
  1  3  1  0
  2  4  1  0
  3  5  1  0
  4  6  2  0
  5  6  1  0
  7  8  1  0
  1  9  2  0
  7 10  1  0
  7 11  2  0
  5 12  2  0
  4 13  1  0
  2 14  1  0
  3 15  1  0
  8 16  2  0
  8 17  1  0
 16 19  1  0
 17 20  2  0
 19 21  2  0
 20 21  1  0
 13 22  1  0
 18 25  1  0
 22 25  1  0
 18 26  1  0
 24 26  1  0
 21 27  1  0
 24 27  1  0
 18 28  1  0
 23 29  1  0
 28 29  1  0
M  CHG  2   7   1  10  -1
M  END
>  <Classification>  (44) 
0

>  <pchembl>  (44) 
4.99

>  <InChI_steorem>  (44) 
InChI=1S/C19H27N5O5/c1-21-17(14-18(26)22(2)19(21)27)20-9-11-23(12-13-25)10-3-4-15-5-7-16(8-6-15)24(28)29/h5-8,14,20,25H,3-4,9-13H2,1-2H3

>  <source>  (44) 
ChEMBL25

>  <source_id>  (44) 
25

>  <optional_reference>  (44) 
10.1021/jm301302s

>  <optional_origin>  (44) 
None

>  <target>  (44) 
OCT2

$$$$

     RDKit          2D

 30 33  0  0  0  0  0  0  0  0999 V2000
   -2.2020   -0.7795    0.0000 O   0  0  0  0  0  0  0  0  0  0  0  0
   -0.7731   -1.6045    0.0000 O   0  0  0  0  0  0  0  0  0  0  0  0
    2.7993   -0.3670    0.0000 O   0  0  0  0  0  0  0  0  0  0  0  0
    4.2282    0.4580    0.0000 O   0  0  0  0  0  0  0  0  0  0  0  0
   -3.4594    1.6774    0.0000 N   0  0  0  0  0  0  0  0  0  0  0  0
    0.6559   -0.7795    0.0000 N   0  0  0  0  0  0  0  0  0  0  0  0
   -2.9165    0.4580    0.0000 C   0  0  0  0  0  0  0  0  0  0  0  0
   -2.3034    1.0100    0.0000 C   0  0  0  0  0  0  0  0  0  0  0  0
   -3.6310    0.8705    0.0000 C   0  0  0  0  0  0  0  0  0  0  0  0
   -2.6390    1.7637    0.0000 C   0  0  0  0  0  0  0  0  0  0  0  0
   -2.9165   -0.3670    0.0000 C   0  0  0  0  0  0  0  0  0  0  0  0
   -1.4829    0.9238    0.0000 C   0  0  0  0  0  0  0  0  0  0  0  0
   -4.3454    0.4580    0.0000 C   0  0  0  0  0  0  0  0  0  0  0  0
   -2.1540    2.4311    0.0000 C   0  0  0  0  0  0  0  0  0  0  0  0
   -3.6310   -0.7795    0.0000 C   0  0  0  0  0  0  0  0  0  0  0  0
   -4.3454   -0.3670    0.0000 C   0  0  0  0  0  0  0  0  0  0  0  0
   -0.9980    1.5912    0.0000 C   0  0  0  0  0  0  0  0  0  0  0  0
   -1.3336    2.3449    0.0000 C   0  0  0  0  0  0  0  0  0  0  0  0
   -1.4876   -0.3670    0.0000 C   0  0  0  0  0  0  0  0  0  0  0  0
   -0.7731   -0.7795    0.0000 C   0  0  0  0  0  0  0  0  0  0  0  0
    3.5137   -0.7795    0.0000 C   0  0  0  0  0  0  0  0  0  0  0  0
   -0.0586   -0.3670    0.0000 C   0  0  0  0  0  0  0  0  0  0  0  0
    4.2282   -0.3670    0.0000 C   0  0  0  0  0  0  0  0  0  0  0  0
    3.5137   -1.6045    0.0000 C   0  0  0  0  0  0  0  0  0  0  0  0
    4.9427   -0.7795    0.0000 C   0  0  0  0  0  0  0  0  0  0  0  0
    4.2282   -2.0170    0.0000 C   0  0  0  0  0  0  0  0  0  0  0  0
    4.9427   -1.6045    0.0000 C   0  0  0  0  0  0  0  0  0  0  0  0
    2.0848   -0.7795    0.0000 C   0  0  0  0  0  0  0  0  0  0  0  0
    1.3703   -0.3670    0.0000 C   0  0  0  0  0  0  0  0  0  0  0  0
    4.9427    0.8705    0.0000 C   0  0  0  0  0  0  0  0  0  0  0  0
  1 11  1  0
  1 19  1  0
  2 20  1  0
  3 21  1  0
  3 28  1  0
  4 23  1  0
  4 30  1  0
  5  9  1  0
  5 10  1  0
  6 22  1  0
  6 29  1  0
  7  8  1  0
  7  9  2  0
  7 11  1  0
  8 10  2  0
  8 12  1  0
  9 13  1  0
 10 14  1  0
 11 15  2  0
 12 17  2  0
 13 16  2  0
 14 18  2  0
 15 16  1  0
 17 18  1  0
 19 20  1  0
 20 22  1  0
 21 23  2  0
 21 24  1  0
 23 25  1  0
 24 26  2  0
 25 27  2  0
 26 27  1  0
 28 29  1  0
M  END
>  <Classification>  (45) 
1

>  <pchembl>  (45) 
5.12

>  <InChI_steorem>  (45) 
InChI=1S/C24H26N2O4/c1-28-21-10-4-5-11-22(21)29-14-13-25-15-17(27)16-30-23-12-6-9-20-24(23)18-7-2-3-8-19(18)26-20/h2-12,17,25-27H,13-16H2,1H3

>  <source>  (45) 
ChEMBL25

>  <source_id>  (45) 
25

>  <optional_reference>  (45) 
10.1021/jm301302s

>  <optional_origin>  (45) 
None

>  <target>  (45) 
OCT2

$$$$

     RDKit          2D

 30 33  0  0  0  0  0  0  0  0999 V2000
    3.1250    1.5250    0.0000 C   0  0  0  0  0  0  0  0  0  0  0  0
    2.4042    1.9375    0.0000 C   0  0  0  0  0  0  0  0  0  0  0  0
    3.8375    1.9417    0.0000 C   0  0  0  0  0  0  0  0  0  0  0  0
    1.6958    0.7000    0.0000 C   0  0  0  0  0  0  0  0  0  0  0  0
    3.1208    0.6958    0.0000 N   0  0  0  0  0  0  0  0  0  0  0  0
    4.5542    1.5250    0.0000 N   0  0  0  0  0  0  0  0  0  0  0  0
    1.6917    1.5208    0.0000 C   0  0  0  0  0  0  0  0  0  0  0  0
    2.4125    0.2875    0.0000 C   0  0  0  0  0  0  0  0  0  0  0  0
    4.5500    0.6917    0.0000 C   0  0  0  0  0  0  0  0  0  0  0  0
    0.9833    0.2875    0.0000 C   0  0  0  0  0  0  0  0  0  0  0  0
    3.8375    0.2833    0.0000 C   0  0  0  0  0  0  0  0  0  0  0  0
    2.4000    2.7625    0.0000 O   0  0  0  0  0  0  0  0  0  0  0  0
    0.2667    0.7000    0.0000 N   0  0  0  0  0  0  0  0  0  0  0  0
   -1.8792    0.2833    0.0000 C   0  0  0  0  0  0  0  0  0  0  0  0
   -1.1625    0.6958    0.0000 C   0  0  0  0  0  0  0  0  0  0  0  0
    3.8375    2.7667    0.0000 O   0  0  0  0  0  0  0  0  0  0  0  0
    5.2667    0.2750    0.0000 O   0  0  0  0  0  0  0  0  0  0  0  0
   -2.5917    0.6958    0.0000 C   0  0  0  0  0  0  0  0  0  0  0  0
    5.2750    1.9417    0.0000 C   0  0  0  0  0  0  0  0  0  0  0  0
    0.9750    1.9333    0.0000 O   0  0  0  0  0  0  0  0  0  0  0  0
   -0.4458    0.2833    0.0000 C   0  0  0  0  0  0  0  0  0  0  0  0
    0.9833   -0.5375    0.0000 O   0  0  0  0  0  0  0  0  0  0  0  0
   -1.1625    1.5250    0.0000 C   0  0  0  0  0  0  0  0  0  0  0  0
   -2.5917    1.5250    0.0000 C   0  0  0  0  0  0  0  0  0  0  0  0
   -1.8792   -0.5417    0.0000 F   0  0  0  0  0  0  0  0  0  0  0  0
    5.9917    0.6875    0.0000 C   0  0  0  0  0  0  0  0  0  0  0  0
    5.9958    1.5208    0.0000 C   0  0  0  0  0  0  0  0  0  0  0  0
   -1.8792    1.9375    0.0000 C   0  0  0  0  0  0  0  0  0  0  0  0
   -3.3042    1.9333    0.0000 F   0  0  0  0  0  0  0  0  0  0  0  0
    5.2667    2.7708    0.0000 C   0  0  0  0  0  0  0  0  0  0  0  0
  2  1  2  0
  3  1  1  0
  4  8  2  0
  5  1  1  0
  6  3  1  0
  7  2  1  0
  8  5  1  0
  9  6  1  0
 10  4  1  0
 11  5  1  0
 12  2  1  0
 13 10  1  0
 14 15  2  0
 15 21  1  0
 16  3  2  0
 17  9  1  0
 18 14  1  0
 19  6  1  0
 20  7  2  0
 21 13  1  0
 22 10  2  0
 23 15  1  0
 24 28  1  0
 25 14  1  0
 26 27  1  0
 27 19  1  0
 28 23  2  0
 29 24  1  0
 19 30  1  0
  9 11  1  0
  4  7  1  0
 26 17  1  0
 18 24  2  0
M  END
>  <Classification>  (46) 
1

>  <pchembl>  (46) 
5.72

>  <InChI_steorem>  (46) 
InChI=1S/C20H19F2N3O5/c1-10-4-5-30-15-9-24-8-13(17(26)18(27)16(24)20(29)25(10)15)19(28)23-7-11-2-3-12(21)6-14(11)22/h2-3,6,8,10,15,27H,4-5,7,9H2,1H3,(H,23,28)

>  <source>  (46) 
ChEMBL25

>  <source_id>  (46) 
25

>  <optional_reference>  (46) 
10.1124/dmd.112.048918

>  <optional_origin>  (46) 
None

>  <target>  (46) 
OCT2

$$$$

     RDKit          2D

 30 34  0  0  0  0  0  0  0  0999 V2000
   -0.0875   -1.5250    0.0000 C   0  0  0  0  0  0  0  0  0  0  0  0
   -0.1833    2.0833    0.0000 C   0  0  0  0  0  0  0  0  0  0  0  0
    1.3792   -1.5375    0.0000 C   0  0  0  0  0  0  0  0  0  0  0  0
    0.6542   -0.2167    0.0000 C   0  0  0  0  0  0  0  0  0  0  0  0
    0.6542    1.6000    0.0000 C   0  0  0  0  0  0  0  0  0  0  0  0
   -0.0833   -0.7167    0.0000 C   0  0  0  0  0  0  0  0  0  0  0  0
    1.3917   -0.7250    0.0000 O   0  0  0  0  0  0  0  0  0  0  0  0
   -1.0250    1.6000    0.0000 C   0  0  0  0  0  0  0  0  0  0  0  0
   -1.8708    2.0833    0.0000 C   0  0  0  0  0  0  0  0  0  0  0  0
   -0.1833    3.0625    0.0000 C   0  0  0  0  0  0  0  0  0  0  0  0
    1.4917    2.0833    0.0000 N   0  0  0  0  0  0  0  0  0  0  0  0
   -0.9458   -2.0792    0.0000 C   0  0  0  0  0  0  0  0  0  0  0  0
   -1.8708    3.0625    0.0000 C   0  0  0  0  0  0  0  0  0  0  0  0
   -1.0250    3.5500    0.0000 C   0  0  0  0  0  0  0  0  0  0  0  0
   -0.9208   -0.1250    0.0000 C   0  0  0  0  0  0  0  0  0  0  0  0
   -3.3458    2.0833    0.0000 O   0  0  0  0  0  0  0  0  0  0  0  0
   -2.6083    3.4833    0.0000 O   0  0  0  0  0  0  0  0  0  0  0  0
    2.2542   -2.0167    0.0000 O   0  0  0  0  0  0  0  0  0  0  0  0
   -1.7958   -1.5792    0.0000 C   0  0  0  0  0  0  0  0  0  0  0  0
    0.6542    3.5500    0.0000 C   0  0  0  0  0  0  0  0  0  0  0  0
   -3.3458    2.9833    0.0000 C   0  0  0  0  0  0  0  0  0  0  0  0
    1.4917    3.0625    0.0000 C   0  0  0  0  0  0  0  0  0  0  0  0
   -1.7833   -0.6000    0.0000 C   0  0  0  0  0  0  0  0  0  0  0  0
   -1.0250    0.6208    0.0000 O   0  0  0  0  0  0  0  0  0  0  0  0
   -0.9458   -3.0917    0.0000 O   0  0  0  0  0  0  0  0  0  0  0  0
   -2.6833   -2.0542    0.0000 O   0  0  0  0  0  0  0  0  0  0  0  0
    2.3375    1.6000    0.0000 C   0  0  0  0  0  0  0  0  0  0  0  0
   -1.9083    0.1583    0.0000 C   0  0  0  0  0  0  0  0  0  0  0  0
   -1.7958   -3.5917    0.0000 C   0  0  0  0  0  0  0  0  0  0  0  0
   -3.5333   -1.5417    0.0000 C   0  0  0  0  0  0  0  0  0  0  0  0
  2  5  1  0
  3  1  1  0
  4  6  1  0
  5  4  1  0
  6  1  2  0
  7  3  1  0
  8  2  2  0
  9  8  1  0
 10  2  1  0
 11  5  1  0
 12  1  1  0
 13 14  1  0
 14 10  2  0
 15  6  1  0
 16  9  1  0
 17 13  1  0
 18  3  2  0
 19 12  2  0
 20 22  1  0
 21 16  1  0
 22 11  1  0
 23 19  1  0
 24  8  1  0
 25 12  1  0
 26 19  1  0
 27 11  1  0
 28 24  1  0
 29 25  1  0
 30 26  1  0
  4  7  1  0
 15 23  2  0
 10 20  1  0
  9 13  2  0
 17 21  1  0
M  END
>  <Classification>  (47) 
1

>  <pchembl>  (47) 
5.58

>  <InChI_steorem>  (47) 
InChI=1S/C22H23NO7/c1-23-8-7-11-9-14-20(29-10-28-14)21(27-4)15(11)17(23)18-12-5-6-13(25-2)19(26-3)16(12)22(24)30-18/h5-6,9,17-18H,7-8,10H2,1-4H3

>  <source>  (47) 
ChEMBL25

>  <source_id>  (47) 
25

>  <optional_reference>  (47) 
10.1021/jm301302s

>  <optional_origin>  (47) 
None

>  <target>  (47) 
OCT2

$$$$

     RDKit          2D

 23 24  0  0  0  0  0  0  0  0999 V2000
    9.5417   -4.2417    0.0000 C   0  0  0  0  0  0  0  0  0  0  0  0
   10.2542   -4.6542    0.0000 C   0  0  0  0  0  0  0  0  0  0  0  0
    8.8250   -4.6542    0.0000 C   0  0  0  0  0  0  0  0  0  0  0  0
    6.6833   -6.7167    0.0000 C   0  0  0  0  0  0  0  0  0  0  0  0
    9.5417   -6.7167    0.0000 C   0  0  0  0  0  0  0  0  0  0  0  0
    8.8250   -7.1292    0.0000 C   0  0  0  0  0  0  0  0  0  0  0  0
    9.5417   -5.8917    0.0000 C   0  0  0  0  0  0  0  0  0  0  0  0
    8.8250   -5.4792    0.0000 C   0  0  0  0  0  0  0  0  0  0  0  0
   10.2542   -5.4792    0.0000 C   0  0  0  0  0  0  0  0  0  0  0  0
    6.6833   -5.8917    0.0000 C   0  0  0  0  0  0  0  0  0  0  0  0
    7.3958   -7.1292    0.0000 C   0  0  0  0  0  0  0  0  0  0  0  0
    8.1125   -6.7167    0.0000 C   0  0  0  0  0  0  0  0  0  0  0  0
    7.3958   -5.4792    0.0000 C   0  0  0  0  0  0  0  0  0  0  0  0
    9.5417   -3.4167    0.0000 O   0  0  0  0  0  0  0  0  0  0  0  0
    8.1125   -4.2417    0.0000 O   0  0  0  0  0  0  0  0  0  0  0  0
   10.9708   -4.2417    0.0000 O   0  0  0  0  0  0  0  0  0  0  0  0
    5.9667   -7.1292    0.0000 O   0  0  0  0  0  0  0  0  0  0  0  0
    8.1125   -5.8917    0.0000 C   0  0  0  0  0  0  0  0  0  0  0  0
    5.9667   -5.4792    0.0000 O   0  0  0  0  0  0  0  0  0  0  0  0
    8.8250   -3.0042    0.0000 C   0  0  0  0  0  0  0  0  0  0  0  0
   11.6833   -4.6542    0.0000 C   0  0  0  0  0  0  0  0  0  0  0  0
    7.3958   -4.6542    0.0000 C   0  0  0  0  0  0  0  0  0  0  0  0
    5.2542   -5.8917    0.0000 C   0  0  0  0  0  0  0  0  0  0  0  0
  2  1  2  0
  3  1  1  0
  4 11  2  0
  5  7  1  0
  6  5  2  3
  7  8  1  0
  8  3  2  0
  9  2  1  0
 10 13  2  0
 11 12  1  0
 12  6  1  0
 13 18  1  0
 14  1  1  0
 15  3  1  0
 16  2  1  0
 17  4  1  0
 18 12  2  0
 19 10  1  0
 20 14  1  0
 21 16  1  0
 22 15  1  0
 23 19  1  0
  9  7  2  0
 10  4  1  0
M  END
>  <Classification>  (48) 
0

>  <pchembl>  (48) 
4.21

>  <InChI_steorem>  (48) 
InChI=1S/C18H20O5/c1-20-15-8-7-12(9-14(15)19)5-6-13-10-16(21-2)18(23-4)17(11-13)22-3/h5-11,19H,1-4H3

>  <source>  (48) 
ChEMBL26

>  <source_id>  (48) 
26

>  <optional_reference>  (48) 
10.1039/C7MD00246G

>  <optional_origin>  (48) 
None

>  <target>  (48) 
OCT2

$$$$
